33
Energy = -69.50460131 eV
Ag 16.475447571608015 12.92073103179017 10.673152513516344
Ag 15.923685574904471 12.417841206119318 13.710472990019902
Ag 15.723424881918945 14.998112195761292 12.424847070773781
Ag 15.451714289972863 10.349232906155079 10.450060023315688
Ag 14.145593652211533 14.44908221625953 14.637791953481806
Ag 14.656585323035623 9.946126748713136 13.16524803427414
Ag 14.242440482961065 7.935078524842751 11.2156802937311
Ag 14.478983773254367 14.823681166712868 9.891917562800675
Ag 13.164896023353013 9.203447541615164 8.721371512152265
Ag 13.971455067063514 12.75203571707978 11.817743346558228
Ag 13.147677978409707 11.876712406643652 14.431205956413104
Ag 12.851146627824098 15.320480058404806 12.269128627792048
Ag 12.724070384847405 10.343462533459363 11.113665115724043
Ag 11.349851011170644 14.097459736195708 14.433599651811289
Ag 11.539846183966167 7.713271046682524 10.674377890874993
Ag 13.92542689852629 12.192566917786976 8.98019742267554
Ag 10.468749907381289 11.512235630349666 15.192411810669064
Ag 11.67265372892671 9.54984660828159 13.476604138240122
Ag 9.70884452366242 7.6877215618758985 12.75030607799164
Ag 11.193853051874093 11.45254371847781 8.889845511905596
Ag 9.9103372947316 8.714229263819234 15.452280952220228
Ag 11.883790606229601 13.944168095983763 9.956522029525098
Ag 10.354141933507455 8.8456962648571 8.389952475540731
Ag 10.08288489870959 14.987590467277126 12.011511876863741
Ag 11.115343836412082 12.25695594139983 12.265513967972193
Ag 9.793072025998969 9.938993757111865 10.983225407992258
Ag 8.694549763729738 13.00027164115669 13.53517054185822
Ag 8.622040580095154 10.170605988574936 13.537130728032533
Ag 9.256164224981074 13.080997021293301 10.108826011178518
Ag 8.355320966344092 10.804593945490621 8.761683496316342
Ag 7.293423806453799 14.424487460694321 11.634844947950667
Ag 7.365020202732977 11.476205088664043 11.50959190048762
Ag 6.580400254783451 12.960170732078055 9.337730682491497
