28
Energy = -57.58821095 eV
Ag 15.004054188815925 9.620979464525961 8.802108246121799
Ag 14.471553188230848 8.325032693201175 11.20233524318103
Ag 14.331426840177933 11.214258758338449 11.35728195516923
Ag 13.00196646453532 7.335859121072659 8.844647694013238
Ag 12.733148272593146 9.864736392334224 7.063416277422136
Ag 13.539781612015151 12.156407181163399 8.739076140302888
Ag 12.01273451604703 7.094274616328754 11.64011121951309
Ag 12.442585389498428 9.804267543668015 9.773150397959713
Ag 12.412493092655899 9.70297951267928 12.698028083633973
Ag 10.180484082973708 9.129145106104174 7.990588452133592
Ag 10.310881026707976 6.814163197815091 9.521577002578862
Ag 11.655950769276785 12.222859015281372 10.923260253771156
Ag 10.144521158216548 8.237217603507657 13.514180386054761
Ag 10.789967221619133 11.852081198375043 8.237430141908497
Ag 10.051161371751869 14.215417739986579 9.666901721410891
Ag 12.414295412260339 12.422247341947836 13.500979491376956
Ag 7.721416771413861 8.89915091699104 9.505684372542108
Ag 10.072058185659618 9.306433995327016 10.953380349158568
Ag 7.488079711286636 13.510971978409504 8.618429480527563
Ag 9.90073816047207 13.7752912696547 12.602203512944948
Ag 8.85790043055034 11.87287744814959 10.534741080385682
Ag 8.398209018514486 7.138979616658506 11.595809606736868
Ag 8.125705885076137 10.987443899003884 7.777880875108493
Ag 9.906858803379038 11.073563379906885 13.191815594151482
Ag 7.594541124082629 14.512182780344627 11.152710528182359
Ag 7.53097422382959 9.765818835365847 12.19162070302015
Ag 6.235978770157455 11.37736909953708 10.136611074998822
Ag 7.336318910083795 12.418145007054285 12.920818481860113
