35
Energy = -72.72999540 eV
Ag 17.974418029278254 9.607508768231618 12.605589060980689
Ag 16.422486180471186 11.665383858492207 11.479559342906988
Ag 16.656454923202865 9.337652782027616 10.061077069805824
Ag 16.003015144825795 13.742930502847736 13.21600144936842
Ag 16.20047872935354 11.059492226929851 14.227907654523127
Ag 15.195826050838813 9.177997028516614 12.428778962648986
Ag 14.540193518941846 13.666645398747134 10.817284597208255
Ag 14.795151171918393 11.357662432365567 9.24731869569556
Ag 14.098147291991314 12.748478002426776 14.92892144460017
Ag 13.873381848612313 8.853519727105999 9.984490881779523
Ag 13.518560493713867 14.933046976267548 13.112263403670962
Ag 13.489512885770901 10.085631754031828 14.463267291082458
Ag 12.735987110580009 13.166720100076725 8.731491618768615
Ag 12.505570664915476 8.470130317463923 12.389244645497177
Ag 12.164528823159285 15.11150723210632 10.683156689687861
Ag 12.069444495651016 14.519365506501027 15.464904629042941
Ag 12.39745229536979 10.385832270483066 8.189461928872857
Ag 10.665034906438354 12.254475193460864 7.075452557968761
Ag 11.586978342627498 11.76906746734199 15.667480104321163
Ag 10.784270900790874 15.466106611354208 13.202103466630176
Ag 9.714161837743468 9.731052692336245 7.8673899665489335
Ag 9.600429243619246 16.157049784085064 10.82328872518779
Ag 10.198474910778954 14.359849430889044 8.799400106895742
Ag 10.780617915347076 9.347451952897313 14.4496983365067
Ag 9.809518044631735 7.9500259043000705 12.24150028256227
Ag 11.145191615984684 8.454291759124947 9.869402256356851
Ag 9.511415790043939 13.664429582618821 14.99126497869827
Ag 8.518215035926357 12.02620793114852 8.82924443498297
Ag 8.212601720370957 14.507420733775426 12.621607852523518
Ag 8.603901923781859 9.671700896907343 10.414705728883675
Ag 7.6040504510556035 14.3739516405085 9.925845299340855
Ag 8.944461276592179 11.020057718229339 15.722492659813932
Ag 8.316870356979546 10.057334736296045 13.180981103462528
Ag 7.382890307673768 12.043394468058581 11.375649239179598
Ag 7.175649544524909 12.43574489756095 14.109560611072707
