54
Energy = -119.03357243 eV
Ag 16.159938411993245 12.272581251833607 8.4315444086506
Ag 14.775768488437016 14.788209484683529 8.632109365403009
Ag 14.355942170934389 16.118441047667527 11.005040961345646
Ag 15.764223899037123 13.587378301927233 10.876418119927543
Ag 16.074857652335282 12.378167321592377 13.434207608458683
Ag 16.20692912293777 9.22978361019788 13.363145162935314
Ag 16.180063205799545 15.246547599996934 13.020940597925021
Ag 14.958711483571975 9.6793042184671 8.509592593454885
Ag 15.672240367057517 10.793614763367378 11.03810106812679
Ag 15.618075227012051 10.808517006039997 15.682641366157153
Ag 13.763440066265101 13.164106828039591 6.674042067216857
Ag 14.274319269645751 15.796142433767793 14.894850084166421
Ag 12.20789189054054 14.34011078632166 10.291198096137254
Ag 14.708089541616506 17.81454928139731 13.088572832516821
Ag 11.79624321760699 14.839027910549543 15.352397789677719
Ag 14.082374585365676 13.100562096840616 15.685954698394678
Ag 13.646033010526669 13.79029947758942 12.880140130071341
Ag 13.270805641661205 9.293139616708462 10.76861626788324
Ag 13.602858508354807 12.010970340063537 9.339774081763565
Ag 13.84867542678999 10.53645732853691 13.374489914062854
Ag 14.521604972814288 8.27065721689521 15.509930952089627
Ag 13.65466785768771 7.619067329357156 13.019077043961369
Ag 12.741628797425065 10.60507151638237 6.943530357123702
Ag 12.15827340849412 16.562752594216615 12.862889587599524
Ag 12.316148852465755 15.51123968168286 7.620706446778458
Ag 12.895206486075065 10.368705525721756 16.387624537951535
Ag 11.86025642191177 17.05113504035076 10.010202761213705
Ag 11.777663364667992 12.042405873959103 14.39915425898219
Ag 9.807516714692047 15.218187986768672 8.8115066955851
Ag 11.180341718233349 9.427470049680618 12.792907710458833
Ag 10.751568964347754 14.090389414376848 12.752794101044417
Ag 11.432471667352317 12.585147295343104 17.1219923962776
Ag 11.225935708887457 12.930901169243572 7.890931908525643
Ag 12.95688642892733 6.482297504214089 10.577911680476308
Ag 11.724767098444918 8.11193756589663 15.228164414412959
Ag 11.951278420022923 11.795297607029928 11.576656330675386
Ag 9.606434812502929 16.168002723223683 14.245869947054402
Ag 12.621246059942022 8.128237145074928 8.294753713860215
Ag 11.061992205960541 10.432837899858699 9.18017888480219
Ag 9.936958855315018 10.46252436009681 15.787172671594172
Ag 9.558273022230729 16.22124328597537 11.420553740283948
Ag 7.516877533705836 14.615421154122776 10.31275879696494
Ag 11.002334300378767 6.640029919830669 12.766105972986704
Ag 9.10215233929076 8.243640363963301 14.323212630250744
Ag 9.574772563837078 12.724724102536872 10.259342743516497
Ag 9.328117019955338 11.575964894442713 13.007947517281497
Ag 10.576050701258534 7.828839228240856 10.171477175831752
Ag 9.366014473001574 13.416064801534057 15.33186796196153
Ag 8.829290012989594 9.937670868229754 10.750606331604592
Ag 7.21457887997629 11.759725876578642 14.709161915738152
Ag 7.901813856834332 14.209276455102966 13.051631063397
Ag 8.384091876730151 7.367833805183089 11.7873086841489
Ag 7.0191374373542414 12.06117560824867 11.501528761262952
Ag 7.1135548360810335 9.607948506595987 12.946354020181753
