46
Energy = -99.58448172 eV
Ag 17.06668569135681 9.993886712847955 12.437198504067092
Ag 16.762378217085924 12.169308691270887 10.819861650182185
Ag 15.84091306839212 14.733395003983716 12.112794488751888
Ag 15.230131062910408 16.854858862730726 10.488481365313012
Ag 16.236828482172246 14.426123158109704 9.350574932965298
Ag 15.31287758073711 9.677405269778133 14.677623132043863
Ag 15.796943243346629 12.336242288653052 13.503141352129964
Ag 15.315573401912895 7.836059417606506 12.428108548203147
Ag 15.446921011866946 9.562441596293176 10.01359124523971
Ag 15.131788397213583 11.937119529752314 8.34352590825068
Ag 14.467052893107036 17.04377447503988 13.17572488026801
Ag 14.18684382993813 14.528203812520944 14.398026470566192
Ag 13.830021493269689 11.896363232844735 15.478956518815354
Ag 14.024711483848817 12.946646879099086 10.623284368240618
Ag 10.586812484104575 8.167497682197741 15.423417325919427
Ag 12.909835979701112 15.413519427486145 11.539127175666339
Ag 13.670104274182565 15.244370090400908 8.810267072081423
Ag 14.130176890626034 10.478238386626982 12.220993880357835
Ag 12.355255908776694 12.895945438793115 8.097129516120132
Ag 12.964973257385564 8.143760295890308 11.01212401872112
Ag 12.900394550790818 8.471067827809344 13.851148492369393
Ag 12.59691226294907 12.710311326512766 13.03200156666951
Ag 13.076209826657168 9.326120927044562 16.475163277402245
Ag 10.948192117459332 15.142185930369722 9.320599717402537
Ag 11.137297324449388 12.703425444749303 10.635650830802334
Ag 11.558984259491595 13.622461876160761 15.44800007884617
Ag 11.86160155657336 16.08976586217573 14.05050379248148
Ag 12.760818237116327 10.515300950940517 9.53875187575766
Ag 11.286293911524771 10.821858334818334 14.942296159413573
Ag 10.537744055907686 7.551938753832443 12.603273077162822
Ag 11.292696542644494 10.294086174802798 12.106431518032709
Ag 10.150641446965944 15.037983089726172 12.024253877159717
Ag 9.619551239553951 12.418976827232411 13.37213292072846
Ag 10.04962196649427 11.127861284149406 8.58079196867018
Ag 10.452885066913518 8.604780004161963 9.923349820125004
Ag 8.886913423999367 9.566432134608844 13.668837213212305
Ag 9.316558815434306 15.056469122303149 14.649436035267785
Ag 8.68430202767138 10.850388324404804 11.037923440319638
Ag 7.975589164287391 8.981731926362134 8.820269014391453
Ag 6.917895704115328 11.432990465716491 13.131287728305336
Ag 8.576241086631393 13.666392062760556 10.055517124261383
Ag 8.033711891754377 7.987200832448944 11.455826884200262
Ag 7.517909637209631 14.180635106679462 12.670166866040407
Ag 7.251532714949857 11.607179901029225 8.643402056219953
Ag 6.066461892097386 9.875174580601032 10.865066302540768
Ag 5.989767620205752 12.75828586980156 10.856972578557665
