49
Energy = -106.51871455 eV
Ag 15.661836746950659 11.658881708066684 15.58037660832999
Ag 15.664259459082377 13.679847867094965 13.708120328666975
Ag 16.26134840954019 10.822447441782792 13.05347822949714
Ag 17.056837423709535 12.973841183203378 11.310198184021623
Ag 14.487058805513314 9.1563964500863 14.574728920344826
Ag 13.551873330454352 13.552738948886484 15.615528054747093
Ag 13.323404054882259 10.815175153358725 16.65748120870862
Ag 12.950454314852546 11.292497480035502 13.750778814934442
Ag 16.154083516470113 10.556683987594717 10.103192627479071
Ag 13.397261881119643 15.386448647203792 13.4853261850669
Ag 14.121274498078822 9.396234564632621 11.725354901528856
Ag 15.18223133000829 15.03836309698021 11.275047395385622
Ag 15.147047443835898 12.994165980147075 9.051786650314405
Ag 14.344527519567352 12.23460773914675 11.55670842357585
Ag 11.670707260605722 9.129142046036373 15.12103232706511
Ag 11.037124662015737 12.076515514954067 15.714178209159718
Ag 11.678660606576823 11.440377138999523 11.086848520225278
Ag 13.483366251937635 10.466808427151554 9.077139706079182
Ag 13.88875721191494 15.479853282767035 8.766434076898868
Ag 12.471603048164724 14.194934152163412 10.931217908292579
Ag 13.097018939727944 16.946194621514636 11.044926551122709
Ag 10.79383906857387 15.927098549042803 12.367981612651054
Ag 9.138973813642108 9.930428730850101 15.935267202150477
Ag 11.163819032380061 15.011046293783489 15.161934106682342
Ag 12.437730413323472 13.094196859259428 8.321154276805535
Ag 11.072297382902065 15.608983711856908 8.985897301116532
Ag 10.88893098023886 13.218522919904743 13.124576248310115
Ag 13.09193472812496 7.412367054397886 10.006760050822173
Ag 8.442876388105695 12.446580112736903 14.723416894515966
Ag 10.936903823313655 9.038962277713065 9.815174792558992
Ag 11.743326050659922 8.270964632387368 12.449255272994293
Ag 9.277434105551158 7.942551459535314 13.829374289089307
Ag 7.150963900695687 10.049626770559549 13.970436277683525
Ag 12.420538786423105 8.410851811651163 7.394047477531864
Ag 9.97169562409327 10.563991254326627 13.190904913326968
Ag 8.376978447676857 14.663036555223329 13.10025019738648
Ag 9.549570910242997 13.907751960314235 10.672688731266943
Ag 9.182664801436493 11.1766863165271 9.885907341676463
Ag 11.026302160767859 10.854737326639428 7.570792474230542
Ag 9.673761714014129 13.304197036513019 7.890890899866481
Ag 9.593220509189056 6.871275045172143 11.110443135850945
Ag 10.479875623189399 6.658610727380302 8.444693337660452
Ag 7.607849993569038 12.098688679718336 12.006956620731609
Ag 8.047039149160002 9.118801617289197 11.562901711497078
Ag 7.2060236814978715 13.045372921158904 9.278529116319474
Ag 9.674845719703375 8.644644653458316 6.569337987211872
Ag 8.245505793100648 8.373073520826338 8.894951465018725
Ag 6.43992408356274 10.388712941639113 9.67805715166752
Ag 8.110100831719654 10.88847942125237 7.337065097381456
