6
Energy = -7.65965643 eV
Ag 13.709242822645857 9.976926447096941 12.235962824082522
Ag 9.617775785942552 11.596128368167447 10.956470772246202
Ag 14.942717867625442 12.403021185751866 12.365887638420784
Ag 13.040627373054232 13.350878441236071 14.040445214777808
Ag 7.429597830776159 11.570954459795024 9.47494631190558
Ag 12.048442478333154 12.121463689572481 11.789554388199608
