42
Energy = -90.93576531 eV
Ag 14.496242351612052 6.568435095605438 11.005932060085666
Ag 13.490854327070352 8.23674055848044 8.977759066820726
Ag 12.579499630336992 9.986143333843003 6.945163942047311
Ag 12.235545362451289 8.191689002536812 11.49129671191739
Ag 13.247325468067135 12.722284295662767 7.071359189960864
Ag 14.877210802767818 9.315418326257205 11.286086574661603
Ag 11.247547387217775 9.949767558501332 9.380634403999274
Ag 14.12427425232703 10.962228635617981 9.118400919354558
Ag 14.141018544387988 7.738985805558843 13.562678230256811
Ag 9.177109453767418 11.834739019125326 9.879358415151872
Ag 10.584721004045134 11.982383696027195 7.450820453310722
Ag 9.980423712513613 9.853420452040085 11.904803296014471
Ag 12.605402094320413 11.042673240397631 11.728994686849934
Ag 11.455251734592888 14.803958385859938 7.752151245047871
Ag 11.944908440637994 12.968692481868144 9.692918093234312
Ag 11.843963985561665 9.354520844078738 14.057187132606984
Ag 14.61646261319168 10.547508371917107 13.846794748601294
Ag 15.234015706204167 12.140678616679262 11.506253364102614
Ag 14.762250104764943 13.714213487950781 9.22828069575375
Ag 7.847932206215457 11.556527757016285 12.442588150186413
Ag 13.786425986783094 8.953433629866717 16.05991205532478
Ag 11.538964274905961 10.639574932632254 16.562463672734612
Ag 12.26141158258116 12.310563221980889 14.304732373816977
Ag 10.381537514138062 12.86494646368444 12.190575485054497
Ag 13.46060534208885 10.223047454140037 18.55809869761136
Ag 15.441554984381105 14.984646855084156 11.680752348045782
Ag 13.096228264658373 15.885796714091107 9.839211823348196
Ag 12.891436602040656 14.04700786019205 12.089243663917037
Ag 14.202554789726427 11.771777530325922 16.357370279138532
Ag 14.911993763927228 13.38533943685435 14.053147896228404
Ag 10.413918095890184 15.244733092789266 10.354989755159782
Ag 9.678303545913959 11.140709918605383 14.496124797009623
Ag 8.00265094952864 14.123567280600563 11.270110983244082
Ag 10.416384742209472 13.311745012962199 16.25512986688281
Ag 12.327941816057148 12.771976217039986 18.26041278350104
Ag 11.141304773737705 15.184450311936786 14.244785441229396
Ag 14.475836038381747 17.58622030940001 11.600656969817956
Ag 13.103569863731494 14.422832368529596 16.095710908041536
Ag 13.878284551837078 16.062827918495355 13.905317631902445
Ag 11.802540585344305 16.971791693243333 12.150090737571368
Ag 8.587267966352904 13.8521906061813 14.130466439321982
Ag 9.156738438893155 16.24043460915564 12.65629005105525
