49
Energy = -106.10928751 eV
Ag 13.979171293793547 16.66144788646961 15.956492575202718
Ag 15.864611798268252 15.758176084620626 14.116008840301495
Ag 11.352222853195963 16.72724278171183 14.903281553804964
Ag 12.289678420996974 14.571338593859386 16.705005406564073
Ag 14.929045112726268 13.949720974128647 16.063756629200025
Ag 14.466312020531918 16.335298341359543 11.712494204992652
Ag 15.924850144031454 11.335806957568575 15.79803615429369
Ag 11.664777947552224 15.956810932674715 11.51956304208009
Ag 13.12706202017385 14.947902378549836 13.797859188078515
Ag 9.33063437332304 16.183801135716234 13.08477756101489
Ag 17.279123079823833 13.382104541941777 14.372560489013678
Ag 13.359547293639485 11.759873138338904 17.10410476981477
Ag 9.86465093520006 14.373910227167787 15.176413923106576
Ag 10.434251330370651 12.425168161694849 17.142449695376595
Ag 14.70051265689626 12.541660254123151 13.501140236700747
Ag 13.640835565778884 10.027330891855396 14.667392339286442
Ag 16.35777905152511 14.285454622390406 11.777038589485617
Ag 9.1613380142205 16.41943036868829 10.275461675379873
Ag 13.328089119743106 13.638865844049391 11.252206991892578
Ag 12.115404176179855 12.521294926413754 14.801475929897137
Ag 10.753953493359566 13.457873636091897 12.533529176168747
Ag 6.8464355689813905 16.08321014586749 11.88396026266435
Ag 18.428795159581487 10.9018752088584 14.4386679116647
Ag 7.822521503066218 13.798803092746775 13.27312201634054
Ag 15.13399383104655 14.999501498879711 9.339898271775981
Ag 16.092835862174823 9.876702535940995 13.346714674733315
Ag 17.488356674402144 11.723979100227002 11.88498007287217
Ag 11.16071687395871 10.049783096707593 15.910366030840722
Ag 9.232957006549068 11.682561731258602 14.5575764325533
Ag 7.847192992644284 13.951533499415053 10.455673975600485
Ag 11.299606331529684 10.622116708421984 12.941537559855204
Ag 15.518483561046642 12.302556957511868 9.942338447947089
Ag 13.763720561618756 10.7210184852523 11.584912787036028
Ag 10.570234407246103 14.083178627823314 9.616562255219165
Ag 8.782959916243843 11.577723094478134 11.71879187341426
Ag 13.092650579665799 13.279678680959567 8.495554731459539
Ag 11.383653714246819 11.47584506808991 10.25085742082068
Ag 14.057129693020277 8.124821072218388 12.523207637816881
Ag 11.608465257405664 8.011049843802065 14.026533336658835
Ag 9.121076095521937 8.965008155310226 12.846120962557828
Ag 11.438544298799794 8.394990037863927 11.2118599230635
Ag 16.049104836416937 9.546278299011746 10.552037024521109
Ag 8.744179084881038 11.922841082068592 8.868481964244003
Ag 13.642002166141593 10.583457505893454 8.652788271345973
Ag 9.098889404461167 9.340356407589603 10.013368822064946
Ag 11.167367530230296 11.552169174053347 7.4224063647022875
Ag 13.784642467393292 8.092953357576631 9.722169604623737
Ag 11.408670042824724 8.86166510099981 8.418978254958384
Ag 9.015824257008848 9.699061449939848 7.262576287922177
