37
Energy = -77.93326126 eV
Ag 12.664165203413617 13.384926312160331 17.850095176021085
Ag 15.111821923462372 14.015867234407464 16.560390608976114
Ag 11.781046469786803 14.773274351622524 13.588425243209558
Ag 14.49640360617627 11.306420856249698 17.133068598855537
Ag 10.209579402394189 12.989766418357329 15.115888304824864
Ag 11.684415906123807 10.910964354602989 16.75161501806024
Ag 9.041775377410486 14.596122976946713 13.09842249572119
Ag 13.424296102977857 16.647932475712523 12.128524054962611
Ag 14.56030612224532 14.822983534602544 13.902661183111801
Ag 12.994035427737076 12.824146194302296 15.19350508562661
Ag 10.783691370303835 16.321852104161795 11.47106930219584
Ag 15.68404443700516 12.057467721104873 14.622615635877215
Ag 8.61107028511897 11.58581126120637 13.217886692008445
Ag 13.85578682806182 9.92790234903926 14.813814190223582
Ag 13.221389084094033 14.13261929444541 11.086759079203626
Ag 9.085107701046965 10.512432808048665 15.833218512806539
Ag 8.193135973023244 15.929968026189542 10.768610251056876
Ag 10.78802351060696 12.538977027380556 11.795992029289923
Ag 12.421667805136739 15.975565383438614 9.1989539638741
Ag 11.192975731904722 10.514954786237334 14.003802106825736
Ag 10.19440585247887 14.333569816941639 9.571274584109819
Ag 7.972453079697618 13.143956819223273 10.978300955001663
Ag 13.336133616731797 11.795079335737368 12.577505146733564
Ag 15.803464474074964 13.191048313653576 12.075439580552947
Ag 15.575339446583802 10.215492518583332 12.274701433317356
Ag 10.15354749159992 9.62815575112047 11.563078991594077
Ag 12.974918580266857 8.983074936651358 12.356806608253747
Ag 14.724114068716636 11.884535418710959 9.998015342261443
Ag 12.550488263505843 13.175676320478143 8.53270262862866
Ag 9.57494989403707 11.59143565258658 9.399203911859065
Ag 12.200719372166859 10.632548646008594 9.912061551194725
Ag 14.516353268095065 9.000088413289886 9.88273206444419
Ag 12.03262982552262 7.561466744430803 10.263920785818987
Ag 10.114351896414423 8.919623201220594 8.81126575694296
Ag 14.07454114319446 10.891205286983716 7.571004949884464
Ag 11.283790999537223 10.972790679006037 7.235248197189619
Ag 12.710633634414826 8.49734949191932 7.729142164452249
