34
Energy = -72.09085787 eV
Ag 12.67184605065577 16.53551415404873 11.753370744495772
Ag 13.491682651849205 14.460183881555459 9.85949924909819
Ag 11.059614286732153 15.840004126929706 9.577031814128995
Ag 13.768001272108364 11.979563183977822 8.420582970788583
Ag 11.284990472711904 13.332830273377438 8.44244095714768
Ag 11.901545051150936 14.767628063635444 14.058268612102237
Ag 14.178051767470155 12.097796078301794 11.186476258001147
Ag 11.474395407688826 10.799996233865803 7.220525623546024
Ag 13.936421814175858 9.40519282349412 7.176182528965038
Ag 10.0679547719384 15.792745963894962 12.200593407689372
Ag 9.189657138557985 13.832311449865925 10.330423661542095
Ag 11.54546601221496 13.168867335619227 11.797557915986813
Ag 14.322909580326199 14.541979227330108 12.565769186615121
Ag 13.384563336576516 12.292054650288783 13.94571334966242
Ag 11.574100755299755 8.28092652939109 6.109799620547047
Ag 9.186187232903148 11.526710652082377 8.694433552000516
Ag 11.677911206585964 10.863153291171463 10.16295518880863
Ag 12.480994665877512 8.032116986727182 11.601681921409922
Ag 12.052277503689515 8.14870387169869 8.844791995117763
Ag 9.470939164687193 8.842800500056315 7.86780021951769
Ag 14.300172849800616 9.8245080178997 12.751400637320621
Ag 9.042198237659127 11.266450292436641 11.497812755975005
Ag 10.881184867447121 12.3384813407065 15.143005321805079
Ag 7.496699668141415 9.551915378789083 9.77717790162295
Ag 9.099870981687479 13.463679859110188 13.281543764061217
Ag 11.456921794820358 10.452624370813009 12.997937613547117
Ag 14.248321951685647 9.533377296227165 9.935791594466433
Ag 9.910491346967751 8.578216764016615 10.666641285548545
Ag 8.62360985406141 10.902269629896377 14.269222195973962
Ag 12.743295875455086 8.231597729198565 14.398360103110717
Ag 7.748182423587998 8.887389618396822 12.489230789875556
Ag 10.662875388271946 9.556875158180347 15.678421633082507
Ag 10.208359294477981 7.842837087397942 13.401995136984684
Ag 8.175993082769073 8.326615149423898 15.203159253006527
