37
Energy = -79.41617488 eV
Ag 11.974020924005195 6.875731433678114 10.347175056240035
Ag 10.365460018533627 10.646632044364663 9.157132024359163
Ag 11.991432559062199 15.024353014488726 9.630779135352
Ag 7.274775401615788 8.031543998663128 11.434437326079808
Ag 10.761048966334384 10.635296114287447 6.255355264534249
Ag 13.041283602005583 10.749200896273909 7.844314382116997
Ag 14.019733421733763 8.58176745641739 9.34577501778802
Ag 7.495854219281653 10.074033137975645 9.56757820696805
Ag 14.70041537840515 14.157398460418275 10.583515822563857
Ag 8.750007119466638 9.066152919387134 7.279197091661353
Ag 8.455460248941073 11.99450836860544 7.671121833978559
Ag 10.84820607948626 9.194526734153461 14.166603619131132
Ag 11.557659235635027 8.339031479680003 7.915592812691137
Ag 6.939847054756124 12.702210492223909 10.059541953455627
Ag 12.126445784703046 9.637375267258665 11.152538131552323
Ag 10.421307987481066 13.929194057819199 14.250838479537604
Ag 11.319931319960926 11.448024808301538 15.714773377113618
Ag 13.25458140753767 13.135225348605928 14.737050230960953
Ag 6.795592146582965 10.85560452189129 12.278124236728233
Ag 10.087964642010789 15.368813998555735 11.797918915409891
Ag 14.357470414892717 12.072967061720954 12.412242897216212
Ag 14.89892646321378 9.349179588073724 11.92119706477435
Ag 12.368845002199496 12.357133040027117 10.27577559174378
Ag 12.86083813637206 7.618204502402163 12.95008064943598
Ag 8.900379738501487 11.41011569747753 14.290693432545364
Ag 12.59686996902984 14.420983663971736 12.37590486538687
Ag 8.33257174621455 13.28761954081844 12.379699111827458
Ag 9.401202219085302 10.074446186911311 11.744244508907295
Ag 13.465702070034002 10.155162815395382 14.232116735349063
Ag 11.433774302010352 11.777108403021558 12.853742790915868
Ag 13.91715734878079 13.398721554103654 8.06112208212993
Ag 11.18866338616887 13.013034851247522 7.6470226218733846
Ag 9.46818002509105 7.940202276196154 9.73419199000543
Ag 10.013737171015833 7.247212511748774 12.371743216412781
Ag 9.58632250213732 13.476351094721297 9.84819513623597
Ag 8.088308215650425 8.772451081998545 13.956908024286166
Ag 14.982241449934637 11.27894154813533 9.811265322277157
