11
Energy = -19.15449311 eV
Ag 12.01369552484659 6.469869216082613 10.993940040442926
Ag 8.012815137138023 7.860295840089467 7.769764397020674
Ag 10.24184809496665 7.070098973076519 9.078022857317928
Ag 9.966559271219419 9.820201646478317 8.306032008392503
Ag 11.565843766223946 12.05037317364657 8.621320283836631
Ag 11.070519536664694 9.017529351650197 10.849351478104923
Ag 8.261371157772782 8.87432709935807 10.342976937973331
Ag 7.209254672174975 10.57501442378002 8.420462087069028
Ag 9.617935762481212 11.426939926946966 10.532166387204494
Ag 8.939057619923595 12.655848498502003 8.161870962286567
Ag 8.957847622796628 10.002518094853064 12.770730114868712
