12
Energy = -32.8720497 eV
Al 7.187783075659841 10.697456314062414 8.601848869155052
Al 9.493401686175735 11.484414537355448 9.857961338432657
Al 7.648303473472465 9.895423698089564 11.120384543500245
Al 6.563909104064976 8.16352090043075 9.224160051098629
Al 7.750605502742271 8.69906919435787 6.810573670581028
Al 9.563945783717418 10.723415928950796 7.217967486120964
Al 11.524955419558582 9.929231851104813 8.867963403332343
Al 8.597687580902777 6.608790965847802 8.235786529070753
Al 10.442609302834239 8.198921077160566 6.976179410813699
Al 10.341423907664788 9.393604587133273 11.282100055736358
Al 10.916771047952393 7.39062584456851 9.489292203467832
Al 8.535471992257825 7.375325253613563 10.865254460066561
