12
Energy = -33.14719253 eV
Al 11.083402068303194 11.069211435059705 8.373805224164794
Al 6.461677374910342 10.05630497177018 9.126938170166378
Al 7.247573891993654 7.560110248140181 9.960512784391614
Al 10.278035989107051 8.96276962970847 6.806382645901333
Al 11.678059633399728 8.531803318988695 9.238469663270422
Al 9.499275980373694 7.128468059395477 8.5869470978626
Al 7.539615537069353 8.362496881521094 7.25347374097848
Al 9.805332215262025 7.665089616533797 11.187168058492441
Al 9.062573078021805 9.635515470471088 9.283010935800686
Al 7.9221564641266164 9.606697635216316 11.663137548546377
Al 8.415829545156942 10.960598117029145 7.094151968889576
Al 10.77844822227572 10.232914707591226 11.197982298673036
