12
Energy = -31.91138136 eV
Al 11.417273162150302 10.048257 8.801102424768516
Al 11.445623471857505 11.396623774358089 11.166426299375592
Al 11.445623471857505 8.699890225642054 11.166426299375592
Al 10.048257 11.383214676353798 13.448681152017965
Al 8.650890528142492 11.396623774358089 11.166426299375592
Al 8.679240837849699 10.048257 8.801102424768516
Al 8.650890528142492 8.699890225642054 11.166426299375592
Al 10.048257 7.715794431907489 9.049266029537614
Al 10.048257 8.747931508980393 6.657639794925
Al 10.048257 8.713299323646199 13.448681152017965
Al 10.048257 11.348582491019604 6.657639794925
Al 10.048257 12.380719568092509 9.049266029537614
