12
Energy = -33.51593852 eV
Al 10.868435478448493 6.6625239144990855 8.923100783663447
Al 9.04139331753075 6.91010001760584 10.854226628936926
Al 11.82598683255205 9.08592906443585 8.420657793788923
Al 10.907318127969017 8.690028903820096 11.027690693902356
Al 9.134679326999311 8.691828719521292 8.48938923230852
Al 6.887063428785886 7.305023872794521 9.476616644921005
Al 10.249581699785614 10.864298031454501 7.292570833677287
Al 6.446720407217065 9.797397482692599 8.953154713780487
Al 8.314602950295633 9.495428608219791 10.868238283930364
Al 10.534201616926746 11.01956461597235 10.157039255835295
Al 7.7693346147466675 10.159467870791662 6.661493631507262
Al 8.296853307488194 11.594580006937974 9.151992612493686
