12
Energy = -32.94282565 eV
Al 9.363884251223954 10.90057177389579 6.890274715707549
Al 9.391560059180316 8.421368531557949 7.599039889295055
Al 9.844762757635369 8.120387876863335 10.109297896596134
Al 11.561863940930598 9.961798439202031 8.32778481431334
Al 11.011296669668956 12.584022643246984 7.834607974244726
Al 9.370097758893959 10.840865429588147 9.617261695080387
Al 11.828042250660532 12.115830994439975 10.167984680738662
Al 11.97174373704041 9.496156993993116 10.852576473203579
Al 8.221771228890406 9.897818426087529 11.746850508333894
Al 10.41805938613347 8.580076037482794 12.745941717042154
Al 10.443234671744063 11.293516951627666 12.176113394200792
Al 8.920859709280574 10.13476232329744 14.279442662526476
