12
Energy = -32.85826235 eV
Al 8.012356052138298 9.481667915779031 7.919045704325703
Al 6.511528307331134 10.39539697835445 9.701747378254327
Al 9.051540936322217 11.526732095715682 9.493278177868383
Al 10.52738718579395 9.305502469257632 8.360243751884788
Al 7.308084202852339 10.856763584507194 12.124905808007105
Al 8.894100566613096 9.038009878955343 10.578287637975386
Al 11.589729053914558 11.391434564417347 9.6627583997916
Al 11.361153501145214 9.076039041273567 11.068414861872991
Al 13.060067952681932 8.683344900832004 8.789233234785815
Al 9.923099704345551 11.254822230119604 12.016685800223097
Al 12.461454326120386 11.37377916939736 12.308239603255572
Al 13.951935237113322 10.268944197762929 10.629596668126949
