15
Energy = -106.34115606 eV
Mn 12.232075579380062 9.197277777153895 10.617306171163774
Mn 9.036338067394237 11.122551313899022 11.034992963713275
Mn 9.021267447390889 7.894929679098242 8.992425752921442
Mn 10.214148387014195 12.159595239949413 8.830114475862146
Mn 9.2282570273539 11.372974032716895 6.552527502597743
Mn 9.09287395557678 9.652103418176404 13.14648044076648
Mn 10.584907092571042 9.896978083136851 9.322310543569136
Mn 12.003791692021723 10.40985076600015 7.513731017915141
Mn 9.923148927416753 9.299593896054319 7.1863524849024705
Mn 8.297740957060396 10.258107803585519 8.863989918060804
Mn 7.480445270288983 8.95117922871223 11.187187789728954
Mn 11.226727005490885 8.172830396573104 12.73017818205177
Mn 7.664517262787366 9.138029374858947 6.671906614396804
Mn 8.908222505586178 7.161885011603538 12.878176752529631
Mn 9.750103087794404 8.750470222979247 11.13507067691106
