10
Energy = -69.68470793 eV
Mn 9.236233391808536 9.526958973052325 7.467576688964956
Mn 6.559138590129385 9.406757111567206 7.2864822850418145
Mn 5.285492970057172 8.220474041211897 8.939680480403466
Mn 7.9818787157378015 7.612526435803977 6.458496813472209
Mn 7.816914651053883 9.18324963662898 9.591417769969004
Mn 5.561846508194129 6.988396172338306 6.575609232726426
Mn 9.507682360909445 7.258169009836042 8.785868284451736
Mn 7.1017837870670695 7.009399449989734 8.601645491200335
Mn 10.132843906419978 7.103099792483867 6.475564552093371
Mn 8.388365691830632 5.263769419541319 7.344742811538092
