15
Energy = -105.46175316 eV
Mn 8.049590703035294 11.965441042668779 11.300183385269808
Mn 7.619032773792073 10.52161941388289 7.769583476162651
Mn 6.982141515009943 8.883186577333081 12.23739257389262
Mn 6.7448314885128156 6.3655676048865235 10.888304590034867
Mn 9.823867999214658 11.152732127025997 7.061273333584317
Mn 11.872060673230495 12.318358172176374 8.395069135347029
Mn 10.856127299016004 11.36455604343668 10.651382262040043
Mn 10.671941205347695 8.44601810672457 10.627650928069608
Mn 8.797617626612656 7.281482507413974 11.755715190620835
Mn 11.194014574021185 9.888293845244508 8.499949217240195
Mn 12.076777417284084 10.796917972303174 6.189045047024169
Mn 9.27893743138936 12.543531632969238 8.883588442845898
Mn 9.029139099211001 9.815682262928002 11.609097781803948
Mn 7.897602664727518 8.291210999765669 9.66205420221589
Mn 9.0624619176697 10.294760798485072 9.504322487594
