13
Energy = -80.40345986 eV
Mn 10.130320093713575 10.137487913526307 10.142583476526587
Mn 8.303870753315913 9.579176023758752 11.362431617183091
Mn 10.612509458910687 11.70277697805267 14.840608726032753
Mn 10.239684940734941 11.99745109334985 17.237594326791307
Mn 12.05929481482383 13.168968513137843 18.9141411280075
Mn 12.483092908242138 12.724666754499703 16.12169887199137
Mn 12.562583984441224 12.016907477805509 13.24236530086253
Mn 14.051790990252265 13.71095517375861 17.778751365571658
Mn 14.915291241754987 13.595962315315687 15.711616732553482
Mn 14.9500246670668 13.050686785305803 13.379108490194891
Mn 6.410137184081889 9.0526672166137 12.716977413720514
Mn 4.678731311694755 8.948324333663646 16.610961937648742
Mn 4.713352625642751 8.425876573796486 14.307409557637605
