10
Energy = -69.08799335 eV
Mn 8.725977978839985 12.218217435006324 9.522410370374894
Mn 8.504436043883015 9.866163166646025 10.232658431754857
Mn 8.396452558918705 10.302713157997632 7.85781284007911
Mn 7.7495295445940355 8.074044767658785 11.751762634033954
Mn 7.807193804599601 7.786696521096677 9.210180919577267
Mn 8.18499635383404 8.02199077651059 6.668642703121887
Mn 10.580013566658398 10.494090216174042 9.162425271597929
Mn 9.988964435524544 7.98185764544057 10.518363156289057
Mn 9.87411223377924 8.423893107305387 8.152288410581141
Mn 12.008065760558182 8.356611187990787 8.956936653898742
