17
Energy = -109.77616523 eV
Mn 7.242969160026486 13.430339281992598 7.215357093747286
Mn 9.059312658841726 13.497339435347042 8.74273745676283
Mn 10.713441443121777 13.410833906920013 10.604514559980961
Mn 11.736672281321809 9.047883999176687 12.64739656519923
Mn 14.1182535887523 8.844021592026449 13.88075733813117
Mn 13.00488073402082 6.9590900903806245 12.87794502216385
Mn 11.146044995136412 6.868812890410232 11.481946476209803
Mn 9.182163311930815 9.056605834722198 8.403032482550337
Mn 9.420535698406937 7.017254424623301 9.734881996088763
Mn 7.455799174890628 7.0551832531442 8.354958141375961
Mn 7.087066195456837 9.347370315677777 7.059686684957106
Mn 4.9045172377753055 9.53170774757012 5.973864364209786
Mn 5.942141088407079 11.663616938874418 6.295673060579115
Mn 8.552967591964695 11.330087614173765 7.552309187166419
Mn 13.058412166645311 11.139054826849433 13.328893510452149
Mn 14.461003398536285 13.057353871922578 13.680868489037652
Mn 15.177022368013438 10.995248534838666 14.429562754085376
