17
Energy = -124.25146522 eV
Mn 6.889440071365547 5.436527367154248 7.590708881524656
Mn 6.982380457230956 9.511410575225838 5.003194386698321
Mn 8.524972851047943 7.6710109680319345 5.453964374720895
Mn 7.968911787427099 7.610601987238186 7.866746294698018
Mn 6.1628691570814365 7.270498095772037 3.9829832291260967
Mn 6.119337217419226 7.534232808525882 6.317465584838946
Mn 7.383595702299151 5.491278003579249 5.254333922998281
Mn 5.50746432639981 7.245787578957309 8.646204095089981
Mn 4.729159020944381 5.860919671105751 6.034055403131343
Mn 4.499528541324078 8.907421932227129 5.493748385546749
Mn 8.750463752143025 7.920099030398938 11.563754138688559
Mn 9.38957131501525 5.875440668819788 7.167530743109527
Mn 8.697666219845773 9.679307853745662 7.0785374110541275
Mn 6.103487831582382 9.554514800695 7.423924246406236
Mn 9.848099877892517 7.983606741583598 9.133823108410306
Mn 7.710328295259324 6.591280837883671 9.861745919984953
Mn 7.522073304420787 9.194957350819356 9.587429705570718
