14
Energy = -88.07248041 eV
Mn 8.67166341519564 8.690199487474516 8.668429569938679
Mn 9.878523790112432 9.210021276218956 15.575991778509357
Mn 6.626971472413627 7.547649609198347 9.384025470290837
Mn 8.590191047943247 13.775199085763504 9.473237117950372
Mn 8.698718989054074 11.279006615015014 8.762532733301537
Mn 10.493319297699149 12.276935117225754 10.275895115743285
Mn 10.802824411443561 12.37495962130902 12.824313445575196
Mn 9.739717858594659 11.721912455484498 15.002705981455177
Mn 7.729713007401329 10.546386582852996 15.974817057477306
Mn 4.517002352423746 8.818983130178736 12.831505984346549
Mn 6.538715885909071 12.675693179051736 8.781760463771484
Mn 7.575367698978433 13.105780723291033 15.351968031909006
Mn 3.4664101195540247 10.849313615838026 11.642168810110727
Mn 4.749611680824543 9.017780309179262 10.31457567573662
