14
Energy = -82.90616684 eV
Mn 10.949203258274883 14.436128490438 11.902657099327243
Mn 9.821583444614488 15.540071218584863 9.778321318885729
Mn 10.487844336676451 17.855574479364286 9.448338510399086
Mn 12.076838564019656 19.02370208559749 10.644699884404305
Mn 12.596419037043862 13.258431592036489 13.547907606345273
Mn 9.528090163628638 10.694038897171758 10.228481404334556
Mn 9.827508493974996 8.248338270759032 10.133530060161254
Mn 12.07740077079915 4.8852323605843795 11.327038684675589
Mn 13.480542147937472 5.9206883794335035 13.055280954877654
Mn 11.391060359027156 7.128343097990894 11.865711672839511
Mn 12.58795744229293 10.883351323083154 13.662168145505637
Mn 14.816578594283225 16.876551658423832 14.002141732876348
Mn 14.702574085965898 14.59715227241123 14.599540107210013
Mn 14.685167747603685 9.66853158264445 14.832775687978149
