10
Energy = -69.61235629 eV
Mn 6.409660188494285 8.466317096084426 7.536521073635505
Mn 8.928741900901702 8.226848763621993 8.048238400291819
Mn 7.3703159259401705 8.8555221811867 9.741706865589205
Mn 8.044334380148346 10.653382270666691 8.172594204419953
Mn 10.017944026835613 9.613900404570467 6.79157191932878
Mn 8.691223311204324 10.330938368356328 10.735527199601282
Mn 11.45101512460474 7.834388891675511 8.523301490590793
Mn 7.41887535026607 6.490482174531557 9.168899172127205
Mn 9.567355596805315 7.846065025428127 10.428674609475513
Mn 10.411828986309368 9.993449719633476 9.164260064940187
