12
Energy = -85.52751633 eV
Mn 9.248009083665716 7.723616436526514 10.794166689547799
Mn 9.15491321424 9.800329334456933 11.842715538975142
Mn 7.977403119945175 7.191094846507735 8.716784049347691
Mn 7.106844504661052 9.051674668891987 10.400411884013824
Mn 10.842960668648765 9.711667012745352 10.098291041563163
Mn 10.672656601696637 7.366449178713329 8.78175966774229
Mn 9.269160046338595 8.280750879844176 6.916490047451772
Mn 11.465226414395158 9.50850945487521 7.578394323714087
Mn 8.3779095015605 11.327053364566131 10.116666319503048
Mn 6.966449873508411 9.37885343088342 7.862553843359548
Mn 9.037997520494446 9.517039035896934 8.661282688850404
Mn 10.218557864972963 11.58369501569485 8.372625092499558
