11
Energy = -77.5659291 eV
Mn 10.450736014303128 10.370762948911391 7.269013733196601
Mn 9.006467768626548 8.48528411681823 7.449758273140359
Mn 8.360816898966043 10.816481667788315 8.806021957179105
Mn 6.876951378563813 8.558163106138053 8.79945764596825
Mn 10.234427662575694 9.259603601135337 9.391740225524988
Mn 10.893924719825106 11.792375481941487 9.154772933969697
Mn 9.00022275928035 7.156179273836491 9.690693899978887
Mn 8.057993419548092 9.191045421155165 10.788160856876646
Mn 12.085077448766793 10.02308445199467 10.656684756142953
Mn 10.277191032122643 8.383843063440821 11.748836909172777
Mn 9.701997288716784 10.908983258135525 11.190665200145087
