11
Energy = -76.6242131 eV
Mn 8.421807797167036 9.355161831386994 10.848322230531457
Mn 8.420014585051604 9.352747168357144 8.329369041367393
Mn 7.112928640807779 11.236939441538183 9.55103738792321
Mn 10.105382847073482 7.824878317655417 9.514396835468057
Mn 9.689018805663533 11.240321011480649 9.513578232003866
Mn 6.160466421729094 9.079810773222178 9.256184038127598
Mn 7.600594579406301 7.213099203218375 9.553944967426418
Mn 10.8568380101107 9.649623834177435 10.809467792379973
Mn 10.915168281115982 9.65682114669637 8.003482517798535
Mn 12.67396136834715 8.553886897878957 9.46686957306761
Mn 12.356323722590213 11.1492153743883 9.465852442969029
