14
Energy = -86.82587797 eV
Mn 11.370216985488778 11.386455169752832 11.379840789915871
Mn 9.57470432307366 12.17465574918464 13.115020864508596
Mn 9.3575217334719 12.96272569915149 10.803441123574755
Mn 9.121296234769494 13.41437005647713 8.42266713606997
Mn 10.302136641197762 12.403519002984314 6.727757828543997
Mn 12.689388258411418 10.218406572485499 9.46282823169735
Mn 11.361217532425483 10.348554361986457 13.586689236652447
Mn 11.381335183675167 9.251760841794123 15.77792556512333
Mn 9.107603047439435 8.222220134758166 19.22361734515126
Mn 10.300066813964182 6.278504671276797 19.47378054138237
Mn 10.976326953221637 7.8326253264321 17.765850183094383
Mn 12.70502427633431 7.022834093411334 16.056432863274274
Mn 14.118592783824619 7.1138487135970125 12.059040102435546
Mn 13.965152478830467 5.799679217673102 14.151987014037484
