13
Energy = -93.13677382 eV
Mn 5.912027162402801 11.572226474411114 8.00053745172655
Mn 8.753754144021055 11.725278296683468 8.18963527278347
Mn 7.258876776669993 10.54467163183084 9.391166221269234
Mn 9.17792611068239 10.518965778544846 10.847444214190128
Mn 9.517869371506812 9.422855397624662 8.828695301816998
Mn 7.4142537699136914 9.430890171468302 7.399536522457926
Mn 7.646391721719116 8.144834300757127 9.937340493771845
Mn 9.047800318418467 7.341202965815415 7.860117486561381
Mn 10.345793418412791 8.07157560050427 10.311700791233077
Mn 6.384487710440464 7.283742444451452 8.003233115433467
Mn 11.21733377086122 10.906950851609132 8.990246668452372
Mn 10.16424448538611 9.811728135935017 6.727692974091855
Mn 5.2447203747639195 9.256488833829117 9.126505213179788
