18
Energy = -120.18038081 eV
Mn 11.988669124090967 6.2670489502238595 11.749623434665027
Mn 12.909389706090126 8.312757739949426 12.505984169728807
Mn 11.269636410223796 4.462917431130111 10.262655341680208
Mn 10.482092049160407 8.327425483513403 12.101312375114263
Mn 11.942198958510286 10.466805660478041 12.333624036443505
Mn 8.149329975396126 8.466927914239994 10.976684189083338
Mn 7.422261732498436 6.618767874493535 9.457663728136863
Mn 11.153788300566593 12.59402795367876 11.383621851304637
Mn 7.40656537036736 11.12031336243346 10.594050101085452
Mn 10.301549043970235 9.570560066017403 7.610159687855592
Mn 9.360238617191486 11.481787272543668 9.120612953556417
Mn 6.412912582362008 8.640831722359703 8.609964187289114
Mn 8.254853118049283 7.785690192281047 7.057599774834903
Mn 9.887846670223254 9.1139557551806 5.3830616235290085
Mn 6.838774890344016 11.156600475068817 8.242418006823657
Mn 7.986429999026719 10.029293434456285 6.650627140842885
Mn 7.956049055115905 13.289737045349298 8.69528979182625
Mn 9.743135541321186 11.77061744331421 6.740039272180373
