12
Energy = -70.40378341 eV
Mn 10.918751066795526 10.928349679111832 10.91361812555594
Mn 8.967730932550964 9.700198888105845 11.688238917742863
Mn 4.755118937862045 8.677041702297585 12.335647721535011
Mn 2.4744827781672316 9.147950096820539 12.037726118055904
Mn 1.4774483351623806 10.889055425762933 10.93726274843269
Mn 2.5727428029959922 12.683066436344543 9.803048301152185
Mn 5.268048664366451 12.607371690888847 9.849978140186813
Mn 6.619969547917691 10.776454727629654 11.00877941846375
Mn 10.393324552587993 13.121540815530675 9.525444388232415
Mn 13.304084725041848 14.008482522908759 8.965284796739184
Mn 6.995965949328128 16.628512109476414 7.303855942163534
Mn 4.758172743591816 16.26796374474895 7.539430192710452
