12
Energy = -72.38210362 eV
Mn 9.342960778216845 9.35571346154582 9.33555651916412
Mn 10.08119430683406 8.394475679933072 11.45693278726759
Mn 5.161276143343401 10.415251637852943 7.41398524983386
Mn 5.309855102670858 6.286676994672925 14.935892293517707
Mn 3.003887235234788 10.480306383072763 8.643590160030156
Mn 3.157156237766077 6.616681374171626 13.872781659944291
Mn 1.986398380334658 7.5289461197259095 11.989264603618825
Mn 6.295253522354043 8.268343309748108 16.091709774536646
Mn 8.438096700348275 8.94941286174939 15.20335287779257
Mn 9.898232302305926 9.863659566124179 13.459357605990496
Mn 8.652912226192234 11.749834042665574 9.293242923151556
Mn 3.93863253083002 8.334829723545964 15.532683855692476
