10
Energy = -69.7141356 eV
Mn 11.76506555029995 8.908375326788052 9.627433892595453
Mn 10.45831650721492 10.67145051938148 10.829699108287901
Mn 10.140466430628285 7.079008536748331 9.63553676479632
Mn 9.803225615548447 13.021924810222995 10.25548096340057
Mn 10.011140490309804 9.24415203210228 7.966428495422999
Mn 9.098411139092033 9.03938166683664 10.002647028382192
Mn 8.547289359028612 11.140382927674146 8.948410985441031
Mn 8.098913083292802 10.63740706355727 11.564375524750087
Mn 11.132106225878358 11.424476410839707 8.665362925116453
Mn 10.371070788812927 8.259445705849082 11.930628931594562
