11
Energy = -64.51870818 eV
Mn 9.474666042905431 5.804714083630848 7.696898752226056
Mn 11.227746909167484 11.444364784182572 12.7156005551165
Mn 7.144898056695189 5.524937610779197 8.222741671708306
Mn 4.521703254738346 7.746540675192132 11.350371337962828
Mn 7.774454042834205 7.0051551817152315 6.317761681840632
Mn 10.064380306767418 7.79656661147855 6.280317635170603
Mn 11.784522137176289 9.243327757008876 7.126131702044786
Mn 12.311692989494198 11.029561152303595 8.71523799107946
Mn 11.551904708495396 12.493271075960957 10.454451944691336
Mn 9.707471116498766 13.239222779775206 11.866552239025541
Mn 4.179704586579276 8.408859639959118 9.0064129698194
