14
Energy = -100.86133803 eV
Mn 11.061529979999825 9.51871651422121 7.546894491402389
Mn 11.22463411984868 8.53398460146251 9.838205405321496
Mn 9.23123019504555 7.075955561492229 11.01275621051043
Mn 9.616734594670048 9.57302742172814 11.536648024826494
Mn 9.560816503056541 8.938605129562195 5.920261449438764
Mn 10.314495341614641 10.8773976527955 9.444507289471478
Mn 9.878706499896106 7.194214589205885 7.74291157399098
Mn 7.144640796487281 8.579207379692935 10.993140632596527
Mn 7.335028802126488 6.945171798775091 9.017338360922794
Mn 8.598034654741857 10.467566393271774 7.557826351746459
Mn 8.938479263924144 8.78876036817733 9.183857126877008
Mn 7.5958126969407775 8.15000649118601 6.832039440359124
Mn 7.830371942337085 11.074209547520832 9.976845711068432
Mn 6.610335740993984 9.342468757525362 8.656640831853798
