10
Energy = -61.23444322 eV
Mn 13.139282584405848 7.765158900913502 9.551241690130894
Mn 6.205244483630568 7.320493347455188 9.439299747037493
Mn 7.125400078272827 4.896831764438898 8.844552163608778
Mn 7.408099223513215 9.404682482329255 9.963971760465627
Mn 8.227951581939315 11.71069608052618 10.52228351043492
Mn 8.838003661386015 7.395532548203519 9.459458982538766
Mn 12.467890373673544 10.277035572611453 10.1688651640356
Mn 13.59615900783706 15.147187814536398 11.367697455596495
Mn 13.05660609067603 12.794966812202846 10.78837616139557
Mn 11.28305605158013 14.616642044646573 11.237803855134066
