17
Energy = -110.33025499 eV
Mn 9.828231574663134 4.900418052908411 13.460949385681548
Mn 10.853996122286246 6.898546717906995 12.575225764067252
Mn 12.094651143977618 4.851605857939104 12.991919635924527
Mn 11.940333694237374 8.816185151585831 11.54158449533692
Mn 11.944931644275945 12.661194350406417 9.831771119350147
Mn 9.403356294418348 12.848324662314834 10.269775637437295
Mn 10.795752758464204 10.953051374784149 11.126965655692125
Mn 9.407976691974392 9.020837456620026 11.96689292615692
Mn 8.357912855839322 6.737669807008712 13.030958836049784
Mn 6.941443673994837 8.597897253335004 12.446684478329635
Mn 6.962274444988277 13.49870682889644 10.268356830801121
Mn 8.344825272023789 15.168161142640278 9.295010612410616
Mn 10.858444808960556 14.712444724328652 9.103744852977444
Mn 12.094147118259233 16.392250010356776 7.87040139939762
Mn 13.35455865752866 14.472668103706296 8.571408384755134
Mn 14.535773616360265 12.40555786942196 9.17130520073398
Mn 15.554352104561497 10.332651033817578 9.771251549925802
