13
Energy = -92.95810207 eV
Mn 6.985027586411354 8.177387662461475 8.560415006895633
Mn 9.20518519892821 7.352586677492551 9.353147275063346
Mn 6.913144911804142 7.381055226737622 10.863063421606919
Mn 8.722417503369163 8.239463418740177 6.878049342373971
Mn 11.184685449918147 8.332212258268054 7.770361456316532
Mn 9.05443934066154 8.533279683307601 11.614384929818
Mn 7.480628391750116 10.464247507345398 7.5628038487987705
Mn 9.31906072162619 9.7683851214772 8.981074517715076
Mn 7.361477436501904 9.960716901435838 10.349911341638748
Mn 9.95147002288257 10.454186071710007 6.654449506913307
Mn 11.470953939860744 10.71587243083563 8.862157886373836
Mn 9.90858735135296 10.859444489142241 11.053025957566362
Mn 11.304320644933089 8.622561153090878 10.35855404293478
