17
Energy = -107.68223222 eV
Mn 7.71380722689072 11.781669399876488 14.260102657404087
Mn 10.276259737892556 12.412624345913134 13.821678748123526
Mn 17.444795914852946 13.950444622900436 12.386691077774907
Mn 20.00001082312534 14.577028627589538 11.950216790438235
Mn 19.901623108306204 16.616268353133794 10.190346976467437
Mn 19.1177548990277 12.432367264091386 13.668952507257234
Mn 17.79618603007986 15.936050971757192 10.745445857207553
Mn 9.944107875731659 10.4126222420985 15.47409607912708
Mn 8.592453191480104 13.929712920261071 12.539807354573455
Mn 10.907771231227233 14.302845027289875 12.19406915686446
Mn 12.171202184428017 11.028295473318034 14.926766073056513
Mn 14.48127016041268 11.49547837753982 14.51274999767287
Mn 13.191825213583185 14.850750801894172 11.70914546317776
Mn 21.9940159258742 15.935234408316036 10.816623449872491
Mn 7.798479509830492 9.750223086792278 16.01455703227046
Mn 5.733379480367958 10.416183679159307 15.399939114278537
Mn 6.349495867654345 13.588948295944554 12.81066147351004
