16
Energy = -99.56483055 eV
Mn 8.300726478072068 8.325466452589 11.506307527595222
Mn 7.619090101255048 12.950037010600576 11.831361179386354
Mn 7.392768519175222 15.184594987484852 11.987290808187305
Mn 10.245390088354092 18.907696433461435 12.253446204813052
Mn 12.459922238675544 18.791474542503718 12.241839689583488
Mn 12.425381849899898 14.50378835604536 11.940592238432336
Mn 15.153063102787826 14.820070925522868 11.961997823284479
Mn 13.967058247049815 12.570445809137404 11.805646203351365
Mn 9.854085504474229 14.36745240309341 11.930202022768542
Mn 11.407716890294314 12.270987942446386 11.782587632246392
Mn 9.997797905628738 6.679410471350514 11.391828920631154
Mn 11.974161783453928 5.460033352857744 11.303864147179157
Mn 14.158283699200181 6.159645258006223 11.354300800542898
Mn 12.379235463404397 7.878216127896639 11.475704748709653
Mn 14.893406275766692 8.397074807458756 11.511361125733186
Mn 15.729209784700974 10.689926684567137 11.675047698056838
