13
Energy = -93.29616967 eV
Mn 9.455056116216712 9.293180597983994 6.18760870149437
Mn 9.216679801676577 7.25674786657825 9.844930120047605
Mn 6.6808229785663835 7.86223763947361 9.466932579073545
Mn 7.439290507285358 10.61627517785533 7.075109303064582
Mn 8.725142491758321 8.841355888158716 8.380453420263267
Mn 7.619650551863573 10.320209096007815 9.77307035562601
Mn 7.165566984043897 7.900307996248042 6.889103485760723
Mn 11.109467467486887 8.542350536485207 8.546959931422002
Mn 7.531240899821413 5.831762106219912 8.435891061751331
Mn 9.680413933995151 11.004792711442496 8.371110539363793
Mn 10.020179827628285 9.673159741915773 10.56813202694263
Mn 8.064383519821904 8.560291533440688 11.494405356122067
Mn 9.669428366902126 6.707830807622231 7.343660552959088
