10
Energy = -69.18868553 eV
Mn 7.835033516045656 5.232156215011676 6.55945180557365
Mn 9.14528591661721 8.42445596843626 9.160121587360168
Mn 7.356625101517689 6.604025989062478 8.546545745640188
Mn 8.960218115219039 10.494700418261319 7.3544843149160375
Mn 7.002680258118939 8.347773974859358 10.520152131235488
Mn 6.809936091640627 9.076978473306525 8.120509691319985
Mn 9.825419223133277 6.291376227419191 7.581513147934111
Mn 6.649290000094456 7.360448439297964 6.083871183069438
Mn 7.890885387492909 10.615536467368564 9.906251630042675
Mn 8.697944837357177 8.143014678421032 6.815785461647223
