13
Energy = -93.09173684 eV
Mn 10.311137452774078 8.057234048274648 6.051367289957733
Mn 7.650204786976248 7.6324464265141865 6.3051441778874855
Mn 9.042591918887293 6.250190595693266 8.03806825490207
Mn 6.94444389140394 7.82163389646947 8.922531411280083
Mn 7.348207329238785 10.181894404148348 7.469736331935758
Mn 7.524794303467582 8.81595065020052 11.605319420458702
Mn 9.111622694766966 7.591726812832046 10.14787698565797
Mn 11.176178677968872 8.227689142668527 8.861050507879083
Mn 9.118459394989776 8.624746990138226 7.902691661461839
Mn 7.991507241991854 9.922369466721106 9.68012652599121
Mn 10.203013955189277 9.610725572642881 10.886372532655413
Mn 8.711499948433891 11.634050732971735 10.789048648132123
Mn 10.026007489985627 10.73576680897444 8.50737252647427
