16
Energy = -98.34157125 eV
Mn 6.922775878937683 6.039045247382455 10.777631595631046
Mn 14.161495561087722 11.597344197241824 9.131846557389457
Mn 10.542275237699883 7.497746397892344 5.436688894705906
Mn 10.535402935454295 10.172053241227424 14.449074579325842
Mn 7.350298580548722 5.722618936306557 8.428470186938966
Mn 11.791310286470136 13.359510117705932 12.026706027213509
Mn 11.761269216651234 11.507213627989758 5.715947153507505
Mn 6.59729375895679 9.431311702838023 13.223040581752466
Mn 5.654770449889848 8.099524329540033 11.419290549145163
Mn 10.105794204041652 9.87803400737617 4.916639640852834
Mn 5.658898183976699 7.399741816149736 9.103293658604029
Mn 13.704282062607536 11.93156156679059 11.479732820572277
Mn 12.707395382420897 12.809589541752626 7.49912339344519
Mn 8.240149616118247 8.465928666725132 5.338941901649702
Mn 8.237022218164057 11.036192575815845 14.00532220829022
Mn 12.362077268292216 11.365288178743148 13.376498963416873
