13
Energy = -92.71764976 eV
Mn 7.288680840243554 8.128369391463986 7.9437951490164584
Mn 9.332993728373015 7.016597119814494 9.05910820719899
Mn 7.581872679051864 8.436843529970233 10.550713894341767
Mn 9.611837100067405 8.75818204480297 7.057946537297724
Mn 10.10806561709578 8.746172920668883 10.388654278439414
Mn 9.497829718023917 8.32037190406717 12.551317435420106
Mn 7.720536749395388 10.452714558197872 6.846261638423298
Mn 8.90716415795365 9.840133649049003 8.94942163646032
Mn 8.817658163202207 10.62088323337305 11.507579049134923
Mn 10.089481623716086 11.293078027861977 7.363851697096676
Mn 10.45355882309815 11.388050300880579 9.81570386436211
Mn 11.48027098806616 10.053594419174608 11.700506772517238
Mn 11.6451507998746 9.480109876997403 8.800240863968904
