16
Energy = -97.84458014 eV
Mn 7.727826365239412 11.940986936248082 17.34560003758134
Mn 10.109318929807898 12.640091407830099 17.1613534892558
Mn 9.055103697674333 12.023960738461378 19.261014775743906
Mn 11.36864918258614 11.830623091092106 19.135055845803176
Mn 8.565274890946874 12.252154656431033 15.092969123048844
Mn 12.676935746178719 12.125152265189893 17.112769266209956
Mn 9.626683866946966 12.38611809485226 12.923099601595814
Mn 12.226378427958341 12.791293466440019 12.891137330738957
Mn 13.747389222490373 12.254648062990583 14.966641803511552
Mn 10.710991823493602 12.555190274287451 10.789335367033488
Mn 14.789189220806245 12.428464143207462 12.814587048382505
Mn 12.782681730230363 13.038518303391257 6.47241559592802
Mn 16.985796913292692 12.905543087701778 8.540769881768771
Mn 13.558380813882355 13.04778973849898 4.326973902679485
Mn 18.2280437226431 12.90564352455406 6.601210383600416
Mn 17.693121180283526 12.730799365124998 4.421308698700535
