10
Energy = -35.59010431 eV
Mn 10.236012071995397 8.850236579682493 8.981637511019306
Mn 10.116580620009243 14.87119989079997 12.251211010712618
Mn 6.31000235349959 8.600046157393919 9.290157207056666
Mn 13.937283415185302 7.509290868821826 8.790950688632252
Mn 5.689916788137023 10.573398189405232 10.24629896652876
Mn 6.705817623511339 12.5046201858967 11.12085261718486
Mn 7.168897640274433 6.542379693238538 8.364810844380518
Mn 15.207125947008427 9.20164300884504 9.619093389523009
Mn 9.843452740041092 6.613504769427992 8.141631431109317
Mn 12.373009122421777 12.319991232113777 10.773918432356155
