15
Energy = -109.10239932 eV
Mn 9.802115150992774 11.748327309365532 8.66648088343242
Mn 10.485483362110811 12.506155474859375 11.006814612796163
Mn 8.290699073893277 10.978350314238703 10.63581409851291
Mn 8.767228362888474 12.438954083399826 12.826110839812591
Mn 7.542649324630265 14.675283498044138 12.361007801933406
Mn 9.02751166238567 14.560842150981863 14.227032652039576
Mn 8.64521621717763 16.84285730042691 12.718030587081984
Mn 8.423150531569618 15.915016174143691 10.559948759590625
Mn 6.247700264329421 16.403077806378615 11.306955090110469
Mn 5.991992376000148 13.543764247809033 10.951737572109794
Mn 7.02669765974002 15.013330101167536 9.160613459964132
Mn 9.829540006798105 14.364852110466678 9.102968181349121
Mn 10.05628978794906 14.78151535186893 11.847896184667299
Mn 8.33725894302457 13.312615729023134 10.61534998315465
Mn 7.367923790885048 12.637584745658607 8.675620196550664
