18
Energy = -132.03856637 eV
Mn 9.06090178606718 9.922779448808512 7.472449859898334
Mn 8.609601554897088 7.950633545402966 6.388415181127947
Mn 7.605098830884567 4.07464299687166 4.854208443961163
Mn 9.132132087937986 3.539992005100638 6.766571397742966
Mn 7.049282012240012 6.55954666958294 5.0624813102326796
Mn 10.650572166669242 4.913680596482666 8.117893266358715
Mn 8.570011754498388 6.062348201614282 7.79215328474559
Mn 10.335004206449502 7.580945725033457 8.067674980213493
Mn 6.895453391371115 4.770385829860932 6.921791430139307
Mn 6.861399662079599 2.513018181241844 7.083460194657295
Mn 7.879849616090598 8.294433770629565 8.834610048477916
Mn 6.769985652923214 6.041547431505649 9.427601631314248
Mn 9.516162125594896 5.63897112255982 5.600903918978296
Mn 5.394377839567381 8.472204244141576 8.855556536867304
Mn 6.548651583936798 9.463475438571285 6.748665594326901
Mn 8.228462348541786 3.898909761655814 8.979365625171315
Mn 6.271434286382469 7.0161238021944525 7.358555716951824
Mn 4.8731965913927295 7.761780967784658 5.770686288273909
