17
Energy = -108.12927496 eV
Mn 13.247111189792337 9.769640411554022 14.02538196800596
Mn 13.777404356356035 10.160885715746899 11.654264926159428
Mn 11.633222720993276 8.369331232760565 14.874155127330054
Mn 12.126626305069824 8.297509489098802 12.484213534273847
Mn 13.944202497496361 10.338214822563067 9.263704549776504
Mn 12.558680835718008 8.490172466010454 10.037006557296316
Mn 14.01479064849019 10.938148090537547 6.904955522346824
Mn 10.660407218022154 7.059752841827925 10.82913725110882
Mn 14.0459072663995 11.117366756092514 4.515766276762616
Mn 10.344970495289308 11.694010972192263 8.176941208164868
Mn 8.66740086681754 10.032494944196381 9.230659420911941
Mn 7.225727144444213 8.169180534445161 10.291079220305853
Mn 8.263510271980707 12.584658028030061 8.913431850526342
Mn 6.345264660896811 10.896113033265177 10.188231699437711
Mn 5.176498739925205 8.675065721962646 11.12220394190075
Mn 6.3060559826300935 13.501101793712499 9.627104683179992
Mn 4.470048530588538 12.7141641737192 10.675064406259512
