16
Energy = -99.66734956 eV
Mn 9.805568970422655 9.76085968211998 9.79642229981059
Mn 10.703029482958929 10.966073613465623 5.82203923509598
Mn 10.802222535613817 9.167764067366262 7.686604475386382
Mn 10.684934543685454 7.628964616720366 9.729609347877336
Mn 11.39282358703968 10.214559900831386 3.5533305044913055
Mn 12.147724114730833 8.81159867377414 5.588782998261748
Mn 11.407566853426763 5.15535978051236 9.28560215920086
Mn 11.941251221264466 9.321330531909911 1.429559230004016
Mn 12.988865988326575 6.408871787710329 5.281646307958643
Mn 11.945300330752353 2.988165980157337 8.70129865615761
Mn 12.701880853767578 2.1401325364406047 6.622707552763666
Mn 12.701864612918785 7.135611986189799 0.8690880592030964
Mn 13.343102972174638 4.744434671225754 0.44083064877353956
Mn 13.335306669956674 3.2052597576762576 2.500404954419752
Mn 13.337138409562893 1.3811295012712992 4.324768882462081
Mn 13.595102341483404 2.388979602676219 0.22061071734964507
