19
Energy = -120.96518452 eV
Mn 11.790672604308742 9.509605452034391 6.020149365630505
Mn 8.85396916923652 10.967555324892285 10.094082544897429
Mn 8.450921081637116 11.346230231187151 12.645816078556976
Mn 8.65857079791939 6.878637888611607 10.973893755666708
Mn 9.422440860239439 13.158843012430468 11.229223354058686
Mn 7.970964822837114 9.108845881721711 11.695700930856814
Mn 11.388039650733218 7.258155490425226 6.811069634885819
Mn 12.580864688714207 13.867901023960897 8.32116741348912
Mn 12.273832180759866 16.3716004493122 11.813343476081384
Mn 8.392450055266904 11.616212271462393 15.12466257188073
Mn 9.47276034342613 5.180787985394206 12.55897848298293
Mn 16.77938074349537 13.45547344821304 7.399329462833468
Mn 13.509158057054131 15.832470438972713 9.923069570197343
Mn 9.136204182147612 13.477689167334532 13.864936924700917
Mn 15.119458968460178 14.768201905705832 8.368255254153395
Mn 8.095659479032502 9.418167680239023 14.328540596100325
Mn 8.571301701642538 7.134861323511909 13.513182925319901
Mn 11.352927418892257 5.192426153286163 8.184074483381826
Mn 9.556703832108996 6.847100705448923 8.50726580809136
