11
Energy = -77.44911799 eV
Mn 11.143249335298334 10.452204673430321 7.365240495091904
Mn 9.516737739721309 8.786834382990518 7.88765025955341
Mn 7.235648545961911 9.821783670089985 8.377628659965891
Mn 9.388551683240077 11.11550583655817 8.775018811503772
Mn 7.854345686034515 7.354034664663059 9.127639663536307
Mn 11.432316319422092 9.558456364747132 9.588707522518702
Mn 10.477161953414784 7.182710834072355 9.607915460432492
Mn 7.6771576389914475 11.20647377392208 10.593696281761797
Mn 8.91820653012979 9.169977328655367 10.293046200576935
Mn 10.290127345708122 11.24764226826079 11.134363664869017
Mn 10.641192287316475 8.679071267849316 11.8237880454292
