19
Energy = -122.02921937 eV
Mn 9.570814795795005 10.484902079468643 8.590465488968357
Mn 8.75710120633596 11.90844017568099 6.433212896210328
Mn 6.721335172980542 11.01862475673835 5.45498493830081
Mn 5.427091335129673 9.277309290513696 6.244085203028928
Mn 5.887776933929216 7.948875087612247 8.246353404256135
Mn 8.132918328396402 8.557419692730047 9.401840222876162
Mn 12.506083195257595 13.533266796718953 9.087045581069942
Mn 13.074374969058027 12.420178429750047 11.319026475984476
Mn 14.341462924026578 14.668907588308349 10.272316484377745
Mn 16.110045381399868 15.432790331945494 11.678012664519049
Mn 16.754100730916402 14.40621132820403 13.68931671948854
Mn 15.721256025083337 12.506263143181071 14.603586081566085
Mn 14.982077584832629 13.400384627209688 12.458230979081618
Mn 13.918137752330278 11.388600562504138 13.53858975458633
Mn 10.384489703646583 8.482454738979012 13.239182539254584
Mn 8.775529542006296 6.837194705794273 13.918431562655506
Mn 6.965910224337538 6.113064110881582 12.666054440594007
Mn 6.386301142430298 6.883597789502004 10.410654784844585
Mn 8.51511103922007 7.6608255330322725 11.679160684148137
