10
Energy = -59.54167131 eV
Mn 5.417223217920031 13.762335714418048 13.776261311629382
Mn 15.537651798544161 13.398503981587691 13.270510590063298
Mn 18.199384544012474 13.24772771359677 13.192621489125436
Mn 16.43061507758029 11.780653678402665 11.43985089016888
Mn 16.724477128070312 14.92552537465359 15.024676852463832
Mn 9.545878233244398 15.055513104299623 15.286144821504653
Mn 11.938159076253507 15.011894232838108 15.201981896794148
Mn 20.6869781471075 13.889060743834504 13.918264240813057
Mn 20.550714705526065 12.417333364047101 12.243126955664364
Mn 3.0804604915242706 14.607961547903603 14.742720828878403
