11
Energy = -77.43962831 eV
Mn 11.46972667256991 10.858853636181832 12.634694004170257
Mn 11.935728422520604 8.423170166152707 9.728511856037937
Mn 8.478929399491006 11.981507427856386 9.122032559403486
Mn 7.983191961199347 9.551898468971117 8.20520043460794
Mn 10.505301087489267 8.909250603903054 7.484990638101442
Mn 10.102060425327721 10.331816610195967 9.329132661599745
Mn 9.397480264638158 7.788233284572922 9.538428088050003
Mn 8.048835805557742 9.796675156224232 10.744113654519312
Mn 12.059521109881418 11.086887049176799 10.228880922238657
Mn 10.327866562140374 9.299901054616768 11.408163701746275
Mn 9.526508765476365 11.806957018440254 11.41100195581664
