13
Energy = -93.17559242 eV
Mn 9.616104132149857 9.487904967476812 7.836196412645857
Mn 8.058717344132766 4.896220008786538 9.243261673597482
Mn 7.473323751067687 7.755975079167788 9.099497936755803
Mn 7.625471077332528 6.513262061022813 5.2992134006259874
Mn 6.950512234793517 5.938204426887562 7.6040743819342245
Mn 9.363782108918127 6.36592601480799 7.3325291740092595
Mn 8.037126827237554 8.329084711671578 6.807941059774425
Mn 7.172316122699423 9.1172101087533 4.880830965196486
Mn 5.439568862114119 6.03652093037214 9.182850207167926
Mn 5.548399680961875 5.046342266672246 6.183499955678016
Mn 6.869487485929792 10.159722768102927 7.440404213776187
Mn 5.649966200140235 7.786614095262525 6.866848695737246
Mn 9.723399859434425 8.267837995688229 5.315203611381035
