16
Energy = -99.31605916 eV
Mn 11.610759512435575 5.888850193101579 7.266201621778744
Mn 11.836342079356152 6.081574132946538 9.685580176580459
Mn 10.859739698329737 18.916126772976646 9.591268047741968
Mn 9.849173034475617 14.456817825481712 8.149633311681978
Mn 12.535945550067915 16.01276821165776 15.151404851575428
Mn 10.484360677539934 10.60048478423611 11.674269338285354
Mn 10.483773168004644 13.030409298292701 12.47841364427712
Mn 10.212582720818766 9.826959988981844 6.415920272066491
Mn 10.210677604909579 16.785841034703044 8.72948731685928
Mn 11.97477260775588 8.95044898953628 12.93791815486826
Mn 11.976660885246948 13.598722380960016 14.480994042794412
Mn 13.395804174776549 7.331315878245983 14.111404158539822
Mn 13.388986101950044 14.188102438118054 16.379968532761175
Mn 10.708558275481131 7.9263653291548435 8.256258270737455
Mn 13.170091821931601 9.484538492369797 15.088736382477421
Mn 11.607562159489623 11.211031187344794 13.89004388586584
