11
Energy = -77.97040247 eV
Mn 8.944312431958823 9.511228485846042 8.599719389822683
Mn 11.702555575154305 12.980163687690412 8.780143868727814
Mn 9.775491476131839 13.221560415313947 6.973067408114667
Mn 9.15934848898614 12.2187677970802 9.426370581351312
Mn 10.971192145867226 10.312726361960136 10.065495490450708
Mn 12.440092305941596 9.64082686261866 6.010004013858051
Mn 12.09928383533334 12.076702193421179 6.292343589591622
Mn 9.909443950207631 9.927589143529747 5.970807428218336
Mn 12.953274904385253 10.664105975688118 8.323770246540958
Mn 10.563392450508445 11.163210031852797 7.779811428824553
Mn 11.302759426982094 8.893547133003155 7.9534750981169395
