12
Energy = -84.72936459 eV
Mn 11.92782395085511 14.027838439340952 8.704266566910553
Mn 11.744033630583234 11.523148266393418 8.388007760527104
Mn 9.47012741540278 12.688368343416615 8.585517589590054
Mn 9.67576303469966 10.015737711889805 7.821101519560782
Mn 11.551159578546134 9.511902124338269 9.61822010641805
Mn 13.24435073875729 11.082997257310884 10.549348882196307
Mn 11.088826328804176 12.633936275318682 10.729725798059189
Mn 8.769164946299126 12.097314680978391 11.587670099229246
Mn 9.490011744662604 10.80721451676903 10.042170073636107
Mn 9.23986952469338 8.56438970093105 10.310261277272222
Mn 11.033452864620958 10.211331855910446 11.900630963988544
Mn 7.3705536578761865 10.639702550993869 9.222676180238762
