18
Energy = -116.10710014 eV
Mn 10.889077607339601 10.878925098259865 10.874012685145834
Mn 8.948827772621149 9.158416580367437 11.274175101744069
Mn 8.746375297906047 11.365521347613592 12.374360697501261
Mn 8.582201043036248 13.666549252692482 13.118076677780575
Mn 9.940341868183088 15.418307904929307 12.458357057769456
Mn 11.79650908483475 15.340131355725774 10.884279425903618
Mn 12.392708926345806 12.871595005947201 10.120630911528083
Mn 12.58780863870088 10.67742127953926 8.925803388770792
Mn 10.870560864163766 8.849322422150939 9.56129965068374
Mn 8.948452472781899 7.140208623821143 9.928834650318107
Mn 8.754614392412234 5.276439093028834 8.313558270695102
Mn 8.567856800123588 3.687705112713813 6.489046835883851
Mn 9.943303142107318 3.6445704730471333 4.610156875841339
Mn 11.813748209009583 5.146894454957015 4.084796795480451
Mn 10.538333926938753 5.092396196578389 6.4584183382089035
Mn 12.398133343986677 6.7720148950698995 6.046331907419357
Mn 13.976685390330402 10.658009451059982 6.834497341956387
Mn 13.832827569464184 8.774605138860686 5.228444666462327
