12
Energy = -72.36566071 eV
Mn 11.31072333837577 5.113955869739843 7.934820247014511
Mn 11.107992673743102 6.6618524092069284 10.294434924324346
Mn 10.202938764224502 9.027350555901092 10.18695073697162
Mn 9.991882630868991 7.414607692953728 8.148862846134465
Mn 10.08955777498255 5.941215838797019 6.110514923897145
Mn 6.473665687169048 11.996709723951533 5.515288780939099
Mn 5.9492402541498794 13.475170043853709 7.218036758845624
Mn 6.763677455191373 13.59885328879265 9.431551634375937
Mn 8.721003796630882 11.232825753954751 10.111551105473092
Mn 9.527411213761527 12.202557868759223 12.512427630181799
Mn 12.344922437739136 9.09187402042457 14.566832527060365
Mn 11.716101838883377 8.434632993772672 12.161069428242671
