10
Energy = -70.73674088 eV
Mn 9.044009550132538 5.48001219354561 8.14036231777994
Mn 7.70219505482998 5.7378951979083395 5.72618059971732
Mn 9.424849479953611 7.402601616977519 6.592398316095766
Mn 6.4595604362058445 4.972790968190794 7.885873414864051
Mn 5.231942390484622 6.801274453553466 6.412449089445704
Mn 7.092698377502872 8.204569494805742 5.546682315686502
Mn 7.325637993897592 7.157066337787554 7.66470050519143
Mn 8.871965641372336 7.821789072653177 9.214328677636857
Mn 8.312349015367106 9.551575824854497 7.286131263350749
Mn 5.813880014274871 8.86547946346508 7.864680498638301
