16
Energy = -103.00474919 eV
Mn 9.562324562384463 9.573194134395198 9.570063624037225
Mn 10.612102581740551 8.177336786176182 7.747633303484266
Mn 11.602984816854661 6.483832769174018 6.071700419037193
Mn 10.582460406926389 5.6286201482148925 8.096505277104034
Mn 9.394217565440872 4.86659576131065 10.430077188712826
Mn 9.3290219056642 2.5228416866147456 10.826023737499554
Mn 10.16416949903056 0.8669550854821206 9.434327718314858
Mn 11.249585458995128 1.261221519022286 7.340865212921913
Mn 12.332600504100395 1.7310119928242718 5.240934310868069
Mn 12.928229007498423 3.8461121633831374 3.8718560840040177
Mn 13.455886799781979 1.5331746951096616 3.1429414687110313
Mn 14.111718697905378 3.1779835724580314 1.7108999175866912
Mn 12.618512601188085 9.059329630515593 3.855604470079158
Mn 12.73251236910503 6.4678940700557925 3.9380715669646293
Mn 10.3927729943167 3.204040604250242 8.737358643696243
Mn 9.47887508254781 7.240803253453339 9.996694400548588
