19
Energy = -141.27149369 eV
Mn 7.5444159957017565 9.03800028797568 8.18034376487385
Mn 9.048561754036491 5.746775940994667 6.920021090340582
Mn 7.473681690935284 7.493227395792385 6.2056829741606645
Mn 9.072746563937674 3.4217088473549704 7.782303095204387
Mn 4.594800218498518 3.9045280157953104 7.145683816265167
Mn 6.56752860305649 2.298340262174321 7.515933464983743
Mn 5.071339488887701 3.20504530549703 9.748658947265042
Mn 6.5630638599617575 5.04498573281503 10.77538926697092
Mn 6.922181541136049 4.830216477164044 6.2342626401248245
Mn 6.925724448085064 6.720561425880828 8.194967060167162
Mn 9.399068169355717 7.474632838979272 8.621949780924748
Mn 4.975989813704992 6.531533960863551 6.7411579511632205
Mn 6.8131945881003935 4.334450211268438 8.471302511024483
Mn 7.73902964212772 2.8035175491563877 9.884523721774153
Mn 4.766701344932491 5.534128020740703 8.956322663334252
Mn 5.2803167125068695 8.053550922637891 8.863340229695082
Mn 5.019908240287059 6.9210981760358505 11.002874287829506
Mn 8.770594261009348 5.3010236183277915 9.500962358013851
Mn 7.492071201427565 7.505420007590653 10.388843986992198
