17
Energy = -109.20466196 eV
Mn 11.980681353913972 17.82561774720719 9.950999326501886
Mn 11.957578369540105 13.981904218625099 8.16679424819073
Mn 11.431768298437238 11.69866916600604 7.281521444882786
Mn 11.262660945951371 9.345742716613167 8.941277579893601
Mn 10.859127010851102 9.242524415723626 15.601179922029054
Mn 11.521512761080496 11.479161638773006 15.347143822285062
Mn 12.175185933342606 12.249358109691824 12.932331377637418
Mn 12.560062891727776 14.658533368249842 12.617388726429827
Mn 11.90363844031469 13.926367548235485 14.961757465553191
Mn 11.978528243389805 16.23766997574917 14.410165355740013
Mn 12.45653830028617 15.424461905187606 10.185451223359559
Mn 12.593521682727362 13.039237317279259 10.61838481404227
Mn 12.147235053090084 10.660091432031699 10.972938567552868
Mn 11.65593714926535 9.90151581982876 13.35694644914991
Mn 10.593740489341917 6.834080577141667 9.615954783658776
Mn 9.730301830290477 4.637440914866545 10.160163577695855
Mn 10.316328155485813 5.996054606572124 12.011084944627422
