19
Energy = -124.61920974 eV
Mn 14.527448474016953 13.947032437748096 8.512756902431327
Mn 12.471558631919766 13.987013803807443 9.659678089957804
Mn 10.140199041830579 13.812328075798261 10.580402056739183
Mn 9.125278887707115 11.619103260808322 10.869627531695283
Mn 8.34294564764837 9.365555777962669 11.633880125097606
Mn 6.385243161263771 9.26383573865596 13.435190611815097
Mn 7.907800596087649 7.439949055989395 13.096671703708138
Mn 9.828584334718178 7.362691346110069 11.879772334455579
Mn 13.209524209745549 9.757584124478418 10.679754095970173
Mn 14.08263401683849 7.565161670168855 9.472981490415483
Mn 15.165834045442246 9.95699651810518 9.155416430470952
Mn 16.057896882631876 7.993788390378823 8.047005397703336
Mn 16.917398729451815 10.029837296355815 7.490496374632084
Mn 13.958930048958196 11.996474875162761 9.988607294592997
Mn 11.546631731847432 11.671840187090814 10.582472241286478
Mn 7.999940882599713 13.82335754888667 11.700322541852238
Mn 7.03048578532662 11.468748474932163 12.235314293567756
Mn 5.990394293091262 13.46404963592831 13.064258329513388
Mn 5.255703466822429 11.428403262208016 13.850253673071542
