15
Energy = -108.66263244 eV
Mn 9.300078562899355 12.070306196394093 13.1117230290128
Mn 10.681957697706332 10.274802284052587 13.250731873522858
Mn 11.778099619493517 12.616316747479345 13.490371494335527
Mn 8.758806580486295 11.856604693136743 10.756150888190911
Mn 13.175365384426415 10.58257830606124 12.99848517013314
Mn 10.384689758731223 13.739360652757407 11.710013934979678
Mn 9.365292899223777 9.32606547006783 11.242515009175632
Mn 11.880385918116472 8.633914955888255 11.822441735851374
Mn 10.618329028687226 13.004906375549028 9.323260730776367
Mn 13.494405528403254 10.099148573957049 10.416486355997478
Mn 10.00395193258784 10.643389755040344 9.097535654577074
Mn 11.35134069029332 9.240889000901024 9.529778342053921
Mn 12.76018096907098 12.80827083862855 11.032731106732465
Mn 11.279830427051362 11.109721002059628 11.078548331948571
Mn 12.381934627279557 11.337914084640548 8.478078992975542
