12
Energy = -73.94388026 eV
Mn 6.986745291948185 9.259270754575695 12.90135052804687
Mn 6.712303707396976 10.464115008774236 10.797469924202701
Mn 10.36597180261076 12.28551291444039 7.618558591912303
Mn 7.754952990262263 12.565701407366893 7.129866487222484
Mn 9.395364077466816 13.410281019628462 5.656631240068834
Mn 11.686523266643764 13.330566065959061 5.79608987469753
Mn 11.531305913668362 11.201147994865263 9.510797320851207
Mn 13.06608416631023 10.212389677296523 11.237416425397953
Mn 12.017288083547598 9.082012686124694 13.209776882098717
Mn 10.457249544439684 10.065515731645453 11.49348048494841
Mn 13.124260595671789 7.014921468147373 16.82080049181284
Mn 13.931013708483842 8.138475437038567 14.859205881325002
