12
Energy = -72.49312513 eV
Mn 11.466223528521084 18.867152991543268 10.402326018091344
Mn 12.28851048455817 16.442021022905273 10.912660930081787
Mn 12.551328106671802 13.943131544539225 11.138180604773087
Mn 11.580978222932131 12.805209839327409 13.269110830156176
Mn 10.322828264812935 11.660039447855105 15.196005676337673
Mn 11.60751882060969 10.38530781337841 13.305754514008429
Mn 9.594290865331384 6.878227017883351 14.633131114733267
Mn 10.247417701850223 5.7066635865652495 12.689732234883387
Mn 11.469095721997169 6.625249735927982 10.757074576414194
Mn 12.419037807483633 17.471808077967513 8.718189893316591
Mn 12.915028503816306 10.205327847421902 8.881269072139915
Mn 12.422934033799285 7.917896032796876 8.987826043628996
