19
Energy = -124.69447562 eV
Mn 10.46935295754986 5.453795328216884 9.191824935769812
Mn 12.646433699612764 5.094296365931841 10.49535313003858
Mn 11.358642051365454 7.367103538968962 10.392958352773077
Mn 13.678659178770797 7.01233651576633 11.684751369687305
Mn 11.348002353344283 11.453576255183176 11.519284410253935
Mn 9.215870378236081 11.817924519664752 10.091822911256303
Mn 10.191983434829224 9.548082461692783 10.506549579216362
Mn 7.664100838395537 10.16747163451422 8.281205371559116
Mn 9.218530158702363 7.783755422739617 8.980533156667827
Mn 8.452453883538848 5.554300473290932 7.635061883402807
Mn 5.86069226825196 11.578729942175512 7.343217382227117
Mn 7.298942104160695 12.782678799640683 8.757287739043868
Mn 8.448565277874438 14.424268628601748 10.081512090129664
Mn 9.755751502613474 16.008530768881368 11.354614911677984
Mn 10.472925819353577 13.715690714444895 11.47338864426878
Mn 11.658114001655854 15.523073474852291 12.550892060675064
Mn 12.644427650164518 13.359978348751593 12.774893900015046
Mn 13.69626320995612 11.105726699800513 12.823304638832289
Mn 14.607473531664823 8.923005452000288 12.744428841435173
