15
Energy = -108.54362453 eV
Mn 14.212905788233288 9.804046324867917 10.334019353604731
Mn 12.869961192891038 10.368337736760148 12.613143564413887
Mn 13.265921267000618 12.18313870534483 10.568098221047917
Mn 12.908959674046208 10.971529816441722 8.306419241346259
Mn 11.803361787142602 10.141072537022854 10.376009678924097
Mn 10.937716677977006 11.612542908259927 14.16423508230439
Mn 11.177852948553971 12.03072674678175 11.793168260539474
Mn 10.958644068632143 12.443115740719238 9.255561665575785
Mn 10.252103577090935 9.74979605986978 12.524164067449792
Mn 10.34989534276162 10.052696348676564 8.372999501244573
Mn 9.505887489131155 10.87695416689178 10.491825879806143
Mn 8.803538581982387 12.02532431274358 12.51324314473969
Mn 8.075494470800326 11.771491592987479 9.090842275016552
Mn 7.621641366131005 9.827093979426515 11.254113229849109
Mn 9.689044204206184 8.51781981372659 10.482465884715175
