19
Energy = -125.86110217 eV
Mn 10.681607645536266 15.605374623382643 12.332389665526444
Mn 10.804821729349488 14.335551221961422 14.27131090878999
Mn 10.590052302271435 12.028163665200129 14.796134336133663
Mn 10.301801836656983 13.032728741390654 12.18642608441316
Mn 10.561231132250432 11.459485175038614 10.195407447610831
Mn 10.382631066993214 10.519720808063365 12.626454326457823
Mn 10.513937611875862 9.70738670997528 14.976254789393517
Mn 10.533544846550726 8.041267706980163 13.383177994122276
Mn 10.630500584948756 9.034776123071014 10.64170025650919
Mn 10.5370397573725 6.4402425324559545 11.571294470682568
Mn 10.185800967766589 7.181290196972758 9.092073925211421
Mn 10.213853255082006 4.832622933909469 9.863609741961692
Mn 9.83987590163225 5.204883041799616 7.648191381179228
Mn 9.842442046577524 7.187339836348452 6.404274100043483
Mn 10.27226688336683 9.72362076385651 8.233898640988864
Mn 10.563813028613556 11.505776060899318 6.205574553298488
Mn 10.962927102081547 13.701092219283245 7.084192837145251
Mn 10.951349479652274 15.795839122755487 8.015925051001881
Mn 10.93419873123407 13.981726030709291 9.779751181208647
