11
Energy = -61.29742586 eV
Mn 10.461831191461027 13.481179808005162 6.441167754594157
Mn 11.785220134380545 15.107600389262828 5.1838685884180835
Mn 12.872856114377791 9.975957162440602 8.95523043179598
Mn 8.967686610803673 11.870957923806113 7.946687121581783
Mn 6.533261791634114 12.580846098023478 7.8688956454551215
Mn 4.748870559147236 9.816413985230962 10.497333271485227
Mn 6.516635701755451 8.526002502222335 11.346558365458286
Mn 9.493216336629843 5.5089289549951905 13.6330096207887
Mn 10.45615063884147 6.970820485304853 12.022111478170197
Mn 11.76880840667477 5.483892133931068 13.431266529847772
Mn 14.24238007251733 8.522858875326015 10.501245715511862
