28
Energy = -211.44740313 eV
Mn 5.740222460856049 10.363356806568186 9.933805149871155
Mn 6.572359595040051 11.54598051295479 12.23633370787806
Mn 9.397580608456863 12.65383765466103 9.236881311078278
Mn 10.736791912595146 11.678887746001806 11.324363002245734
Mn 9.175050713961152 10.153895126378428 8.449645306079853
Mn 13.634609420901176 7.042490255002005 11.467541218713228
Mn 8.61505319314223 6.988065696559178 10.756967503248013
Mn 10.389195226895962 5.960421948827243 8.621764508083414
Mn 8.891381471960361 10.742307728993813 13.05387590607131
Mn 11.327383029964825 10.502018494727036 9.27319096942122
Mn 9.699854946147111 8.030482288596867 12.920662525187836
Mn 7.2520334781544955 11.458925642637386 7.927270210722485
Mn 8.448540587299972 7.444588468420693 7.883741391662814
Mn 8.675748485893886 13.101666935021166 11.827598783148384
Mn 11.081638163972478 6.627995127170115 11.064124990137204
Mn 9.647955820459638 9.453023542587424 11.09655379431333
Mn 6.069146796041709 7.393757868428452 9.6521109189182
Mn 6.77326500981833 12.947977562995268 9.990085861034059
Mn 12.571114087538433 7.743194199724747 9.139945335227518
Mn 7.678387126619809 8.934648333586688 9.571024245884916
Mn 10.322220168185453 11.393969225862765 6.897077894859109
Mn 11.965435241075783 9.094855863061749 11.378453577202292
Mn 10.332546867760922 8.182430255527011 9.325784920848728
Mn 8.430834949032496 9.581647120608013 6.283694370256597
Mn 6.345010727719583 9.142278488809577 7.535131121054715
Mn 10.79154838149927 8.652079690826335 7.0887776889240355
Mn 7.236228305767979 8.962432193185654 11.950580552226938
Mn 8.107413211107115 11.06245308505572 10.503964336615997
