20
Energy = -143.43704466 eV
Mn 11.438366227821817 6.663622100858823 12.30214349239393
Mn 11.53677326639335 6.294239350756188 9.43561791069192
Mn 9.12970475927876 5.858900576895445 10.416794904632475
Mn 10.393044882013015 7.929696017787021 10.712847922303915
Mn 11.519887162463236 9.56023201030692 11.654655607936562
Mn 8.935818649601977 7.947960223891987 12.376307957549459
Mn 11.287122728738582 9.210584398614024 8.83277120807792
Mn 8.988750865130822 7.701347569000296 8.955424926522975
Mn 9.223593389554214 10.106188870245644 10.293273292497592
Mn 7.3302642110486795 8.554675306593095 10.671988588724785
Mn 6.915381919212337 6.68591628289213 9.158066301826821
Mn 7.962029070349228 7.937420327191298 6.71463145036572
Mn 9.134423707922206 9.824780388288543 7.941205536690928
Mn 6.920624427941454 9.396853351673212 8.52036101535269
Mn 10.12604121204275 11.766551624668155 8.003304275860716
Mn 5.343242838691753 7.948458815892785 7.16490017625791
Mn 8.734725048771777 10.563391546975812 5.948884233620291
Mn 6.5563742048101865 9.584337752293758 5.620917010089938
Mn 9.071411130778555 12.829048974447257 5.651908753958162
Mn 6.901212046551931 11.783292421748635 6.949125650215999
