29
Energy = -217.89667781 eV
Mn 10.646040623597678 9.782352238823444 9.360803748592787
Mn 12.348420740363844 10.631860482960006 11.04817853075088
Mn 11.88427749923203 7.984664948399349 10.81086210414552
Mn 14.102133334634331 8.807490168007012 11.535111094942897
Mn 12.778370484352793 9.516052016499707 8.714962360522101
Mn 16.299847414188324 7.6657263058015275 12.28529698684978
Mn 15.815775503643007 7.909579490381459 9.988064710383483
Mn 12.37640050044972 11.98335010545523 8.541304077110087
Mn 15.239279402430284 11.480552830024106 7.8124929154242935
Mn 16.669706854315564 10.043275198926699 10.615064485549295
Mn 14.526907919213102 10.204313189060487 9.661640097002127
Mn 15.302513621194835 5.99072710511974 8.550829567915182
Mn 14.198207320714596 6.324760815293291 11.152149301952532
Mn 12.600874818215217 5.483583913152636 9.330253527382341
Mn 13.594384335192194 7.512141533649005 9.061622758084736
Mn 11.153768202258803 7.433571987087433 8.264636292959223
Mn 8.90378117662744 8.979380430279436 7.815449877891017
Mn 11.101225674406935 9.394569531528314 6.847620999614634
Mn 15.125907341119342 9.871733325623994 5.4708102785442305
Mn 13.321203616229484 7.9511541503095104 6.627522343574325
Mn 15.467852208112093 8.891719485547595 7.8661631280176385
Mn 18.087388546381913 7.505679327380547 10.13677731255874
Mn 12.16745692385149 10.033370511166536 4.683194894236238
Mn 16.596386811414973 5.504501399995167 10.892041141451475
Mn 9.437934117728027 10.36902709345889 5.515906974923773
Mn 13.35069373920528 10.476873082628625 6.709396645740995
Mn 9.65173308174093 11.515435148606588 7.986664161994802
Mn 13.554777920712722 12.625174041325044 5.863162774884609
Mn 11.289658706682232 11.799127618099494 6.243931718807373
