25
Energy = -184.05058508 eV
Mn 12.259183868225406 6.283857916473309 9.097909575022234
Mn 11.659149022544586 7.060024299312241 11.586363120077806
Mn 12.392291447887159 8.4408902382608 7.520482941274507
Mn 12.003955114999364 10.369917599038116 9.228331037572165
Mn 9.616387626413506 10.892797049499219 10.286941833021984
Mn 13.200307718769693 8.469003978693744 9.982140845158545
Mn 13.024013689566436 10.66921915009506 11.489673844823432
Mn 10.586440880275306 11.075486113057735 13.025962687314328
Mn 11.909026608517513 11.70210338891989 15.3166935631123
Mn 10.283364943987667 9.725089865128648 15.229864997397836
Mn 12.180859538091855 9.447004130365722 13.73312240289252
Mn 9.649881700135248 8.557108595076834 12.993900573376038
Mn 11.160505048460713 9.393053317737522 11.352331059844621
Mn 12.464641236708077 12.304348361431646 13.013626593531093
Mn 10.934368850347548 13.75322212884228 14.145153019296032
Mn 11.523893201329907 14.51053373142256 11.975581585975828
Mn 9.388766149976698 13.06865394500833 12.108404057296331
Mn 11.345997393286769 12.36524505776331 10.814653784677335
Mn 10.580976734338506 14.337360235297394 9.674420081532658
Mn 13.135984757510219 12.65331525924768 9.353785684362434
Mn 10.718787705265695 12.349367746417604 8.276066116814667
Mn 9.326890596862915 11.989881411362655 14.928407675201614
Mn 12.615750208165922 11.137158311553243 7.105851418392866
Mn 10.490355909671957 8.198786431454392 9.476293617102694
Mn 10.257241064782233 10.04695666729575 7.620749581698131
