26
Energy = -186.49989602 eV
Mn 10.65837068889318 9.845659491364593 9.584457224806366
Mn 12.338042986318772 8.515377268535795 8.28888865053762
Mn 14.140157647151714 7.1114777529565805 9.559772416607682
Mn 15.610916514174313 6.260450923367059 11.88436997475656
Mn 15.032114046141915 4.730311959780362 9.60591414010705
Mn 14.964819363161714 3.9218467123588376 11.799830669985118
Mn 16.35301566799188 2.587310223953095 10.291879897068302
Mn 15.817916879438044 4.161265968384294 13.96534433489293
Mn 14.08377507251208 5.482100151611675 17.248742249902538
Mn 14.725177289598456 8.04095224413005 16.674947212434752
Mn 14.539150017913416 8.142860915815177 14.005195162537044
Mn 12.218888457018524 7.890364281251572 13.236383110197226
Mn 12.708661652027184 7.0511664346551575 15.408152616075276
Mn 11.46577958315799 9.365347008762155 14.771508766915645
Mn 10.651521682153756 9.339007489368466 12.088536146701491
Mn 12.826617025161074 9.225833395155462 10.651072701659068
Mn 13.667919234618381 7.51292600474311 11.72861154600337
Mn 13.75907270026827 5.63045353871952 13.542059614242854
Mn 15.195997721304755 6.054999352930317 15.350727256229288
Mn 16.23581136671434 4.1864168248351925 16.447707835815102
Mn 16.931787937544268 2.272015089565935 12.581101184930368
Mn 17.654852303719938 0.4689336936365961 10.841890082695585
Mn 18.136802731099223 0.3476464308187573 13.331662581873069
Mn 17.769030833436098 2.693107796028716 14.770724981652164
Mn 11.386807132616001 7.473682754419878 10.45680774923351
Mn 13.033773889324209 5.3399132750312885 11.225971760759192
