28
Energy = -207.32856436 eV
Mn 8.452863165941897 7.35706571994884 5.347571742605285
Mn 10.588166608517025 11.541724700501 12.507580898314526
Mn 9.35869559661088 9.817003665072937 8.150382051522483
Mn 6.644551813584837 10.28656080427681 12.664093293186216
Mn 11.836013487366596 12.670415472201006 9.82919030649057
Mn 13.05043833627708 7.319112840753452 8.954580728031393
Mn 10.947551469444681 10.676448558200114 10.416457570348818
Mn 7.528486551350441 9.084364134641673 6.980612994130205
Mn 9.58430332400003 13.193283754049487 10.919680185360818
Mn 7.068630678631069 11.543873277370345 8.221527918875731
Mn 9.043304108676972 7.344438451335616 8.159510244272665
Mn 8.799260902083374 10.207175393986251 11.753302008587715
Mn 9.333856025088451 7.957552910056702 12.472722592116
Mn 9.258807858593785 8.429014618030093 10.260148054758508
Mn 8.039870746633483 12.395221910022443 12.887205136389447
Mn 6.958239879301348 8.04010141945827 11.187670201900978
Mn 10.826285735341326 6.510799474351229 9.902817993361136
Mn 7.340186840295907 9.474221049578064 9.404150348164974
Mn 5.441652129255499 10.397907193784384 10.31537189824849
Mn 9.02577402177976 11.427204054061715 9.540089688693941
Mn 11.237856566842195 8.722839787318149 8.850902199865718
Mn 11.590764240466111 8.663023864218983 11.430989611482298
Mn 7.300418953408069 11.867285322806326 10.822072239332764
Mn 11.16250468912758 7.067933162643819 6.999719786024993
Mn 12.673655127360366 9.219138222255538 6.991973093072188
Mn 13.116227742769318 10.101778993551763 9.608272467224639
Mn 10.161327507316669 9.15798493848515 6.14382495814313
Mn 11.33443913123508 11.067150732149685 7.959088163140611
