25
Energy = -188.18970677 eV
Mn 7.07051732318587 9.958711650092031 6.753872264325906
Mn 6.241349712054529 6.157022150264813 9.823068500643593
Mn 8.185136684288636 9.698262515756232 9.093602776219543
Mn 9.794596556539798 10.545480444111787 7.252530204700095
Mn 10.58870693566028 6.923676558711416 10.781082755932617
Mn 9.504558558110972 5.874154742898123 6.345778283767266
Mn 8.608102683404251 4.969698165930279 8.800812615165242
Mn 10.253894873761745 6.583421991605374 8.37425918224051
Mn 6.412556069130839 8.205735152239253 8.555245493737496
Mn 4.778298739303589 8.913530690473157 7.082087935860967
Mn 6.97750399967808 6.345859125331394 7.2647255378422555
Mn 8.639339708017406 8.128136765074501 7.203981729278051
Mn 11.674531070108651 9.18627813736039 10.89174373791975
Mn 8.317276936104424 7.218366916364515 9.701626694755468
Mn 6.618459493593088 8.674331932074162 10.937012535157425
Mn 7.6343368862725765 11.16691265872562 10.908690973467387
Mn 10.142697832903352 11.293544959291607 9.813613765298735
Mn 9.147770632434302 9.146749944495323 11.265530277664634
Mn 5.755278942959432 10.51867454650498 9.080152531231544
Mn 12.09258615058655 10.078028034948952 8.428088926400298
Mn 12.1274175354953 5.951264856621812 6.941930303886016
Mn 10.294371081380268 8.828119596060457 9.035843695590957
Mn 12.51807187969026 7.501122147891814 9.03446214222141
Mn 7.92168766924855 11.903273159525824 8.432650004308538
Mn 11.14141234509105 8.289174126931798 6.730697458875234
