21
Energy = -156.39426404 eV
Mn 11.325266657350324 10.294340214097142 7.7718082146045875
Mn 10.137103968347052 9.68149275494525 10.000671033652427
Mn 9.653504665887489 10.409072446596014 5.987229370518477
Mn 9.409563170398908 11.689336698601755 8.498748812819988
Mn 12.192625402803657 8.168394034654495 8.952849004368844
Mn 11.262992111315638 8.340194693042685 5.958506182796754
Mn 12.310763691141917 6.322837053516244 7.261131991845516
Mn 6.727337763202371 10.960689575530402 8.544206147921246
Mn 10.1513536350407 7.909265062222525 7.900082640061901
Mn 8.20455559477463 10.966021752605743 10.761304684337885
Mn 10.649383878202817 7.402385844038737 10.660416375202287
Mn 8.509168653833996 8.141468105940591 5.971926686937221
Mn 10.019330576641673 6.044362212796637 6.321431226790137
Mn 8.539582654182468 8.504742361547105 11.923920896348367
Mn 8.566763471962963 9.654618480950884 7.8749133097495925
Mn 10.393152722620753 5.759503307195655 8.969006391037677
Mn 8.344311534643937 8.02531708583223 9.63249909721877
Mn 8.152468345320178 6.405792493244168 7.926091507153367
Mn 6.586965973641088 9.21502251790723 10.348384410667274
Mn 8.385278042528038 6.002439428335068 10.660285275318492
Mn 6.5847448573845355 8.387179493005346 7.8833156363168415
