26
Energy = -180.72545741 eV
Mn 5.834810446524803 8.971823307835432 9.224174838900767
Mn 9.919732692018579 9.669845312969757 10.736555693162513
Mn 4.299044799993519 8.120662055762281 10.394523753449636
Mn 7.657124352239465 8.49741674818879 11.315985712595442
Mn 6.26843668608163 10.226459462671738 5.965319881739918
Mn 9.45018590679367 8.93993262136806 7.327590629698143
Mn 9.555163095450975 8.17890372196333 1.018994265390547
Mn 8.200355532232733 8.887336538697271 9.2408412909042
Mn 6.879486812553187 8.234455830793268 7.26886390901947
Mn 11.269302293313029 8.400598584800925 12.364304352209784
Mn 10.25534040039696 7.800605095554092 9.59792852566797
Mn 6.875582786267785 9.411114130092784 3.498908989653809
Mn 5.59754491641427 10.51567681537419 10.93655435178032
Mn 8.508561680698971 6.642095911943825 8.028403827499057
Mn 8.658204762791867 7.470864946515007 3.390552624867679
Mn 5.690794567951492 6.537810402514116 8.6498947859599
Mn 6.929429955816435 6.111220807547241 6.397617248264638
Mn 4.720582696221553 8.001013218058365 6.984222022932316
Mn 11.146617171355384 6.610364980169624 7.7677750018724305
Mn 4.58711720006688 10.430808577656196 8.06063476945843
Mn 8.773155285265142 4.254942246421042 6.9910246455812874
Mn 8.288215184773605 8.733068418919204 5.442669138272307
Mn 11.083836930636634 6.405049526070962 11.094859702591915
Mn 7.462742484462586 10.691492246178294 8.285985836827503
Mn 11.717929694188687 9.164671613498852 7.387021420200302
Mn 8.631940767061366 1.607950422132783 6.756640421842158
