23
Energy = -172.84065386 eV
Mn 11.955518486277272 7.892381375290491 8.451248482960226
Mn 9.675995990802813 8.145818048361642 6.9873648789367895
Mn 8.834866782882964 8.867501827828914 10.922476052738942
Mn 7.408772610465694 7.1512342361040435 7.558529106454791
Mn 11.38936640747616 12.037842696134232 12.25719566750658
Mn 11.123901511278643 11.771853945758961 9.415941269857333
Mn 9.581786770076231 13.0170100633475 10.842769462943515
Mn 9.016050601676913 10.413333853541705 7.384716832726725
Mn 6.733193350302146 9.866431947957835 10.74185393690634
Mn 6.57049724945597 10.902066963228375 8.261516045151097
Mn 11.407804539038764 10.70285413585157 7.230726521708041
Mn 8.623890698196963 11.02761880170255 12.252353071873163
Mn 9.594460214833857 7.087032735845451 9.303454573949349
Mn 10.475878911236432 9.441222225071924 9.072799015252544
Mn 12.748614161089666 10.00555851953741 10.052046450429032
Mn 8.66130181616882 11.160313894738794 9.750462989278025
Mn 7.8920134108773 8.928649245523365 8.870471337212793
Mn 10.737640267934427 10.181000603839989 11.332660583228742
Mn 7.279640256924065 9.397907783653098 6.245675035425619
Mn 9.317566981079237 12.679922228019416 7.9744658926669985
Mn 11.23931475186577 7.896543129652554 11.040183893319961
Mn 7.242238977341385 7.167854222595013 10.370996607244003
Mn 10.058358073892649 9.167807618909945 13.241141431859504
