20
Energy = -141.36969389 eV
Mn 10.286160883044777 9.19396035783438 10.687110344370499
Mn 9.51037167314267 6.918511999271668 10.545487779020121
Mn 10.989068556910617 4.824692127037739 10.503984867331978
Mn 10.080179445439459 6.029645167680141 12.501133315686275
Mn 10.07502787527525 3.9756251889935723 12.69254926670821
Mn 8.625008873264612 3.7370072133260943 10.735301686332155
Mn 9.610208981524035 1.721902397697203 12.3435740991955
Mn 10.496514502620059 2.927211277216306 14.648460784082058
Mn 12.262184703996606 4.8005337601256235 13.231307084147796
Mn 11.55058505760297 7.157943919202503 13.695213785119481
Mn 12.51921867552215 4.18324581965754 15.665335037533607
Mn 10.567164698773318 5.7699634328610285 15.322726132254543
Mn 12.724379173423525 8.310047153868714 15.199712012996835
Mn 11.53019796773798 9.123864093935234 12.787943552030283
Mn 9.306237382900921 8.214428428320469 12.984585039651755
Mn 11.84468138960377 7.16129987669495 11.171333163274072
Mn 8.483387066689021 7.2124383144289 8.233284026209269
Mn 9.15571455966702 5.116673477116004 8.959783891028987
Mn 8.293086130215007 3.132496280864679 8.07004469166559
Mn 7.906792714817285 5.231687166748476 6.683203029688422
