23
Energy = -168.37475009 eV
Mn 9.857325742251744 8.775337482032924 10.03123705863284
Mn 8.120409418669437 7.044104168184402 10.051808605166952
Mn 9.081661286604037 7.563272098749591 12.159185379574453
Mn 7.253869247418101 6.9089144296002365 13.913815761403738
Mn 7.2531248195911955 9.109990544354032 9.342865951756723
Mn 4.575860173453276 7.300383959317097 12.63518658367844
Mn 3.896271110215059 5.085756585051929 11.265192627155086
Mn 5.053574076948813 9.040949786670323 7.5862506914355965
Mn 3.4818570361782877 7.894104772595383 5.650897948394061
Mn 2.9213540371576645 7.206546396819409 10.652320807410119
Mn 2.918226305580833 7.674601201476865 8.220368260072423
Mn 6.272126735052795 5.478542110732651 10.448149207531204
Mn 5.914159588263116 5.102615465956415 12.774025920006306
Mn 6.644137282152355 7.4153262703165845 11.717621296167673
Mn 8.340912569597194 5.280421826763942 11.959376248187493
Mn 10.232990210772519 6.1940521607075745 10.102753113214547
Mn 5.055576494139018 7.757907959444204 9.946262140596536
Mn 6.55637835774775 6.922170599739835 8.307082639480074
Mn 4.927556224958089 6.7540273817990695 7.08173135721642
Mn 2.891610462770499 5.500494506379084 6.687263713188379
Mn 4.384525473078812 5.630086188383015 8.848623420499035
Mn 2.150280215835896 5.333711943340538 9.238908855044697
Mn 8.918516989994936 7.538957011843268 7.894932172299597
