27
Energy = -203.39572589 eV
Mn 6.935543687520149 7.193035126415589 5.602687601724432
Mn 8.997622117809227 5.473996676711588 6.3694348905319895
Mn 10.204082986056953 6.885570491454014 11.58561758159609
Mn 5.736527909452374 9.99533460169052 5.466159272297446
Mn 10.534188326599525 12.11389613718485 10.219613589574212
Mn 7.808016905881316 9.344520674481593 6.193379567668237
Mn 8.292467963721599 8.757907009127727 11.643180748998288
Mn 6.981445399045325 10.811980242885154 8.104187673021345
Mn 9.384314176092804 12.074105117735293 7.838777196891236
Mn 7.889167133330261 6.4939055040813844 10.634317936679786
Mn 8.837403425892441 11.357246196806884 12.085223696628072
Mn 10.826042612448287 9.67075070948502 11.350092360596207
Mn 10.458124985174605 10.329204669063744 5.970770424075174
Mn 8.998279910917594 10.412705504515607 9.88839683917908
Mn 9.844494132727341 8.101100212940432 9.682982626520445
Mn 5.772152689585609 8.462502934818005 7.596839336278719
Mn 9.62605769079221 5.702131219359317 9.05676402263016
Mn 9.250330328941034 9.60487163084606 7.76487572967766
Mn 7.468321411022135 8.512368500917496 9.170065632998973
Mn 6.653052695703575 10.481123175045187 10.650338669179723
Mn 8.726713712007058 7.368107797228431 7.531703474453211
Mn 6.909478694441529 6.1581381008742175 8.30069714937824
Mn 11.088499146119133 7.967725884957689 7.448535897146286
Mn 7.9607332535449995 12.630080863350559 9.936323278046007
Mn 9.60440942403638 7.925076310628902 5.1963248358484675
Mn 8.237716609420197 9.984517799307962 4.059147556124954
Mn 11.390460556205616 10.189234152808798 8.79926436998403
