27
Energy = -184.34655222 eV
Mn 9.989702497941273 13.667857522283644 4.855474947037254
Mn 10.000346032492807 8.12470273655064 18.003912378442273
Mn 11.680734455174763 9.85800256492348 17.69163576082456
Mn 11.671105714661564 14.642568812764429 6.323691636942129
Mn 8.888321846720295 6.997319454818108 16.254445390747723
Mn 8.884804255675565 11.636338607735357 5.268971143641391
Mn 9.521422682453508 9.078971060941997 9.298064022811669
Mn 9.520271445549755 8.092798998764215 11.633415144927586
Mn 11.183824338744461 10.955585840691711 8.807501403178525
Mn 11.18189335618615 9.051824906537414 13.306739226034976
Mn 12.919458396971658 11.924480471361269 17.257899882076334
Mn 12.923662087554113 15.800843498251677 8.113571115865893
Mn 12.822093804052562 11.973522000301855 10.499592018553626
Mn 12.822195427614421 10.980488806718931 12.863046736695175
Mn 9.14722187037784 10.17808375651868 7.153823759641065
Mn 9.154156928296263 7.335163511684219 13.88731318875214
Mn 13.35782228500521 14.485019978433986 10.28267333750797
Mn 13.356879458029757 12.57083884313999 14.811432229158521
Mn 13.85788518657878 16.875319536326792 10.042932641344104
Mn 12.46461199609189 13.17894668986683 8.298593607803323
Mn 12.464442294790517 10.239644686651776 15.262606457362107
Mn 10.75990561414193 8.481292468576585 15.710381472112882
Mn 10.756099050583446 12.273430372121526 6.717222529084011
Mn 11.13848076324743 9.959523786341684 11.04551787648758
Mn 14.187014668752884 14.938871440878291 14.506945668443624
Mn 14.189104945638618 15.924382124441099 12.195220691821097
Mn 13.738969036677346 13.367392245374045 12.47780202992734
