22
Energy = -164.88619389 eV
Mn 5.958615286337956 7.018746703480413 10.377839812199046
Mn 9.970103673381375 7.742826723122055 9.676311579043519
Mn 10.377060707326663 6.140349859220467 11.31915127899912
Mn 9.912573305904658 5.6703604941035115 8.583838788664613
Mn 11.269826183994283 8.199994222591672 7.657381164607674
Mn 11.227034466960578 9.962651755532276 9.436593280371234
Mn 6.56995065848795 9.400847199070922 11.159843558627658
Mn 7.191211838206467 6.215884242734973 8.11860462338088
Mn 10.755130663411911 8.888241332636298 11.683637799019243
Mn 8.307138657209528 7.825447627454589 11.828627817172954
Mn 8.157971391451074 5.848249071213632 10.337982714830746
Mn 9.00781329078998 7.369067358699031 6.932925793929496
Mn 9.493831106441528 9.515922644188317 5.82116029398584
Mn 10.93598517763794 11.222774434952948 7.286087546579656
Mn 7.079554120026401 10.679670113486418 9.12863462464939
Mn 7.898583937631205 11.664529380289535 11.477567882023088
Mn 8.974719110128126 9.800328720272041 10.644718630092141
Mn 7.099646987592527 9.043215897114987 6.957992929030391
Mn 7.666713319558593 8.218885437186438 9.192442055760791
Mn 9.33188291405953 9.657411669599613 8.087904743985458
Mn 8.256542599288414 11.486746038912052 6.9259842480835765
Mn 9.319973370909539 11.831986016969335 9.209754900085223
