28
Energy = -213.16099184 eV
Mn 8.691612304554555 7.902379654512969 11.837453378433983
Mn 5.328300940995813 6.786883452010555 8.820486225218746
Mn 11.41354260085245 7.42540566716887 8.62980693456526
Mn 7.123355374657196 11.778133454530138 8.830873516731453
Mn 12.042107288017698 9.920074074465898 9.113806671282301
Mn 10.579001368166095 10.401181699339334 5.339881802301615
Mn 8.420676679735339 9.201479413514996 5.814109965651083
Mn 8.053118512342582 6.4975569063524805 5.843724145372308
Mn 8.734973054430194 11.68870201006572 6.783360117147697
Mn 6.303283467167632 8.441883840328625 4.9068321934719386
Mn 11.152758932514434 11.981180705347441 7.472268068992397
Mn 10.788481017135084 7.7528931212604375 6.011046202098566
Mn 10.32591393053595 9.579972771860112 7.518919772902578
Mn 8.053131462941522 9.745908121629874 8.177342170133699
Mn 5.635160129755362 9.566453700552811 9.10053948641985
Mn 9.67098474430557 11.346831522823566 9.37030616280728
Mn 9.139767699900123 7.503465287826512 7.72009104312963
Mn 9.697904192557166 8.855563868038457 9.758621194355737
Mn 7.558888722579223 7.874811066666396 9.622528122863939
Mn 6.74196234043608 8.007323045469771 7.2940914212187575
Mn 10.123338991322832 5.378323225825892 7.470032690948661
Mn 4.505534517309773 8.618419348721442 6.916175500646679
Mn 7.0206904377186214 5.891949329794815 10.852468412084548
Mn 9.585801352379201 6.277272376141744 9.975849599993191
Mn 7.700178871479939 10.151606448422662 10.789048272743697
Mn 7.653314211789743 5.736973677666921 8.384573378447273
Mn 11.42515110869854 8.009579542289377 11.120590933198182
Mn 6.258172730055663 10.521140450211298 6.635560912273043
