29
Energy = -213.39249991 eV
Mn 10.394820225969854 10.741371355383052 6.656245945801153
Mn 11.857191167883833 10.750558280192163 9.996931806052588
Mn 9.012819150942189 7.32448067700392 9.168127132698105
Mn 11.072425549884487 8.25002679983225 10.117481303832646
Mn 6.842697756998103 8.773123118932574 10.047637674732945
Mn 8.372182466079096 10.435649940397484 12.751295547716879
Mn 9.495576874797026 11.97810428495419 9.815842145566162
Mn 6.915860341521263 11.398441346004507 10.885742861709144
Mn 10.348594244181704 11.903966536905152 11.875908005658971
Mn 7.658190317020691 10.751046449595794 8.85366403012723
Mn 12.901512525851475 12.804841842566791 12.08229023976624
Mn 10.509518589769103 9.499965241461956 12.284970724952633
Mn 12.511553901077308 10.674250181882835 12.521628790986483
Mn 10.876625987535 10.749044183912195 14.26078498321498
Mn 7.325527462907568 13.257830221440127 9.200291720935667
Mn 10.06056895361893 9.885412342461793 8.577136424593899
Mn 11.771939042081417 7.897067874931434 13.23741127311638
Mn 8.579760776520875 12.074433681930712 7.303553615426763
Mn 5.557671890389325 11.027420151784023 8.271173913860835
Mn 9.247104666552524 7.475974293475951 11.86706380225985
Mn 8.954554919340254 9.528661914188458 10.53963109560044
Mn 14.658047797820386 10.497204954442367 11.29371986104103
Mn 12.919345697944081 8.889334723482216 11.341061929799157
Mn 10.452551622020046 13.143091419557182 5.910804757864611
Mn 11.783380503362418 6.458329236001422 11.048934434567352
Mn 9.71428824862637 14.09108470561749 8.29225018212483
Mn 8.19004809153628 9.053936706777131 7.303781963514284
Mn 13.525747788143457 8.204299757717456 9.277713784505654
Mn 11.102804180372969 8.072514188231933 7.731781028261299
