29
Energy = -218.20133806 eV
Mn 11.793896014946576 10.858029268796544 10.872847932497068
Mn 9.690801900922656 10.470065875715997 11.729809119207376
Mn 12.249961949316562 13.339581027463453 10.745382978089408
Mn 18.431139954639203 10.805922551435968 9.162710366220496
Mn 15.95183620557641 9.064762155378832 12.262539770722707
Mn 18.101419167200575 10.226901928152182 11.979306687780262
Mn 14.14917074713729 11.44921695709775 9.984023373601987
Mn 17.34293143509234 12.655817624339644 11.031734061402092
Mn 15.447480448808301 13.174035963106668 13.522558479608835
Mn 15.739730246602354 6.673313896021254 11.416957592491649
Mn 13.371747440774934 12.141239581474169 12.504406083290343
Mn 10.813684383404167 14.617953892788595 12.88485314981574
Mn 12.729997827740474 9.312159870363478 9.244458193632985
Mn 17.38182206601523 8.298530880993914 10.095384824274577
Mn 13.823046011841186 7.909244442453591 13.087336746382496
Mn 15.573532914823216 11.371306061332923 12.113570245249091
Mn 13.533911250248378 9.822990200236363 11.889925912445458
Mn 16.47330516392123 10.580867564305429 10.19756264343514
Mn 13.325461751012528 14.576289736525347 12.728008295304482
Mn 17.86291734654677 7.635564955086278 12.634319071171731
Mn 14.877111295430836 13.603254981035361 10.928768993873238
Mn 11.471861098645656 8.534494927480129 11.401457777334272
Mn 12.437420618695112 12.795044449538038 14.491578328387392
Mn 10.915538174244457 12.363545645571042 12.62628446965304
Mn 11.766918310795532 10.18101771233711 13.543994863999089
Mn 15.608529552236424 9.760382774957696 8.236862843586087
Mn 14.57034219769061 10.433271128405078 14.081709310181916
Mn 13.324263371476132 7.053852786123079 10.696206425442211
Mn 14.812221212153347 8.739394431680648 10.210363440517018
