20
Energy = -132.28434397 eV
Mn 13.87893338959691 10.915370270615423 16.016779814515125
Mn 19.070859975768457 12.795380751234463 12.532595518897304
Mn 17.127379935567625 11.586256368657006 11.825120761053983
Mn 16.957180146192098 9.103218179687241 12.370649775916217
Mn 5.32660914966814 12.59594426891775 13.71793211085818
Mn 7.338870930796993 11.200359611496234 12.822572732476004
Mn 17.082122613891833 14.3615248824989 12.19152006330109
Mn 13.305231091495191 13.593713512060551 15.008242262096976
Mn 12.258296474274113 12.85135644306623 12.75302795890205
Mn 4.924864950709272 12.049456698180299 11.25207272150569
Mn 9.101520215190755 13.83387024049644 12.584406834174459
Mn 11.175780479736074 15.123591865532516 11.560967491658593
Mn 6.0171686270536515 15.101992712737838 13.033707896847856
Mn 18.82396783469006 10.525388593216634 13.38493328763571
Mn 11.271100831972943 14.793573214873394 13.835154970586366
Mn 13.495455101962978 15.438266952401165 12.840201239002722
Mn 14.66180272536838 10.244646225967802 12.629638363960384
Mn 19.49791303333309 15.179470940450933 11.156107382168775
Mn 16.432772252892 10.30960880180094 14.498843549408239
Mn 6.8073795686610845 13.466662217838724 11.946958517967243
