27
Energy = -204.49006881 eV
Mn 5.8307331699502525 9.24305957906767 11.151956007107765
Mn 9.810546158980602 11.262907838430477 12.068067308758494
Mn 11.104338877478455 6.224058302569175 10.446932376782405
Mn 7.37887376447445 6.636829983165028 8.376799132712534
Mn 9.86888376902122 12.143037084719468 9.216767050680847
Mn 8.84028815698054 10.313875973693325 5.701538340950733
Mn 11.548724938543154 8.605201998614746 8.9527976826327
Mn 7.800058368098564 11.115718416031363 8.03847023252034
Mn 6.42628723321984 9.418480934370825 6.694645839539063
Mn 7.316548185677839 9.061224512497924 9.318313837977785
Mn 10.543065592874099 8.133692798323347 6.228809851634043
Mn 8.283815757052544 9.067760547198528 12.055219230428275
Mn 10.149203551687494 6.58636050314695 8.174429614513667
Mn 6.098915725898386 6.810725872232479 6.425421081855557
Mn 5.318162590522825 7.858804881254779 8.797061185333394
Mn 8.62318590971107 5.819467814464048 6.4486112839340874
Mn 8.383556599000366 8.179677343277975 7.1450387833142
Mn 5.536025762533469 10.622192594694688 8.989274456167061
Mn 10.837678127437348 8.579959076194646 11.52376619922065
Mn 7.929379684288328 8.003700274338032 4.975769198260943
Mn 9.632981646262122 9.821330459718514 8.051477030157953
Mn 9.20023555449878 7.710017943183933 9.92989947971489
Mn 9.666418525338598 10.037716444328876 10.256151516081013
Mn 11.327713915720482 10.645349242893195 6.938742912489749
Mn 7.557448288003137 11.225662255378303 10.647471006577671
Mn 8.699679173734015 5.102563283708748 9.50696318582628
Mn 7.094275546770468 7.080308727926245 10.794253673404548
