25
Energy = -187.59622362 eV
Mn 9.36786982608044 9.726780073584855 10.776857961106016
Mn 3.3379002905908965 9.27528116893074 11.415247643196121
Mn 5.844459313180549 12.650944480411752 11.015493728097114
Mn 4.953079577283432 7.772538326697339 12.398852872041987
Mn 8.803345602748756 12.229158816932259 10.291689100602314
Mn 3.625765037283092 7.277271885663356 10.031020479998965
Mn 2.1505094198071126 11.311161709995748 9.361975537417727
Mn 6.021178025885695 8.243977150025946 8.112814166182833
Mn 7.000179756327461 12.629366595575116 8.702489511714841
Mn 3.5042909244000917 9.230167391353318 8.686863055657966
Mn 5.556670008711621 8.954298055067834 10.19653403991291
Mn 3.76457866083293 11.734425098611739 12.95713191053698
Mn 4.3101031009769635 13.01071547484063 8.800593807359713
Mn 7.338206439064165 8.366070169316545 11.94772110059072
Mn 7.989819440809754 10.131734403772041 8.572127151229388
Mn 3.1070252678701737 9.257137878643935 13.687990469902601
Mn 8.1215194241259 7.781757263025784 9.58415876071985
Mn 1.6926702474038497 10.936343717517426 11.900509064183183
Mn 2.9905303522085616 13.142652614382675 11.048185148243496
Mn 4.1950341317265245 11.11249291826627 10.444178580749478
Mn 7.11273572966248 10.659396535089517 10.814162979256288
Mn 6.006745791690726 6.64410188578642 10.408276399255312
Mn 5.492342681486872 10.215303455623614 12.519971569699951
Mn 1.360951626620338 8.855609494677998 10.219852423164953
Mn 5.512364901359375 10.853894768842295 8.511184732587058
