25
Energy = -186.44108414 eV
Mn 8.661350493464003 7.625485908623767 4.61796630924972
Mn 12.39725132147906 8.981738480666694 11.464187459678561
Mn 7.063049438489418 11.907429602252783 9.680151097192098
Mn 11.218942962387509 7.378833564816295 9.60719705469207
Mn 9.265264831374513 9.378415196919214 6.001465659526848
Mn 8.76348743072781 7.244623545139426 9.490368253686052
Mn 8.167628267736172 10.77245342275997 7.527383441691543
Mn 9.921612586728521 9.159583332242425 10.958016703005876
Mn 5.902584209155438 9.760876638284406 8.293260279737002
Mn 11.307029717925813 8.834508088832708 5.0533502952298335
Mn 7.0015758440099285 13.250524038431184 11.934705173276319
Mn 11.694985500535756 9.991279503441865 9.46728907255054
Mn 10.953108498936693 10.849268697073645 7.017067397629348
Mn 6.8688960390202025 9.641387685755298 5.525122510486803
Mn 9.882197555665394 9.026486702675008 8.339322950166153
Mn 9.628831408191392 11.223087227452531 9.41053555536111
Mn 9.264522679241539 13.224466942816955 10.575594279120226
Mn 8.323203530198223 10.963207915623602 11.737676807071
Mn 7.632522315280224 8.252645670133898 11.588625041336332
Mn 12.304769356105096 8.662180432981247 7.55061317311529
Mn 7.91671747331996 9.51849802774651 9.588286146681257
Mn 10.27248975060712 7.217469031436356 6.922990559119172
Mn 11.702357417268251 12.419417773548867 9.164003887017252
Mn 7.720186180819478 8.013276680662255 7.405010570432408
Mn 10.991648682476898 11.341954768681116 11.584668702415806
