20
Energy = -144.08035803 eV
Mn 10.97189767703587 6.664782993381659 7.390771254418415
Mn 8.438609198164476 7.481139056847309 6.055299731933556
Mn 11.534245353601687 9.423708824804459 8.63293874600057
Mn 8.05272937890237 10.395062292738602 6.989138053409781
Mn 10.298471158292791 9.405579939285062 6.584594993789147
Mn 12.343521409037917 7.1943019308050316 9.836863277831368
Mn 6.8648655009264905 8.278474878429636 8.31988420681118
Mn 8.904827581991096 10.057234388229512 9.05922573346657
Mn 10.318992456707614 11.820396801882364 8.273014534946979
Mn 12.569286958025765 9.52071137453378 10.983083148191975
Mn 10.224685331252699 8.153223205348493 10.30067497720444
Mn 9.159001553139735 8.049229189970276 8.11667223818905
Mn 10.54096354271833 10.713215128177367 10.491127995033002
Mn 12.403879511010649 12.121497197946908 10.87911411002876
Mn 9.901544260766542 12.82290889586613 11.126911341848034
Mn 8.417486156726115 6.3488089453195045 9.53260758759592
Mn 7.935991141684743 8.67678979064689 10.736106473915058
Mn 7.826612200146787 11.387834089325537 10.570544189810567
Mn 5.899007708334494 7.172550136988541 10.468168236643548
Mn 5.787593505385433 9.806260266052124 10.240794028534308
