25
Energy = -187.89303725 eV
Mn 10.493264368383423 10.272953747094217 10.166457327794662
Mn 7.232617711600785 7.459804831112658 10.805828818985919
Mn 9.224770243395662 5.991940767055961 9.726616098918091
Mn 9.470849048705125 8.794848122445536 5.448011638931702
Mn 5.373704816648846 8.400685423430478 7.179018696524953
Mn 6.406181753687339 9.360859843414936 9.365364370994136
Mn 7.373432440052274 7.070349649888191 5.793892725572104
Mn 11.212907284132902 7.815582179159518 9.318436877715287
Mn 4.796327115923588 7.343701957003765 9.60986568936638
Mn 9.412302843366573 7.234799813698262 7.50734686316356
Mn 9.805055146454144 6.244506391424914 5.206513271322064
Mn 8.025737354501622 10.06942434595131 11.320022994425353
Mn 9.69577853151459 7.986570959959793 11.426090238565989
Mn 12.204033100773442 8.741587548704866 11.62562687039105
Mn 11.579210027086793 7.716243843418774 6.606174039809512
Mn 8.423587582049597 5.117477742998379 7.203059578646359
Mn 8.656404644804862 11.024581358637628 6.345490804081509
Mn 10.324392731418117 9.602186110910049 7.730779104407586
Mn 7.759872524707535 9.118094058423193 7.213254014883178
Mn 8.399267845404477 10.829608052937584 8.899413920709515
Mn 7.08447193040072 6.941600971301543 8.47010811744206
Mn 6.207690878864757 10.874189429621913 7.380176731716544
Mn 8.823235314574653 8.594657840344714 9.327855775135918
Mn 10.228612253847071 9.975295896821029 12.590782003605133
Mn 6.818204271594061 9.692810630863839 5.118129643475791
