27
Energy = -188.91902232 eV
Mn 9.75646929289586 9.4340536453814 9.803461454528652
Mn 13.62816559359162 6.61586401386649 12.035059894604785
Mn 13.262332016156682 7.528707907388375 9.272018385296336
Mn 12.759824217060693 8.115612353500085 6.715332153714825
Mn 13.211035763789921 10.652029266048615 6.593158087669068
Mn 13.473809362163935 13.10102771380246 7.4299123619923755
Mn 14.264010897134842 13.514854987125227 9.951912870884595
Mn 14.35623468442885 13.783480536521454 12.572088693933688
Mn 14.892432979466163 11.025194933702476 13.42666811278942
Mn 14.320102006468712 8.331233555291801 13.985550957453706
Mn 9.033112863567126 6.92468509426957 10.549871815863945
Mn 9.903455202481357 10.969887353084228 7.798820011934253
Mn 11.451575636937834 7.687493282557942 10.836593580513675
Mn 10.761842491184247 7.282125490973035 8.453950835614641
Mn 11.669847423792984 9.50217012317162 8.246261391429968
Mn 12.006980850844569 11.843070609671509 8.425485845299184
Mn 11.688598453954638 14.160414872315918 9.022581300973162
Mn 12.266467146565287 13.272283132688573 11.406223568269978
Mn 12.70451268685866 12.01274253017114 13.459938778465864
Mn 10.678678226642484 9.055866245885532 14.95493499952008
Mn 10.126432369189192 7.048370080517168 13.122457426850044
Mn 12.273260535915048 8.385033899431011 13.22386930942981
Mn 10.33457291669399 14.677562807202905 10.956369558214478
Mn 10.264942365335106 12.160712255937614 10.070890595023592
Mn 10.465203856776958 13.4819302351138 13.322187296544046
Mn 11.088572042677209 11.72600125435773 15.575082767549826
Mn 12.729968601880541 10.272309938855345 14.614477272004923
