21
Energy = -156.25225312 eV
Mn 9.497824818263055 5.498207214226394 5.334769126461262
Mn 8.868949031219898 5.231092110149178 7.765207184935796
Mn 10.487575483948723 8.155986541406367 5.183593604692934
Mn 6.516065745817875 8.44000594106709 5.918098492910345
Mn 10.819256536016697 6.626035471993959 7.1580471839344595
Mn 6.14542804352623 10.854918599282277 6.970858035865717
Mn 8.01740122451114 5.687057631907538 10.086344147004612
Mn 10.26388084673102 9.174719385246794 7.625410699646045
Mn 11.092314834134994 4.280223219425246 7.4050049991410605
Mn 8.940531585975839 9.795324153899733 10.013186417430354
Mn 10.729580510888933 5.914095721821434 9.602968578287546
Mn 6.601100004572204 10.710326695589913 9.59551944375753
Mn 8.59115717619684 11.123408370392177 7.771372299836638
Mn 8.673615415465378 7.432584383764987 6.473210003927796
Mn 7.647608390192109 9.032849781761213 8.014489162778716
Mn 9.017480710110588 7.407313613471572 8.944668088981473
Mn 9.18516346504313 7.488395480209349 11.459805031994467
Mn 8.538580463702393 9.85018459216018 5.6002889324941725
Mn 6.964686262570163 8.155120467115564 10.236785870237407
Mn 5.357421159690021 8.844637256113606 8.291936088292383
Mn 6.741269022850578 6.615291268779744 7.941220618170159
