27
Energy = -193.1963761 eV
Mn 11.827997912172762 11.794143484927828 8.23313155065987
Mn 10.003725526510904 8.702658349995822 7.032233850121884
Mn 12.57313007521169 8.019073042206553 10.681308095766978
Mn 9.973322984207849 12.600284952141243 9.631016094091613
Mn 9.229640258745485 9.417204152617284 12.800198497543333
Mn 8.026821482387657 11.681704305670095 8.315732195634869
Mn 7.482580397215458 6.583256850655644 12.636196052513416
Mn 12.81774582510133 9.700059157643409 8.937941325698885
Mn 7.450641655796952 7.819395328519531 10.276186486053195
Mn 7.735481267496752 13.786261974469056 10.00343111221915
Mn 8.397581289131216 5.495400355057954 10.196755038958392
Mn 12.356552665538285 9.728813742083792 6.584344707561477
Mn 6.513908680345304 9.584002737848873 8.879092189552548
Mn 8.028829131901473 9.629519142073606 7.079214147175841
Mn 6.354589047990977 11.647374897687229 10.309323951792285
Mn 11.283646956377847 8.27443532492147 12.747904549239756
Mn 6.0207539196117486 10.337427310575526 6.282177116958559
Mn 10.038476333536336 11.130353239037643 6.858029137362383
Mn 9.683790760666335 6.955951469938326 8.53921464063236
Mn 9.660469384715476 7.136201548157772 11.473093289204725
Mn 11.182245676228717 10.498574563221846 10.951538574534652
Mn 11.996894496451029 7.3044301751897205 8.029216827894794
Mn 7.871626504677492 8.80626262445246 5.12622074342342
Mn 8.680709800391666 11.769636458642161 11.535886333291002
Mn 11.126626298851754 6.180150386149264 10.375174823512582
Mn 7.738217152880056 7.586092295155557 7.838241972086296
Mn 5.694162573590341 7.199416936979129 8.649001283993574
