27
Energy = -165.14682301 eV
Mn 8.046503550634064 12.638693181550767 7.075387891072059
Mn 10.170694133095854 10.920828826058576 7.371491948644348
Mn 8.88184802286994 7.771048603753769 9.175066305215857
Mn 6.882504806273545 14.742772506816777 11.404238424470625
Mn 7.703154401274582 10.028016112985496 8.157404847320983
Mn 5.789749221066218 12.457011249913428 13.052721122498108
Mn 6.131485381682515 12.010853152673892 8.53197199284925
Mn 7.527926909927344 13.63100410963312 9.230091277594832
Mn 7.470258498274258 8.661655609254682 14.822669207689836
Mn 12.491989722193434 11.948592925420815 13.851972357881959
Mn 15.914373960056434 7.499572775074729 11.801509183985472
Mn 16.157418078491844 11.328769818734083 8.167202577856411
Mn 13.59668305185211 5.985272022162177 11.463325185331424
Mn 9.513976618359635 15.6259003700509 12.325811509181602
Mn 13.59446644519715 12.651766832225654 8.329077171039161
Mn 11.895416883621662 9.599330694033208 15.055460079890429
Mn 10.200259029293111 13.424551519245702 14.520499064692558
Mn 10.49063951157687 13.258091037405029 7.7507774957316125
Mn 11.204260355082047 14.39131204028043 10.203442657242306
Mn 12.941773545035238 7.404748889451125 13.810040132588263
Mn 9.735142319915298 9.317478945423106 15.162734028636667
Mn 10.792550836383494 6.18583220252187 10.903927494568778
Mn 8.951009959303361 15.202129996842562 10.004293453105557
Mn 8.356060025060794 11.29784530420002 15.465216379903822
Mn 15.949770336630468 8.975970155619807 7.441466743609219
Mn 17.184075749067585 9.535546431728335 9.613849901798917
Mn 15.885221039493697 7.205405487640345 9.286078287189449
