24
Energy = -179.53831874 eV
Mn 11.609570243467891 9.097487194043318 11.249286960836358
Mn 9.481458427378097 6.982908742735903 11.853069627375621
Mn 9.357327851532116 9.594705682195695 12.476539102258013
Mn 10.597552446875262 11.651603255071086 11.410855945290404
Mn 9.779292326178414 8.494155843588985 10.00132397805965
Mn 9.87826354210263 6.5510930232226965 8.347901877803059
Mn 7.382354318284461 8.683539020132674 11.04527259492378
Mn 12.08575824864254 8.342708350466586 8.702684183111566
Mn 6.747105553427301 6.206644107643112 11.842127015929593
Mn 8.08138846050662 6.664733380917796 10.021756117705456
Mn 8.688334193391247 10.592466176932723 10.376332733739062
Mn 11.040980660592547 10.622325623417854 9.260455284796171
Mn 5.8493216617840185 7.4455519800627314 9.4901806489748
Mn 9.12945422462187 12.64161258128034 9.265941218432506
Mn 7.386340712420859 6.121245209692433 7.824760686622773
Mn 8.939634246050126 10.673324736468476 7.970335057447538
Mn 11.295257867177881 7.624019937599414 6.089248485197541
Mn 10.122150132167432 8.84030064961566 7.595111656197828
Mn 7.8210483742177495 8.41010313955185 8.349433682511512
Mn 6.63078605674664 10.408306551349769 8.993514227465429
Mn 8.499677529364305 7.556646422617352 6.030204548566211
Mn 6.027574075885273 8.09564197889177 6.916038211372859
Mn 9.819082842273295 9.854083724788628 5.551872038414367
Mn 7.460134238544113 10.030390741166672 6.33393813276009
