28
Energy = -187.52683867 eV
Mn 10.197200574426441 10.044549753871701 5.1047428178039125
Mn 10.198144288840004 12.92221917586303 19.086186498569575
Mn 12.134702112130368 13.853641711010107 17.913400247578416
Mn 12.129364568750905 11.364175603628988 5.823613990149355
Mn 8.81962150859615 11.24448628361601 18.22037405353095
Mn 8.807787646127151 8.841327823497348 6.55906264067475
Mn 9.274278557598587 8.906950731447804 11.357305820427559
Mn 9.269556819172946 9.4104835893911 13.7992945245574
Mn 11.187133520647578 9.846775841333994 9.950590365628106
Mn 11.183443733630984 10.825882281307708 14.719950987478493
Mn 13.679727475164672 15.064373366554685 16.42998301257985
Mn 13.677058676003435 13.06144647225047 6.706541642530795
Mn 13.096032129763236 11.329026921956117 10.821309236867535
Mn 13.098177865634261 11.843232203520477 13.331250174234553
Mn 8.93974723686545 8.661178659325001 8.944483689702905
Mn 8.942119067197803 10.13172858020926 16.10290406658097
Mn 14.034626730778102 13.135185593158258 9.239337876700818
Mn 14.03604995845148 14.129851107853218 14.07025284306911
Mn 14.911904907347056 14.839319748877605 7.713222894079434
Mn 14.909641089173101 16.29517327874725 14.796149471884197
Mn 12.799788076060773 11.131596539862063 8.310686676594157
Mn 12.795140773209285 12.656535899486638 15.718609691160239
Mn 10.851455097420006 11.792783711333756 17.01704627496513
Mn 10.850247589982885 9.826241075735304 7.451492921462715
Mn 11.128933523581608 10.298994098833463 12.3452132492445
Mn 15.23747577895534 15.729940248541414 12.508904692838957
Mn 15.233312266438636 15.216756461419196 10.046812588233777
Mn 14.379057558085801 13.395768422831255 11.703723420266146
