35
Energy = -267.24157733 eV
Mn 12.512011292120617 9.360669252085907 8.09955916618043
Mn 12.856307631848379 11.982549707916188 8.29829861130331
Mn 9.508572462967221 13.065493037919254 9.709088475241174
Mn 12.64067619853583 13.537012158765398 6.170740901106544
Mn 10.514736823571557 12.025632838995008 6.400260999004465
Mn 10.573711522909136 9.209288551360384 6.325217532846658
Mn 12.468323586127548 9.306275980414938 4.352448558157292
Mn 11.628180383746667 10.877100207227043 2.2960851629705252
Mn 13.160714481564947 11.882318415079121 4.224676361219654
Mn 12.810905902347574 13.199801880570053 1.9643575754262315
Mn 13.691872402604117 14.492440209216245 4.146227898037443
Mn 11.800536414705695 15.209219686873283 2.705829769399605
Mn 12.097871145508032 17.295530316694798 3.7491131909717654
Mn 9.737492052954659 16.774434929875504 6.0661205095116975
Mn 13.728996955521167 16.214118114658 5.956397842799982
Mn 13.541312463103937 14.63185494676491 8.10562356229211
Mn 11.263786621161074 15.145774269930786 9.926577487181083
Mn 11.610992699267612 15.758673802757853 7.487719764571155
Mn 8.710722250985533 12.894552008343267 4.577867371942093
Mn 12.397575305789086 10.806864166911346 6.240786719902506
Mn 10.3899343317343 10.945313969709671 8.443096338125056
Mn 10.593253526003334 10.91031116460294 4.351991847708038
Mn 11.187425299631183 13.523886243687452 8.181366237441964
Mn 9.948380006018766 14.31201503695604 6.022498391960974
Mn 13.666171630099608 15.95610917496851 1.7461454694982348
Mn 8.834331139403771 10.77082325893929 2.9949780745062786
Mn 11.629493100820648 15.621869564480646 5.208838083895718
Mn 10.161915375927084 13.003840518425045 2.2880420236619785
Mn 11.231135519640231 13.290810906446566 4.226426782365285
Mn 8.52606276921586 10.74178624426611 5.896068731387638
Mn 10.743823072685213 14.917124217575664 0.8643540633559473
Mn 8.63109592622132 12.987917257004518 7.42515888910013
Mn 10.532023410167456 17.4441432021018 8.603739542603506
Mn 9.636421382072523 15.297407192224997 3.6634146688091747
Mn 9.25695831366339 15.301800620828926 8.283283198665591
