35
Energy = -232.5220132 eV
Mn 11.822767856114435 8.559019517249661 5.160761572424199
Mn 12.18381653425556 5.3949273038641925 10.627669387751581
Mn 11.344314690594713 6.531301834413652 6.534577469439547
Mn 7.498191122396977 11.517099417358235 13.322966624783032
Mn 9.938675265369023 14.36905811154605 10.346270523727549
Mn 13.582054876229087 12.150553886444388 8.042658782943429
Mn 6.29180149966066 7.715914131889702 11.888421957644177
Mn 5.93469141063742 10.609057965599341 7.234476406683086
Mn 6.613986609049042 8.765419803012094 5.716339893163091
Mn 7.156965987130195 5.580167502521924 11.15632906172113
Mn 14.010329890064165 9.707072139702156 11.667716204439259
Mn 12.117248199188474 8.93256448202234 13.146109526237108
Mn 7.977922897295257 9.084023601845514 13.568899991020563
Mn 8.743293226791856 13.116777135920701 12.024468937095554
Mn 10.575039455333792 10.618507277560063 5.13753953963502
Mn 6.001397152631838 6.823882640932295 9.437190711574734
Mn 11.360264898454588 13.017406339182513 11.75281779966725
Mn 10.088611761154121 8.045768181535783 14.14507248749531
Mn 13.028482215621366 6.548083023028579 8.736453872399897
Mn 13.328289231032477 7.446102069214759 11.159298973449138
Mn 6.383478170779048 12.024757595741868 11.139169464547376
Mn 13.402085300662721 11.775266252391487 10.412758880618357
Mn 8.572319700911907 6.691747751085399 12.81176891833252
Mn 12.713376376497001 11.3221902961868 12.778964151589447
Mn 11.881709908386162 13.432853493087002 9.187417275478728
Mn 7.975988632411275 10.72017247143358 5.412821663931815
Mn 8.122182470747303 5.282553485220162 8.929252127894122
Mn 10.765451556669495 5.183483208628337 8.651258163232885
Mn 11.57953890994143 12.540460413383911 6.697488227607801
Mn 5.905605786966735 10.006785460854935 12.506553026900983
Mn 9.250678513607655 5.3807161581047485 6.782674593858296
Mn 7.749569521063699 13.592756917322133 9.612681998125158
Mn 9.390596764535973 12.666775218519714 5.618002550159468
Mn 5.328744897374543 8.239793634267896 7.598750682147133
Mn 7.456055721271573 12.678939870422248 7.116052336961699
