36
Energy = -242.14209327 eV
Mn 9.578507329707522 9.60895086745836 9.60161283033006
Mn 5.5522005881325995 8.552355944266948 14.363977403199415
Mn 0.670386535724505 6.016788844214943 8.353440229432362
Mn 5.794784289963828 12.248525025088455 7.99652101745028
Mn 3.2525747120003206 3.7050030459020693 10.808647681158131
Mn 6.599350603307915 4.589691685164531 6.563079666406406
Mn 8.714537590820964 4.727454801353937 7.90611636380606
Mn 4.711408380675172 3.861154476022788 12.725434981295498
Mn 8.260401867922836 4.538834565264054 10.34972187672138
Mn 3.2187556999221574 11.633871568153975 11.50104907389979
Mn 1.9855274081919798 9.52458835606923 12.077668118086706
Mn 1.300693891551723 5.641689996570832 10.732520490646344
Mn 1.4199974201806027 7.778229438700567 6.921378952148842
Mn 8.833355368885497 9.111192733580245 7.369313173641611
Mn 5.8309559664164246 3.285281765733074 10.66722122606523
Mn 1.8565237745245329 10.221801109469785 7.778238480960727
Mn 1.2640318149421406 7.258469402562632 12.52929675058955
Mn 8.387120210315707 10.8177158979215 11.217494528663288
Mn 4.434599280617278 10.293878851903552 13.113201397287499
Mn 2.482149466615886 5.24483077890934 6.793885727439856
Mn 7.772649769829992 11.172942514166108 8.84922074291315
Mn 3.665783334652346 11.829807491978197 9.077055785889543
Mn 2.8564887516336634 5.460725211114579 12.774535536230392
Mn 3.3063313215992225 7.933563349883415 13.644467446017629
Mn 1.542195620803808 10.887003194417934 10.040797918447417
Mn 4.168115098656434 11.013555206426732 6.690008042009303
Mn 4.480760044779516 4.944434141948583 5.444684039927884
Mn 8.397117088116406 6.668734182303391 6.518968092715546
Mn 7.404293352230351 7.281027135069165 13.407235310313867
Mn 6.794940462794378 10.58572667208537 6.540794846257895
Mn 1.8665172812467654 4.051003681026929 8.884622404184215
Mn 9.014380210283253 6.020055802634215 12.098530159525568
Mn 3.4694060334963948 7.135878604866868 5.337135992909054
Mn 7.621713646143465 8.621107534078568 5.334134464957878
Mn 7.020609104009378 3.2181572036459434 8.600817672887807
Mn 6.103401959387313 6.721641476551618 5.194346037579255
