31
Energy = -215.55359291 eV
Mn 8.986515506548278 13.946388316996417 7.709835000067046
Mn 11.620487781214454 14.036640316416934 8.378440768487916
Mn 14.121351092855377 13.798338557330487 8.54662025780191
Mn 14.70093255804911 11.435599761895872 7.975438800809149
Mn 7.280354351164751 11.975674112786562 8.26631761043478
Mn 14.366681952449754 9.472532297181848 9.66678296561812
Mn 13.151923754138405 7.102886937909273 9.647658307181697
Mn 6.636250457486579 10.705072362237132 10.296340583149147
Mn 7.952950782136854 8.264391344239142 9.291863011094792
Mn 12.082618914231867 6.085679264279229 11.985329454301548
Mn 11.33167308922331 5.327935354220587 9.469424591476766
Mn 14.268231442737262 8.017661709441343 11.82240677737748
Mn 13.76047920472853 10.658146552258291 11.824587885885332
Mn 13.373422042024462 13.431604374799042 10.823317767451313
Mn 15.183073671839814 11.913723178065297 10.234917850154302
Mn 9.817258996004997 15.447050046327991 9.370225083501213
Mn 7.578162418342832 14.083045949117786 9.798566176165373
Mn 5.341052031938084 12.60569884061998 9.743495239084675
Mn 5.744807175613701 8.590543617998765 10.520794741285304
Mn 6.491347831912688 8.972406967567569 12.719536593572293
Mn 9.56538456375357 6.130087407500185 11.874718504549687
Mn 12.18465713560986 8.656892150894762 11.297421490618417
Mn 4.839266959409839 10.78199005605715 11.645833796979867
Mn 7.332901960478062 6.848319680804936 11.42007242678584
Mn 8.799594117008652 5.8285822833870045 9.584887869480822
Mn 10.042799937018808 7.537225316543445 7.991196566686196
Mn 10.307294024791 4.956878042459479 13.860015765148638
Mn 10.692426774317175 7.317323228458893 10.281799929931621
Mn 8.330209308526262 9.88791655390851 7.539636289080097
Mn 8.868041925443682 17.311550405371207 9.83917671770927
Mn 5.727063856137814 9.984139801246958 8.385926223564857
