34
Energy = -260.18242274 eV
Mn 11.355046176300684 11.628586441260268 9.445412840819152
Mn 15.827354693850433 9.209791362759432 8.758972102603277
Mn 15.976975958761356 11.941128587644602 9.134002346126996
Mn 13.675625747063748 10.577036277134253 8.514586264457618
Mn 13.611171577313302 14.533163371779168 14.69019997597656
Mn 11.182654016153872 14.131045335967343 13.362481772579088
Mn 16.071932778401948 16.282386378024587 11.730157301966257
Mn 14.288004367174388 10.15203525136067 14.647570877230855
Mn 17.679082607610017 12.038854908124632 11.088933529833952
Mn 13.474174042878976 7.638170841132324 14.070780604614647
Mn 14.526369768730348 6.539811422698875 11.70755689373645
Mn 12.113265078086119 7.809587500580777 11.82604191760549
Mn 13.618559335688209 8.215650944699313 9.735658047194194
Mn 13.737832820996088 11.262093999340378 12.558154568961832
Mn 15.1451079063403 14.749092543479602 12.995548503618537
Mn 14.353280811502191 14.657090754787278 10.46859506564389
Mn 13.248378271008134 13.580729487586593 12.421096357435543
Mn 13.096292179648774 15.986143804685009 12.417221405076605
Mn 14.97323804177372 10.468767285964688 10.585720664069296
Mn 15.224044960903472 12.557919609041537 14.197278986526657
Mn 11.276310260018306 11.878921251707297 12.085178049789686
Mn 14.182759919243077 8.94680671258427 12.361670783331002
Mn 16.060518391174693 8.402299454951837 11.178195965827497
Mn 17.66211036288677 9.958588541899015 10.229624364614503
Mn 12.590649478896708 12.19873728443541 14.386199943626353
Mn 15.526998684937894 12.744396820520896 11.620032900805805
Mn 16.752623696452698 14.291389666424354 10.332018426929576
Mn 15.500982095345456 6.769896432183008 9.239923754765345
Mn 16.277542263249963 10.547102114117273 12.703546372518996
Mn 11.974048643059888 9.74541038168641 13.577920104035453
Mn 12.609285146329617 10.108976955997182 10.892854806014197
Mn 17.225014525827795 13.749336851465543 12.95718253625678
Mn 13.478986053939012 12.379228063783678 10.239701936142302
Mn 11.74247317704423 14.197351634517675 10.743607034267749
