31
Energy = -210.21049499 eV
Mn 7.220505785817863 9.141087809962851 11.983831210111878
Mn 11.68468500307803 10.308769920984323 13.515390977492793
Mn 9.602243895832865 12.603324016547901 10.445482532380284
Mn 11.718237459760187 12.234597608115571 12.066640966563181
Mn 9.959431482110748 14.094039620008656 8.334503302298709
Mn 13.876944668170838 13.150695207649397 11.36678779296652
Mn 13.65805081258798 8.635227225696806 13.870076925050304
Mn 7.2870530084916965 6.700975244322618 10.564239387491389
Mn 6.4431660495403325 10.651031995563732 7.944231854216753
Mn 11.683112835855928 14.132149168620666 10.344900189045303
Mn 14.008241004592985 11.192996398249294 13.066445557408692
Mn 8.683088283211763 7.325780937015792 12.4481249799609
Mn 6.319377472121777 8.725041790450938 9.780898062844434
Mn 7.774381184709038 12.814478101991897 8.489481060368492
Mn 10.32661864663238 15.814396518569982 6.3463057496669135
Mn 15.91233073944836 13.76052471688395 10.061241178248128
Mn 15.258805318664015 6.882267306492433 13.013041774512216
Mn 5.571618758368537 10.191774190795398 5.53627903055211
Mn 7.360064256421651 4.603373445317029 9.417274215892775
Mn 8.251967787931944 14.35995654857066 6.602163971985239
Mn 13.895533579831815 14.6258463474924 9.28350915568614
Mn 6.601472992373987 12.395685261958647 6.368151960057099
Mn 11.967891617343485 15.502253822684782 8.17627229822616
Mn 16.070268829720067 11.853162932421641 11.742029065365585
Mn 15.681187768775079 9.37862829279699 12.499220258256459
Mn 12.777773653267369 6.16084580745023 13.5342061849393
Mn 10.208625674186026 5.670184184776413 13.494420342885375
Mn 6.021565511791802 6.512115572742074 8.368134600561497
Mn 5.759784955949728 8.66118574688213 7.351861459275616
Mn 11.026792274659785 8.000876645596012 13.554961580930069
Mn 8.492271929727096 4.886553374987932 11.837830352384305
