31
Energy = -200.86001679 eV
Mn 9.496915276112816 8.949154970263747 16.575648887543824
Mn 7.360106871066978 8.873632751326024 15.496560263248071
Mn 5.280581445976688 8.556796583825648 11.356333270934071
Mn 5.692011748853165 8.401015700269005 9.006819136180196
Mn 7.223388757402939 8.259045060564436 7.168355846969349
Mn 9.335660904216786 8.175691025589355 6.016178468212911
Mn 11.730652903765534 8.171972906790494 6.067627969097375
Mn 13.931695163345013 8.244406695770339 6.991707996064808
Mn 16.049826667866895 8.555552137180282 11.195053896437834
Mn 15.473850192862715 8.719590403006755 13.511162988644845
Mn 11.90147560263906 8.93225345663343 16.45326551083537
Mn 8.24769995480597 11.16743442641751 16.222055834238567
Mn 5.102810949003461 10.719683864520144 9.950486886689939
Mn 6.1527971316325685 10.540609061050443 7.669836905418354
Mn 8.098680824496524 10.436005833428293 6.076899435050035
Mn 10.532927142442679 10.3894712338134 5.481065245450306
Mn 12.990512450026895 10.419198734097716 6.0067133757008495
Mn 14.978428125724728 10.552671504403028 7.531111306204004
Mn 14.064584819108534 8.871098155262553 15.468186399246639
Mn 13.159543275638738 11.170463083959545 16.143515088751318
Mn 5.841011534852644 13.247481222381252 13.319201353088339
Mn 11.920642771544108 13.451873483280439 16.20319083606454
Mn 5.192897839107795 13.055803519169066 11.037252421185173
Mn 5.135875397994321 10.914401361139662 12.444305831044362
Mn 5.773381538341065 12.905577509457734 8.708248092265725
Mn 15.551686502745536 13.230606695499798 13.205623519917525
Mn 13.888509447719777 12.753487668677288 6.730771133676986
Mn 9.350586125494 12.673159131975059 5.773310560770943
Mn 15.960874183443792 13.056899172527894 10.876198340698176
Mn 15.480186385795596 12.877984570728248 8.530934412457974
Mn 16.10839966048289 10.71574428210078 9.78595012210665
