35
Energy = -229.22236127 eV
Mn 12.022328925032877 13.336853851214984 5.380017160944042
Mn 7.4705607103928635 12.217590926764826 7.732033830458476
Mn 9.57048834701735 7.72071806606024 7.241322391633182
Mn 8.055938185019885 8.329265357739366 9.391012290492668
Mn 13.556557139955334 14.194155653200715 7.23329798816169
Mn 14.204488399974892 9.942203825581956 6.723255306219944
Mn 7.128465875444448 10.559191929029486 9.39417717730314
Mn 10.843556208606657 14.833440602998762 6.863805443840033
Mn 14.010833179890135 12.172559546606148 5.862713315362509
Mn 9.319638189322095 6.2305582493854565 9.090296826364282
Mn 12.045839545189889 8.434018898056472 6.389223943091312
Mn 8.68534048188759 15.227759337735403 10.500398323293515
Mn 9.924991764268913 16.192678779267297 8.624384145850419
Mn 12.334935774983135 15.807864011551514 8.837820119594207
Mn 14.100130351603237 9.177776350063002 11.805506661891895
Mn 14.314810264307383 11.491242538893903 12.724163257067433
Mn 9.907606718025097 13.087656571945175 16.481642738390484
Mn 9.695633046015343 6.877103061338245 15.452364385503712
Mn 12.770908125500211 7.257662315868624 12.385695871648943
Mn 8.128292901821803 6.459588970062705 13.663336435301776
Mn 8.478415007973123 13.692268890606062 14.582547215637542
Mn 14.740408902468385 13.316012803570203 10.971409886923851
Mn 14.992586495023769 9.295348104946644 9.146381864804958
Mn 7.674759349563435 12.173119430681409 16.261843591381112
Mn 11.14932537357477 6.4490504129374235 10.733355556814566
Mn 13.431162449739483 7.350799061777116 10.0469832184912
Mn 9.665649755342232 15.159205730806514 12.863214994169079
Mn 12.032742642125445 15.782876729196218 13.246205534945213
Mn 11.167588420793585 14.333745360815938 14.920302840688118
Mn 8.521119043593034 6.4441485070323905 11.305595852441362
Mn 13.98698112540135 7.7214028980010045 7.664384994892033
Mn 14.586231510299571 15.016642115198989 9.21981194201736
Mn 7.422943018401985 7.785120991489524 15.648436575660508
Mn 9.219683490875386 8.497545879437753 17.220935443757494
Mn 7.199954492193929 9.822997573854838 16.773189147128775
