35
Energy = -235.12136861 eV
Mn 9.476388424966528 6.413350004233395 7.332815039695279
Mn 7.0844232847951405 7.12061322516552 7.531966207083461
Mn 5.202610327566434 11.694677249788274 8.718920113844897
Mn 8.979205262671142 16.598088202815884 9.630312225087637
Mn 11.550127920100913 16.383750829731223 9.60094274235556
Mn 13.812919286201804 15.340332964124915 9.4322827565016
Mn 15.779551015690167 12.22353160038383 8.724915234556178
Mn 15.229211753711548 9.67906974944897 8.008796046881375
Mn 11.815440110697882 6.555695225022728 7.411051870900263
Mn 8.533256714989427 6.315004418066943 9.48976056341535
Mn 4.755872189920332 12.264262866089963 11.031996189772375
Mn 6.1788582575874 14.709060351578232 11.0030902450116
Mn 8.215257328586455 15.815961943041218 11.83841913189163
Mn 12.631401998175635 16.438771318564907 11.669083058499199
Mn 14.437746023414347 14.672544757617185 11.644581659848011
Mn 16.20210900142383 10.287950720127608 10.366163408629285
Mn 15.224291507613824 7.751947394943288 9.835160761559072
Mn 14.21802778234721 7.236616021402741 7.511137616230595
Mn 13.114013745789025 6.328427296785004 9.672063073011051
Mn 5.502276748842565 8.135330160613451 12.012266320535224
Mn 11.7172143113509 5.671076738929164 11.884512412202042
Mn 4.932733779437269 10.636241137666314 12.993178063581261
Mn 4.91651441259041 9.943393903022196 10.440556698983096
Mn 5.666697884720398 13.120734859784264 12.780470181239021
Mn 7.008176174952219 14.838848083566283 13.884335321603375
Mn 15.887778722725828 8.435454878986134 12.192489570115152
Mn 14.190636285190388 6.439138372220864 11.92998082949219
Mn 13.390475005171426 15.053689103794923 13.750845336997687
Mn 9.419187711949167 4.977498092345921 11.264473387405912
Mn 16.034733174683083 11.074548754090124 12.94555655853492
Mn 7.236588944095155 6.210059404306696 11.717125772487385
Mn 6.519242075191711 7.838486192707923 9.903573820953916
Mn 5.389482349447062 8.999637144105968 8.11855452494902
Mn 15.60682421409341 13.642903261204475 13.539592946724598
Mn 15.630072769016797 12.713212884779933 11.161099095095341
