35
Energy = -238.26243889 eV
Mn 11.017187897999907 10.718236674440213 10.156443388307208
Mn 13.539033956546522 10.888952034886966 10.122718595118856
Mn 14.765774142254482 11.364646295826708 12.223127912922786
Mn 13.502584739725904 11.703492355060593 14.384783346426246
Mn 10.998681775153113 11.546163644229091 14.41311789450389
Mn 9.749862200882792 11.058171329401375 12.289802962390254
Mn 17.176437724260175 12.230285839205928 12.062017269549852
Mn 14.686590251237329 12.870593868835593 16.32602607700275
Mn 9.728994514546509 12.565338138111912 16.38740148854316
Mn 7.243495901103387 11.604001829878074 12.18395474847046
Mn 9.712617915009426 10.95853747739726 7.919452443553444
Mn 14.717657732460184 11.283047380663247 7.859348130547426
Mn 8.476109738752214 11.020734296430371 10.083604191996123
Mn 15.993153069835333 11.495359691645389 9.989287498943513
Mn 15.982621060900511 12.30952327284637 14.26067457040853
Mn 12.214601565150486 12.481393341679127 16.448934357831618
Mn 8.474399893886096 11.836193766302692 14.354028126822755
Mn 8.557941450922435 11.52716976806254 5.884204371246777
Mn 4.9845987979700785 12.46515262919754 12.021833364016091
Mn 15.727186972256579 11.98599139135537 5.777227000432355
Mn 19.31167818234565 13.373525808231772 11.841674261778985
Mn 15.703074130771522 14.286075614134605 17.954842325749915
Mn 8.57830570039077 13.841778710149963 18.06206564627092
Mn 17.054794699485207 12.1205768834522 7.733887654329291
Mn 18.33064924996978 12.618942452113282 9.841303327540047
Mn 13.42726658900596 11.502179837968761 5.67572350360808
Mn 10.91667110338198 11.34473270023394 5.710594820518637
Mn 7.290434008702144 11.503254029517336 7.835939703524546
Mn 6.016280339217898 11.83675021199918 9.99102480733875
Mn 6.012916511690978 12.624360962200196 14.132163252177351
Mn 7.275987369885403 13.113167946034801 16.2682444632467
Mn 10.904433077530962 13.73410396207326 18.28149823313225
Mn 13.415589089168654 13.891274932730175 18.258579370935607
Mn 17.065225398445165 13.728739395126553 16.144647173654224
Mn 18.33955037948628 13.40441089862038 13.968338086016486
