36
Energy = -236.68384203 eV
Mn 10.247663867363888 11.232279534885222 16.39740667048798
Mn 10.077331420482 8.748434814422625 16.392435715541158
Mn 7.743244722281404 8.209034876494423 12.606467201750323
Mn 6.89346013295367 10.441176893839607 12.576490896012738
Mn 9.181775774966807 14.63538379152563 14.059561556870502
Mn 8.539803211158103 14.251333031305036 11.47918662228914
Mn 12.03686958147015 7.70400887410315 15.217473879802506
Mn 7.7854472890660436 12.54646981836686 13.464738225274754
Mn 7.414949682207929 12.1502316813338 11.00965981071824
Mn 9.356028932359981 7.425636960009155 14.509136702731706
Mn 12.176376157359238 9.637157774739913 16.764322880420245
Mn 9.82228613361717 16.144357233556374 12.350879620638274
Mn 11.030454342836762 13.611510994740021 15.730676852674932
Mn 8.693620428047003 7.336921547479672 10.30465964239624
Mn 9.007691996847058 6.2038057706362375 12.46059983266586
Mn 11.344703471323013 6.268918177395504 13.182339459652956
Mn 14.88938999265891 12.63061642683337 11.451954840943454
Mn 15.155139237431912 10.28803747391822 10.556626583520915
Mn 12.537793938544084 15.495811898593063 6.56463493816299
Mn 14.115170781075362 14.718872656546788 10.506250641003488
Mn 10.460278121672602 16.104821421166676 7.634904569847334
Mn 14.688052353315419 12.38059725366154 14.254924552048331
Mn 12.520861629838677 15.651437158709728 8.944695855986998
Mn 14.052785869235583 8.357628496695126 9.571804108826711
Mn 12.11459055581632 15.708834937691686 11.473159735063726
Mn 13.83635122514118 14.51626316229218 12.937193226475245
Mn 12.772659865213928 6.349307459988256 9.016904482451034
Mn 12.790296776005189 7.893245696430306 7.2184587497286445
Mn 13.28763476911924 6.460960998481457 11.339343642906211
Mn 8.531906951931479 8.680413734794643 8.266686507002674
Mn 13.390119592235315 14.07018767991107 15.325828556448203
Mn 13.660290774280693 6.751931410532261 13.709598508664405
Mn 12.512189726434201 11.646445904881482 4.3781672195676995
Mn 10.389822612775854 14.888760666590576 5.456912816793784
Mn 12.558333646893304 13.95924240228187 4.6542016926195755
Mn 10.36961994561618 12.906901468338384 4.222072926989453
