33
Energy = -217.63235476 eV
Mn 12.74461512779088 13.96332601666693 7.112515350680982
Mn 14.109493722389175 9.687995838113483 8.295189301550153
Mn 15.06729253739264 10.630027073053 10.411919388752217
Mn 12.81349022419603 11.446374082736277 14.177154206118136
Mn 13.775131290397542 8.474082549938997 10.333915334569225
Mn 10.744174979843995 12.760862502379805 6.323019062995575
Mn 9.627045855916744 15.415049996151897 9.826634427260394
Mn 13.88585019147409 12.318918750974255 12.05451004880642
Mn 14.107104980164658 9.769938064109153 12.55990301096042
Mn 12.895826481470625 11.545726023250682 6.520103105337005
Mn 10.494199484724072 15.227190268650853 7.3580174469460005
Mn 11.222677868287466 15.198422478564138 11.549133197445808
Mn 12.819290970644426 7.655688845491987 8.161800665365462
Mn 13.034457035563044 9.314337191893548 6.4177969071369665
Mn 10.917861539394494 10.256189810771692 5.781886843301505
Mn 6.092112667374886 10.5287122792896 10.032893220559727
Mn 7.925736240528242 4.981123494671502 11.64207275147282
Mn 7.717172065362454 7.810234779314897 15.871126777925678
Mn 10.048002370206213 8.573291312148612 16.61132065663843
Mn 7.35088068603586 10.919185572389202 7.723403347582829
Mn 7.534739108900073 14.18848489356223 10.58165700771653
Mn 9.928226642457373 4.771083743179884 13.235280422803989
Mn 7.299388908917008 8.553296803423107 8.479439299045852
Mn 6.56488828307364 12.649142606057373 9.19333867380954
Mn 7.967157169102563 13.837131952730918 12.86254162373625
Mn 8.19668020496434 6.142582104242239 9.320144998221608
Mn 8.653748571926622 9.034402083769294 6.443066422988105
Mn 12.48794404338229 6.394518064713462 10.26476459576269
Mn 11.023435296815924 10.874506488666656 15.873601143795938
Mn 8.917120942379169 15.659675769000101 12.029206971336826
Mn 8.731220389508572 11.46772986881919 5.857457607021983
Mn 7.730524085625357 5.912570056104347 14.050309061492715
Mn 9.783873118070629 6.305427184353632 15.31708074918078
