30
Energy = -228.01800519 eV
Mn 6.124539898986552 7.496680515820219 11.700470172268995
Mn 10.175688242412004 10.957086324986761 11.170633192864127
Mn 10.368189726864935 8.310723139938133 10.776003937923159
Mn 8.583637279835761 6.873825059368124 12.31299868020865
Mn 9.809544050219172 5.808217947206341 10.414913082865175
Mn 11.08413716366515 5.89580227259281 8.30699838761206
Mn 9.797513419882389 7.734652694424354 8.517182967119025
Mn 11.642952332443016 8.325802523602999 7.175199337418115
Mn 10.825489871342453 10.226319347764033 8.573731848043387
Mn 8.716922394885906 9.905475220816891 9.468026379609677
Mn 6.140557679297583 10.047815489959447 12.660939609610628
Mn 5.850986545720083 7.083121057321105 8.946165348696585
Mn 6.3006440303619655 9.456624086712793 10.320233691263978
Mn 8.312400526045616 9.349262655357068 12.010945012967953
Mn 8.057352364791905 7.608998757829096 10.132714721193004
Mn 8.155552555565764 6.1157923861659 8.164745564093469
Mn 9.804858686387457 6.695175641292037 6.115455060144398
Mn 9.117518540424873 8.957033060262306 6.72219584215413
Mn 10.902742875565302 10.334882407428879 5.752024511145562
Mn 6.879131412512617 11.39639188983646 8.440340632217081
Mn 7.565111296209763 11.58638752263166 11.083463453334883
Mn 9.152688823235936 12.310600562353983 9.312304382325577
Mn 7.218309756350312 7.457101505436213 6.216574681819207
Mn 7.12678010945558 8.890147931100454 8.126112509634064
Mn 6.78306634592487 10.078991864660559 5.994576704850417
Mn 8.5799782577998 11.55947171261418 4.917380044136427
Mn 8.836067223417842 11.112935298338343 7.078531487935674
Mn 10.629006582847357 12.524989071198977 7.136662081065152
Mn 7.223789482137829 5.359246116510666 10.4646992902191
Mn 8.811244822000262 9.098818901186046 4.5047841507868505
