30
Energy = -227.78437175 eV
Mn 8.868262097359572 5.23810629379002 7.6325727534902255
Mn 10.827831461914379 8.234007597456426 5.481393466677216
Mn 6.587081344515821 9.00613868959673 7.146161573044362
Mn 9.998898405736583 10.804059786381929 8.969017857246087
Mn 9.109540838069766 10.084850916648687 11.167220072627956
Mn 10.3421139948522 8.064238584580231 12.020451609396975
Mn 11.551171334935276 9.462091276259288 7.611265685939703
Mn 11.038510153707092 10.481778659102293 12.660500942154783
Mn 9.15895155640881 9.277741662373264 7.318860091383017
Mn 7.276503810461307 5.557005619432817 9.751990585425219
Mn 8.623575664305624 7.292570968058327 6.141498507473092
Mn 9.817779591676675 6.098413463001206 10.07962635188083
Mn 10.578729515057038 7.016420228910958 7.648569687793023
Mn 9.331696315434032 6.387025691386586 4.261343550265333
Mn 8.739575250688203 11.758224816001436 12.662675764784751
Mn 8.061356910709591 11.995668666626518 10.052614901422823
Mn 8.109103533559729 7.46632117999263 8.539923288636247
Mn 8.967782586457522 8.949675165344736 3.980434088915656
Mn 11.9100982069157 9.763230043644 10.400726994222367
Mn 6.768369487025366 9.874441774542039 11.56062791550724
Mn 7.415524386837165 10.560846136156936 5.199674322257233
Mn 6.856649504494383 8.014291514284595 4.856057603261826
Mn 10.093931914735377 8.508301532881738 9.546435063223013
Mn 8.01336717404028 11.299173369801567 7.460536242767378
Mn 7.642803174496489 9.651056667290282 9.306266353019044
Mn 10.573235094763575 12.199447719915199 10.885152001468857
Mn 6.512833905550261 6.357997947882993 7.187506582496034
Mn 10.02996804773561 10.760315612525437 5.704713180946523
Mn 8.15227568789002 7.795742861508352 10.907484587922589
Mn 5.946186301913359 7.9118615639666565 9.547759476165364
