32
Energy = -221.80494829 eV
Mn 11.127514636850556 11.21579872485818 10.728455011280763
Mn 15.366014742898788 9.949434163378108 11.833358437082794
Mn 13.08725216980975 10.772863241969004 12.614725336016814
Mn 17.517811647584757 10.25722956261643 13.087797651549396
Mn 10.136937695988077 12.7963999045262 8.842975081161269
Mn 13.22371725542463 12.731149406842098 14.373752773306975
Mn 15.258913931001421 9.22418038615549 9.30365673612893
Mn 10.985557134301187 8.680992085386455 10.035443144490173
Mn 17.295403432391282 9.189601433560407 10.84658034277495
Mn 15.340591710885215 12.141636227255052 13.103911121235752
Mn 8.942378470526087 12.713481252042516 11.374780221070422
Mn 11.146531969061012 10.339866886007806 8.738486648273451
Mn 10.75222242419941 12.136404763725483 12.971333951294413
Mn 15.166499805197944 13.376750876699182 15.505097795661852
Mn 19.567526566736017 9.51366090914697 11.558631610207883
Mn 17.404740273506 8.599637093779021 8.08331599555516
Mn 15.456476520700834 7.499832610685436 7.132427934198479
Mn 14.069352146165432 8.817306305362132 5.042193873321972
Mn 11.756760901700153 9.361708350105467 6.228479271166305
Mn 11.479646608691384 14.081801993889814 14.407856421743507
Mn 9.626648080341509 14.398935045953564 12.96677717425634
Mn 7.838263100292401 15.09213804593593 11.561367932455935
Mn 7.979061477595163 11.914665055538904 7.092539045260392
Mn 9.905038694802451 10.889313830379745 7.057926552432432
Mn 7.626506907173134 13.453031641916839 9.22506300044918
Mn 19.334525167300225 9.621021763174765 9.14891966396665
Mn 13.084577819961583 15.151184072950938 15.802309277594494
Mn 19.812736185295336 11.340754136365494 13.573136360945812
Mn 17.613563979179812 12.191907488822817 14.614448265683809
Mn 18.107640521684093 7.248203895477379 10.109407183519275
Mn 8.823177049833635 10.636116084079585 9.455597665359525
Mn 16.58538543171331 9.492357103051226 6.0548337417303575
