31
Energy = -210.0200864 eV
Mn 13.224494853240943 13.99075210998439 14.3900155411919
Mn 13.006518495748358 12.062163824248346 15.588896323863516
Mn 12.413495546968347 9.809899437108976 14.462660710207158
Mn 12.530096078255186 9.631423621772587 11.688540362521062
Mn 13.102746855393375 11.925695845403494 10.770550403257412
Mn 13.413216270592986 14.300107390032196 11.908446208339086
Mn 12.23434995503495 7.712030404329185 9.920874516540378
Mn 12.416295991746477 12.347591922183177 7.939186588166678
Mn 12.787181909953363 16.640348037505724 10.75035738826548
Mn 12.578750716624716 15.872036254318974 15.742389699903073
Mn 11.814788420956662 10.957467945631365 17.432918915927548
Mn 13.373535950303966 16.459096104443887 13.34575747668138
Mn 12.5422828415266 13.798370775506124 17.131437319230923
Mn 12.255834518627774 7.476477590055645 13.062060868210134
Mn 12.609926420572467 9.971695152246141 8.862595266965313
Mn 13.112226333397334 14.347174494235917 9.371134475970623
Mn 11.812360019257051 17.43231264347102 17.38095034210027
Mn 12.221479216063091 18.93407568418731 9.732872956499877
Mn 11.037233356707876 11.587906447696442 19.650376695564088
Mn 10.6486885231817 6.109312419182005 16.182254055613654
Mn 10.75801017012245 5.934183363253323 8.75414626453189
Mn 11.678498725823525 12.699857510532691 5.2717861318075965
Mn 11.31200260660586 8.615639663082225 16.949287024345043
Mn 12.162650783389397 18.171794764358495 14.882371420377215
Mn 12.495434627054346 18.566386076301 12.207032920599797
Mn 12.558479927568914 16.680280052580386 8.425593788042676
Mn 12.366714681913088 14.549827350917754 6.975956177642086
Mn 11.921416801369267 10.527562345795417 6.525602537400852
Mn 11.524725025075181 8.129331922833982 7.589854035472571
Mn 11.107589961600421 6.108433764950778 11.200482800535152
Mn 10.733209300365635 5.468826942732665 13.60257155908398
