32
Energy = -212.29230233 eV
Mn 7.613786613490261 6.567521532624645 10.43863454731073
Mn 9.416350610785264 5.160809291322834 9.598171196141903
Mn 12.521760636094605 11.873034274355943 7.299516257693897
Mn 13.80109942585395 6.877459402331468 10.694458299387035
Mn 7.193425661828517 8.56955376914207 6.564540035428447
Mn 5.713334723969813 12.597127023355133 11.302812253617622
Mn 13.12051800623511 10.88350820289089 13.419622494200464
Mn 9.540061497660771 14.610313157781844 11.759855224308945
Mn 13.245148321256082 13.20521705810227 9.568063954686652
Mn 10.683138607071278 6.16020472110415 7.80466275136922
Mn 14.47013998056805 11.285987179066488 8.738630750606703
Mn 9.683242076438136 13.557523692001954 13.901926554014153
Mn 9.698156153180282 5.9518362551375805 11.907023417122597
Mn 9.96022770986785 7.170405545211379 13.992698739760067
Mn 11.620026155152392 8.999418249021335 13.888503547191407
Mn 11.707289733099628 5.7798593841682475 10.192514674785318
Mn 13.579170504906198 8.820306614226727 12.155997505289697
Mn 8.43291463205714 11.660542405707822 14.564965986776736
Mn 14.361693679953806 9.006217912103974 9.675820730275978
Mn 9.541178152679143 7.955126656583106 6.229287373139261
Mn 5.653647307726274 10.357556385321033 10.266712314808709
Mn 7.879409300954918 7.6955123663725375 12.776074638732918
Mn 13.073108432744586 7.10126131770265 8.378727380287714
Mn 6.02749672491627 8.226485640764853 11.31672425535446
Mn 10.399196746508908 12.233821459573194 6.153321834030391
Mn 11.249232348779419 9.928033312415362 6.073629229706904
Mn 7.368043110896716 14.11337898489995 10.255849253153006
Mn 5.885363144513698 12.503525593197566 8.936191204768523
Mn 6.416241564858929 10.669801390190107 7.485446617164539
Mn 9.365109477088858 15.08537867738478 9.3157312690087
Mn 8.71918740053826 10.499298147458008 6.253765208069181
Mn 10.91817619626387 13.759978724947496 7.948887742930174
