32
Energy = -216.60338088 eV
Mn 14.039829860296475 8.772316808144545 9.658864632566036
Mn 10.657395806439814 13.31129286621085 12.527533543774533
Mn 13.2803869579188 9.947954982762269 11.724638756460044
Mn 7.138102390774991 8.21746161179147 5.623018370279102
Mn 11.473108204390812 10.404345995343956 5.781773420637856
Mn 6.074824601223171 8.828634631977357 13.290368010369862
Mn 7.7219264329431425 9.84230467418579 14.736383633858718
Mn 9.410376838709718 13.670857076194432 7.91884011536689
Mn 7.524190370937213 13.405937608192747 9.519393160874692
Mn 5.547517269644282 8.747597063551437 7.360798833866025
Mn 12.845566509577862 7.1091063594085675 8.417267858891053
Mn 8.208422646655915 7.5492825273638955 14.085470962021423
Mn 7.0752892987515175 10.567516902871409 6.2158094423149315
Mn 13.688616806800002 11.107553093851916 9.536913119759747
Mn 12.32001972594309 12.41411419431068 10.9993402639158
Mn 10.16684530788865 13.707649793422057 10.181726329141405
Mn 5.456965407115005 6.87938751902765 9.38461179257595
Mn 12.940859306372886 9.727760118419965 7.611542474165121
Mn 9.53319842515613 11.767123062883735 6.3135860597210645
Mn 6.728307424408766 11.395267794857688 13.16399514158391
Mn 8.267693131092868 13.241057405457138 11.989661628896604
Mn 7.380227727667146 12.776338351948647 7.135939625258062
Mn 9.312594379970225 9.326055959545037 5.496836868900028
Mn 6.914491132816123 4.968164929523262 9.22380840556863
Mn 11.323238075663447 5.288844431353395 9.565173784810947
Mn 10.129730987500787 9.378039963225143 14.442038197309227
Mn 11.664919963061132 11.194072455996515 13.281736618500881
Mn 11.474946970162021 8.030079197944742 6.321587479410884
Mn 12.412555865168489 8.937766970249633 13.746857020300052
Mn 6.907963609493396 6.456348445685181 7.320856145566684
Mn 11.24872243741239 5.764831979945961 7.1986239627005375
Mn 9.05582306490231 5.170184235666335 8.140250618249835
