34
Energy = -260.23293669 eV
Mn 11.196910363262651 10.134348485454234 9.24542167334991
Mn 12.652179182773791 6.163693020748673 9.551115776874619
Mn 7.240493474632385 8.06257120944598 7.718833943117198
Mn 9.309771937064593 2.6586379434808087 8.726110234950996
Mn 3.7798869322905744 5.469227286147028 8.816654890099766
Mn 8.040632183480751 4.044543776901475 10.10924835410472
Mn 10.368392335215907 7.32097565140315 12.875515011365135
Mn 4.125867608626295 6.649143275761766 11.237220042801862
Mn 10.029580305736083 3.2899144708791117 11.290821262789606
Mn 9.047113877216548 8.88813132596632 9.22685117147803
Mn 6.790523056228954 8.904996984793902 10.357186599655225
Mn 7.5705649150044625 6.534847892668993 13.595610320657636
Mn 9.975013373927277 4.264562912846232 6.833101079344713
Mn 7.776544350300873 4.6118716288113974 7.824868241829243
Mn 7.77663911333014 6.4739583308040265 9.504849717449769
Mn 11.710731712169128 3.866151396872805 8.74811944086043
Mn 9.771628511142989 9.606981564608079 11.53881729456621
Mn 11.429462665571076 7.924168197701776 8.704303118260212
Mn 5.846521449429552 4.9007261313703205 9.662675513174058
Mn 8.918642374592213 5.420315221587033 11.900132727509957
Mn 6.015230462460788 5.961315564017921 7.240883891506875
Mn 12.072453910954664 8.233974993260507 11.101148372487234
Mn 6.387172936191709 6.312204039927945 11.432491742073333
Mn 11.492830393116693 5.316316206328175 11.451587332748185
Mn 10.154890449033292 7.160858169150153 10.429288297258537
Mn 9.464039184077917 6.711716295502455 7.848704679395389
Mn 8.310694737047626 7.784985526673175 11.593181425139347
Mn 10.014083961039232 5.104179699100789 9.430488237243939
Mn 5.313497960947266 7.487975131375249 9.249116302378567
Mn 9.826317427645483 8.84676938982912 6.907758685229966
Mn 11.677068942499888 6.062382216697348 7.194215507290393
Mn 6.8566272449946934 4.13384349971614 12.205467731520088
Mn 8.41735573905818 6.264585987101318 5.890854786290037
Mn 12.39554619105945 8.607715786382201 6.8275152138379855
