5
Energy = -31.80527081 eV
Mn 10.039123469076864 8.432874518616464 8.332950097304131
Mn 8.660018583894743 9.157215156753818 6.248767031887051
Mn 6.444780295946177 7.95773662545149 6.112126300581992
Mn 8.085716848822498 7.423575814329208 7.79435859500478
Mn 6.287663745203024 6.064504996234183 7.860164558834436
