5
Energy = -30.51745824 eV
Mn 9.073290022467674 5.549613140403696 7.1292379855381665
Mn 7.624136687353988 7.44648452856368 6.708007913681966
Mn 6.777975412776083 5.02645226013509 6.520745669431995
Mn 5.477827679415589 7.874741311280244 8.16946672234254
Mn 5.364027694032043 8.407506640125904 5.779883703090214
