5
Energy = -29.61237485 eV
Mn 7.3011260947770324 9.127335183263794 7.243179338576394
Mn 4.753883098131734 8.790263154026919 7.469075864296991
Mn 9.021708798157299 5.246864862756589 8.682412645960417
Mn 7.1716994005885235 7.384335993997794 5.6366206395487355
Mn 7.480788012621611 5.179069970828782 6.688498288288731
