5
Energy = -32.55450879 eV
Mn 11.010075529415678 8.243115636820164 9.790945151307207
Mn 7.908241627865542 10.577201963661858 9.096809702475399
Mn 10.289258179566147 10.49975283447782 8.876509759950403
Mn 9.071370662974669 9.444264167944516 11.012335671656333
Mn 8.800970972357195 8.32052080343015 8.445665734417572
