6
Energy = -36.99457433 eV
Mn 7.077519377146943 7.061312385864364 7.0653653018745
Mn 6.938524011404679 5.8033752186292835 4.909862133060347
Mn 4.722435448167656 6.452774380602503 6.418938044733672
Mn 4.6678868880451025 5.674478133777287 4.106783726934618
Mn 5.433877449501488 8.884304222936501 7.031198264772954
Mn 6.385877044287789 7.062418637927977 2.9467203958085646
