6
Energy = -39.39597322 eV
Mn 8.79308964343207 9.388562419469519 8.685814221851594
Mn 9.717428268134325 7.247808142265819 7.5478796097080725
Mn 7.584788596480148 5.795195644125664 6.760716225097038
Mn 7.490665033462457 8.176401308961314 6.977792944811513
Mn 7.480231110838107 7.301296110337675 8.614267637271478
Mn 6.028275227790634 9.254512916022401 8.600896620140578
