6
Energy = -37.91899833 eV
Mn 8.444403634165687 8.321371096160023 8.310807660863851
Mn 9.777913698684133 9.786607965521263 9.525313039075822
Mn 14.008878128313828 11.479150183411221 10.871361248930208
Mn 11.744712951831117 10.845715425576437 10.381547807502582
Mn 7.3735005204244715 10.187943915270663 9.87450627046519
Mn 9.432472386675284 11.553120438690012 11.012568603216538
