6
Energy = -35.24416297 eV
Mn 12.063393641218566 9.918057757584247 6.046614497144838
Mn 10.51096085348281 8.81782441832764 7.477958504656197
Mn 8.054953242612083 9.402189259200082 7.49297252565466
Mn 5.46256775505755 5.596110330761035 8.340494839873603
Mn 7.917233817618259 8.308883191712184 10.75169325154351
Mn 5.804227037930394 7.7709727828762025 9.70058467844319
