6
Energy = -38.15337081 eV
Mn 7.461913600936552 7.43133075678118 9.747968033431407
Mn 9.41675042377482 7.521940502947611 8.529201229246185
Mn 9.716407312047254 7.680874062794879 6.26264504181628
Mn 4.548746957024428 7.642010151643082 6.76625403682447
Mn 7.197092618607304 6.296134895804864 7.0397293237781
Mn 7.191750764064763 8.939195844020349 7.226370575908044
