6
Energy = -34.43173536 eV
Mn 8.554376763682193 8.835591089237772 14.615817402605254
Mn 7.243398683250312 7.495000242551012 16.230765285518594
Mn 11.13200215633585 10.503132411298607 10.960017886117326
Mn 11.213131284084284 12.113601168788731 7.033600384320495
Mn 12.394283883970083 13.140521303736092 5.238256573173391
Mn 12.431627097574568 10.87951318135073 8.889190747305497
