7
Energy = -44.07846545 eV
Mn 10.993596849498989 10.477563704557191 10.199303133549654
Mn 10.034877741731886 13.870205170087493 13.564128627612774
Mn 10.083040917119096 12.110807127622612 11.847678650120306
Mn 10.676361933822982 12.817218660285326 9.46594616564843
Mn 10.241447436610573 14.58022055962005 11.184563359581556
Mn 10.010889069292345 14.184422643838504 16.087926457440528
Mn 11.703773173813577 8.119759067130646 9.509756816003742
