7
Energy = -43.48073626 eV
Mn 11.560553328365186 9.184966917339457 9.302634097000903
Mn 9.4141693914982 8.152668454440068 8.342636919964615
Mn 8.365439626720857 6.156298327783316 7.363119357081363
Mn 7.190050272328109 8.235388649099091 5.742732639491533
Mn 6.619426514356716 6.461709502291559 7.340175699647356
Mn 5.9496117192710205 7.9151255878228 9.508363273206797
Mn 5.859840514237595 8.852712626619544 7.357527977099021
