7
Energy = -47.45220135 eV
Mn 6.999534886655879 7.6052177476869725 8.101318663931027
Mn 9.347030916857527 8.451765967319105 8.597002522185333
Mn 9.608282006271189 9.319162780629851 10.982129291925563
Mn 5.525209724011215 8.911519465510137 9.799419847490483
Mn 7.181648184650244 9.982506530686592 11.64707729543339
Mn 7.7442118791392 10.031626857631176 9.14018996826979
Mn 7.669865090371732 7.909616237142628 10.436218186218984
