7
Energy = -43.25485209 eV
Mn 11.4975319901327 9.038245700486298 6.911644023823963
Mn 9.128142713693963 9.852465077212418 6.582419176540891
Mn 6.128379160307396 5.971510096586244 6.037600145605991
Mn 7.838144781703999 6.346107069156738 7.74388512314807
Mn 6.605457397789215 9.400646973053139 9.091001047669147
Mn 8.0646477749994 7.49457148529651 9.91074631307889
Mn 5.781675678444976 6.932521781398546 8.762789754076966
