7
Energy = -43.90957053 eV
Mn 9.980719236640985 6.037245235172648 8.441261449694405
Mn 8.334472416600393 7.856035989697579 9.159228450044933
Mn 7.717133418547222 9.490146705260218 7.346608948448485
Mn 8.463266708167271 7.082964393408477 6.6284118712378
Mn 5.970652079634149 9.473754511738695 9.297655466525423
Mn 8.71874750036046 6.291325609209335 4.572631636272363
Mn 4.6133705018596585 7.563499879369154 8.365756259520428
