7
Energy = -47.21964197 eV
Mn 11.414759908921093 11.17893398202457 11.413382347408817
Mn 12.00774434391716 10.281346683867651 8.985740868877198
Mn 10.493408663772449 8.799064190823263 10.587631458042448
Mn 9.698101585921506 10.979004952331739 9.581850976033175
Mn 9.870114077995602 9.043964246145492 7.987913491821662
Mn 8.954772766616669 10.544105093945479 11.915846106758549
Mn 7.978855506530163 9.178751102978715 9.75013900428781
