7
Energy = -43.67532788 eV
Mn 9.562231695005728 8.102059358843853 5.207366295128494
Mn 8.624387609674342 8.767811807759427 7.284962963680724
Mn 8.542289607515944 6.328237954953316 6.960075626670591
Mn 7.46806559988169 6.758085971650964 8.919532215357084
Mn 7.299723864115328 9.225758678222101 8.731965456486522
Mn 7.1815525833086555 8.004955226812267 10.901746737978325
Mn 6.294419160785234 7.787913980424659 6.959382146911606
