8
Energy = -54.21305329 eV
Mn 10.825930487362825 9.186065963801699 9.478353517481315
Mn 14.702518538050406 8.398772929474857 7.839955334461128
Mn 14.802020137617387 10.498425474923913 10.070565511483972
Mn 13.052517053410085 8.228170511275925 10.175704269240645
Mn 14.971875119462686 8.58964611218562 11.489178486393158
Mn 13.111463508402156 9.772258211738489 8.729216831579645
Mn 14.884986464866724 6.844336008061823 9.64703855947505
Mn 16.455742219549347 8.915599584479594 9.375922681076823
