8
Energy = -53.93575108 eV
Mn 9.805792945255758 5.735767230001112 10.203390076889939
Mn 8.261268439947921 7.332697226622219 11.53386073154071
Mn 10.404916081392559 8.240097567567057 10.500280985019746
Mn 8.288393585493042 7.485227029692987 8.975224547223227
Mn 8.982436447680971 7.935266782759943 6.296984074411052
Mn 9.907753853141134 9.088112599827248 8.311268130525095
Mn 8.20773115289665 9.668575681572177 10.294651727220526
Mn 7.600085123038635 9.72851797151533 7.65984854858143
