8
Energy = -51.18067252 eV
Mn 9.683407172342871 10.057613804092666 9.680755018617562
Mn 11.20035125433572 7.784922797207875 9.43453045364543
Mn 7.221563071717601 9.339309653322605 9.002882333259839
Mn 8.342587525984326 8.078035185349401 7.268906646978496
Mn 6.566383012376114 6.621235205318225 7.681059769957442
Mn 6.0333309039177285 8.957678779144189 7.046399523456611
Mn 6.56414912455528 4.489159496246143 6.757877032668454
Mn 6.667384156327547 6.959714635237362 5.409042256964933
