8
Energy = -54.62931273 eV
Mn 8.14789662911538 9.179804199586108 11.573040959439155
Mn 10.633920668309486 9.778079775070768 7.809069429700355
Mn 9.289289385366619 8.033291656156047 9.365233787826542
Mn 11.0853550890551 11.685556083212388 9.655367409847868
Mn 10.306204215903492 9.710326925958915 10.671602353341079
Mn 9.361384828199752 11.620374165672386 11.775340167492034
Mn 8.653131807046858 10.639902569187527 9.178528632391258
Mn 12.000768273488278 8.944730565996979 9.617655003245597
