8
Energy = -50.70304461 eV
Mn 9.931305055352174 8.557105573993505 5.32355601920589
Mn 10.134253485615474 6.16475556002529 6.067056431911965
Mn 9.137165297800795 7.8471385000908915 7.466589405995229
Mn 8.870243453361288 9.922087374864075 7.251114567937984
Mn 7.487584204722575 7.658604826900911 11.77541820652029
Mn 6.879866200388623 10.71177071592551 8.328898531565232
Mn 6.79355279663287 8.640439870688214 9.736727655087158
Mn 6.561802178652499 6.288974549949284 9.839945974147223
