8
Energy = -55.14550403 eV
Mn 8.198237439779295 7.543330196653343 9.77803132073399
Mn 8.35755753135199 6.274774257261732 7.656698113385926
Mn 8.237516410578097 6.938752476657781 5.3866948414544185
Mn 8.320292335091173 8.76278118595618 7.304509393241741
Mn 6.669024152909821 5.366488763183711 9.22419273807908
Mn 6.191215201800809 5.7055513632625505 6.520843841863953
Mn 6.282237636410722 7.585092784051709 8.194313577211114
Mn 6.112281457864218 8.281867913156045 5.926856189515625
