9
Energy = -62.03700033 eV
Mn 10.305764760123395 7.373513266109189 9.501343922255083
Mn 8.55811822218006 9.00543683121861 8.53265456241306
Mn 9.127449389861981 8.881515418933107 10.902012231248055
Mn 7.909998227321142 11.056721192073455 10.15103639215312
Mn 9.93118927824707 10.784717771593868 12.276689286391763
Mn 10.20604283508943 10.708858916003287 9.923445957395675
Mn 11.126989084580636 9.467194153054596 8.311877683405791
Mn 11.70031851935152 9.120798289703291 10.935649301713527
Mn 9.205027704673212 11.34016698567636 7.823182360946566
