9
Energy = -53.06631602 eV
Mn 15.178739739564326 12.673536913529857 9.926837119341828
Mn 18.595838497739706 15.41470851129949 14.062552511269258
Mn 19.321395959691113 15.415252378211697 16.465932822595335
Mn 18.243424060374693 14.550722934790887 11.611461931454349
Mn 7.418258348371561 11.22468925072438 11.85800348994521
Mn 7.211784665468619 13.7654740348828 11.377958754661504
Mn 15.557684079793885 10.907343675775246 11.420541122571617
Mn 6.626916395864986 13.07345646667868 13.59974773564986
Mn 6.427667578788692 10.703342148486097 14.001163607392696
