9
Energy = -61.91306326 eV
Mn 7.092126076454802 7.237135513451944 7.057153605586078
Mn 8.290768940818802 5.640318850024192 6.032377874039382
Mn 7.880529881248699 6.302938449935766 9.25168562767069
Mn 7.372314567398766 8.74801110789277 8.597796459460177
Mn 5.920789020734612 6.972905058528893 5.158833833936007
Mn 5.970297106054688 5.6651778473805745 7.742412948502556
Mn 6.314758747202687 8.068610765075398 10.51043208193913
Mn 4.959247869547214 7.92455829516219 8.205296819325428
Mn 5.30556462157278 5.9032150520964 9.968187266649096
