9
Energy = -52.79919289 eV
Mn 11.584640740866128 5.584416003523651 16.236062780185826
Mn 11.3338506636548 11.952833207173517 8.087281967381404
Mn 11.733387812215858 9.824855199629994 9.053608934253198
Mn 11.654194724839193 5.630504907297292 11.500078728697332
Mn 11.706917405701706 5.296986629482558 13.846134614811072
Mn 11.33153217571743 14.116083905961277 9.131642535262047
Mn 11.469437270877343 16.15392162097241 12.968219672818565
Mn 10.848984686739657 18.156859664328014 11.702319790863303
Mn 11.238314363009636 16.181202486391832 10.385883843041125
