9
Energy = -61.04454646 eV
Mn 8.692959897545986 7.989832001438198 9.035412963831906
Mn 9.594056846216015 5.862338598821056 8.161907629052772
Mn 9.718117587874211 6.919412266784807 11.180227067177618
Mn 7.056299773463946 6.212628203549519 8.108114375414804
Mn 6.563991765943526 6.8651709822882205 10.73298045910174
Mn 8.269613087972937 5.674754109800031 10.05972585507227
Mn 8.010827162022183 3.7874880225581755 8.925249074200675
Mn 8.036993547733552 4.4350643867035915 11.853144549383098
Mn 8.018322541755241 2.8880184768464536 13.691588642362262
