9
Energy = -51.34064533 eV
Mn 10.49898467020112 7.778320756230544 4.971338725624732
Mn 10.239185064380832 5.9868701206878745 6.426704820043851
Mn 9.915377460609779 9.173123393138361 9.812025548912983
Mn 10.325834942999732 15.736643178715335 8.532573879043015
Mn 9.532019688691953 10.686121918964659 13.157510334156196
Mn 9.381982100084175 12.518065368113367 14.82518550036
Mn 9.253538980580617 8.276411199489685 14.60425115506618
Mn 9.941813688914385 5.902812125725008 8.701814145595971
Mn 10.262238436094956 13.293120647122018 8.3371968278311
