19
Energy = -37.76014031 eV
Ag 11.64895764358194 7.379500729018258 10.675876787641092
Ag 13.122019581176497 9.54638368289753 9.608878711853697
Ag 8.80901569163697 7.477112127565512 10.493235470067283
Ag 10.325926980452515 9.519205022391233 9.347391199070184
Ag 14.083076146979556 11.23100122518983 11.631448853870042
Ag 11.805065718191035 9.728005106393274 12.112155924408281
Ag 9.106463802497679 11.407570861444595 7.631508949020175
Ag 11.85332423637114 10.90706592358541 7.439545092443312
Ag 10.081624091771854 7.706753723996319 13.01640382546633
Ag 13.678428023288973 12.257521644349005 9.0950365966324
Ag 10.168854881573928 10.298235165147917 14.252564798614653
Ag 7.5013582039441635 9.637775753490423 9.27910670307176
Ag 8.753311189931896 9.914302505056988 11.838063888401175
Ag 10.907588318854748 12.501084567694598 9.500442049231033
Ag 12.545991931495742 13.561460699169626 11.436990675339588
Ag 6.456895322436308 11.977986816365362 8.16510927313784
Ag 10.163096306229452 12.31520274915835 12.223483517794488
Ag 12.419589587839537 11.980402216911578 13.778789131777799
Ag 8.248208163037853 12.16822666514378 10.242618436920315
