25
Energy = -49.96032200 eV
Ag 10.78465838469754 11.476759208369511 7.458527602119273
Ag 10.980677308787735 14.410874812029236 7.726427055019833
Ag 13.154876435565729 10.236447186210619 8.049474924131875
Ag 10.923255137428438 8.52373205307464 8.140363145491268
Ag 12.763105372387336 12.828860387634082 9.06962098899571
Ag 8.46304722937777 7.4877146120402065 9.007323664238749
Ag 8.926157440019189 10.208660952009703 9.250990511429244
Ag 9.716668369259528 12.837224783289573 9.599044100602976
Ag 11.526079271700791 10.265195693371997 10.367655741413348
Ag 11.406329195714818 14.86767225165433 10.508901670715531
Ag 13.19698131989539 8.06314378874362 9.798401640440117
Ag 14.319478172272891 11.066817850190182 10.435530818938146
Ag 8.809203700695901 8.594438532057437 11.470743858032266
Ag 8.819755604892624 14.424538914570457 11.695125970288029
Ag 13.748850633928393 9.071993115148402 12.310483504444736
Ag 13.649772311521243 13.666117274879005 11.682746375072623
Ag 9.589430092444111 11.46709507125157 11.948876955674105
Ag 15.26139362779246 11.58430771681539 12.969355434711424
Ag 9.091470750951824 7.238706369280965 13.811943206415888
Ag 12.520269287846606 11.466470981562914 12.817537182406594
Ag 11.096914601407361 13.833553681364869 13.136753430693572
Ag 11.028230869471695 9.146681365478523 13.139680289107586
Ag 8.34301516079584 12.85406040638754 13.959691514574336
Ag 8.377473763933342 9.947772517820283 13.994078770896563
Ag 10.589095184544707 11.517349702097809 14.736910871478637
