52
Energy = -114.03991754 eV
Ag 9.584467334210514 11.05991348787217 16.407790983678932
Ag 12.522115180447395 11.236411293059465 16.647869354612386
Ag 10.984951912277374 13.653489633629533 17.08315129195598
Ag 7.090583084382961 11.452376621058743 15.240910303636063
Ag 14.329279823490015 9.127715569285302 16.425461578678163
Ag 11.281639355803897 9.240704463724803 14.921927290552297
Ag 8.679773283263064 13.78859040039002 15.499230211266509
Ag 8.783640280495275 9.726209914754222 13.85284977041605
Ag 13.39873640345104 14.027022877618494 15.560840575522114
Ag 15.141582891544168 11.77105210514253 15.558936031127168
Ag 11.119034990349437 12.463514148980343 14.615343143423082
Ag 6.38050757661628 13.703579371551987 13.820440791578715
Ag 6.52619391099079 10.948345401024568 12.473959646143058
Ag 13.607535871167574 7.369087791595671 14.295075796816098
Ag 11.02506051912427 15.329306631215815 14.635359562877422
Ag 13.626745135749083 10.062457873241215 13.882169662536121
Ag 16.180540918804038 9.043698837435377 14.245930403053347
Ag 12.138649565706148 8.327790609977196 12.04466483074932
Ag 8.784575016080678 12.434463841636498 12.923405683469518
Ag 11.19374797994247 10.892071825780713 12.366093096515513
Ag 8.60788554335268 15.345308448563507 13.039247530811787
Ag 8.906338027155181 9.897057008845712 11.055524709265816
Ag 15.760783653822346 14.155593905836065 13.998512474858869
Ag 13.466669648877103 12.64317598823875 13.092806637811924
Ag 6.976867150536294 13.808640671689371 11.13773942808367
Ag 15.040421548487645 7.743079076802393 11.907906641229582
Ag 16.176967612151433 11.575651901815013 12.976924511506997
Ag 17.364182182898755 9.513054403601938 11.709347433988283
Ag 14.271797746030748 10.333470898998828 11.181676335772814
Ag 6.971500223690168 11.374532125940695 9.75108703985404
Ag 13.381372739258227 8.000091933815924 9.566894641685717
Ag 11.047085575914814 13.951114333976737 12.188994125085136
Ag 11.376289086178787 9.949739445467523 9.636966022737358
Ag 9.762485152252472 12.490204443060508 10.142165771331156
Ag 16.022870717722476 8.88093111907977 9.384836841385921
Ag 17.869366262673434 13.365729490763036 11.74782651007934
Ag 7.669199894148758 13.708298798327084 8.447049559542673
Ag 13.494054638043435 15.486028197359992 12.632488624372323
Ag 12.663462195016502 12.43872232472104 10.361103638968999
Ag 15.115834184994625 13.61349281911263 11.149309580326214
Ag 9.21691550545959 15.32922761901183 10.256213589451294
Ag 16.554363019711314 11.616858832575577 9.80074942673923
Ag 10.979503017688735 16.69732955831175 11.994446277522707
Ag 16.498571870069632 15.920307872298462 11.94842392210992
Ag 14.13616460896833 10.68941145901215 8.411933750880728
Ag 9.17025713421026 11.133339638850266 7.917811632638163
Ag 12.054930587148942 15.153432421288564 9.776543416548389
Ag 10.266289095895512 14.23279420008724 7.815512935004476
Ag 16.926047193778654 14.45435176448428 9.284483459318196
Ag 11.85973710301915 12.040371055505645 7.68936472723614
Ag 14.622311033261937 16.07595730973999 9.925546858021931
Ag 14.285163281304648 13.597837169415476 8.417702287715802
