22
Energy = -44.39275030 eV
Ag 9.411039817109202 9.628251611696422 10.726028990375292
Ag 8.361692818932191 7.022175496923509 11.76051059663658
Ag 13.638707063787658 11.565551859724383 9.554737659184957
Ag 9.219638179927404 9.282324171390608 13.464500887633028
Ag 6.769245850839598 9.279526949519589 11.79009956461436
Ag 10.833459456390294 11.54151184226372 12.57172126981489
Ag 8.0984489858125 11.65603314398494 12.17013204678099
Ag 9.708709918052767 12.577594103031261 10.127090774121397
Ag 13.942378548482028 14.368777320259705 8.973220473291512
Ag 13.634163730459527 11.319575587685398 12.393258657140903
Ag 11.312562512208192 10.32592454476967 8.499066119714888
Ag 15.07651611260769 13.353003427721049 11.287362368883693
Ag 12.405109518965888 9.319498863413813 10.822616840801192
Ag 12.219026586394651 13.44456441012096 11.036897402963849
Ag 7.348194144879048 11.01552802716006 9.453655269981319
Ag 8.93068999354145 9.250273779398837 7.654481453949497
Ag 11.659443637054759 13.114953597584279 8.199866331030945
Ag 10.355769892871281 7.529590889879189 9.375126754142071
Ag 12.101723384853274 9.3304135063276 13.653656318577628
Ag 9.219493209509741 11.964352795977273 7.472138237898993
Ag 7.248201920701693 8.019144944267032 9.38271248181062
Ag 11.033528205324817 7.314980180405782 12.116859320931878
