9
Energy = -14.96306238 eV
Ag 8.567581061741578 8.401479643737995 8.758525686566607
Ag 8.732888742466892 10.709533051546064 7.350763279014926
Ag 10.377852953723723 8.084866532784044 10.839972952145327
Ag 12.629273044297342 9.742818155392156 10.743862994871524
Ag 8.367146743481703 6.253475206423673 10.43069369160705
Ag 10.885926388176136 9.960579978597611 8.691323743729795
Ag 8.721161530077458 10.262991002496438 10.928444993188347
Ag 10.932515016451784 11.947397552414449 10.68052304195449
Ag 8.588233030336765 12.546383224039243 9.456917494567808
