35
Energy = -73.00025108 eV
Ag 13.581270748380806 12.79429309044257 7.356808732103212
Ag 11.400779750688091 11.179130009433594 7.979785178627661
Ag 12.129731874434807 6.391100354156969 10.701846781241679
Ag 9.0220438102237 12.577557509186445 8.252807639341526
Ag 13.967697507220556 10.383466404190138 8.755193915115038
Ag 11.757029267370259 8.718864755154858 9.189427546382909
Ag 9.35840748329665 10.143683123996247 9.598935606726467
Ag 11.381152017177756 13.997659016179744 8.557851897834313
Ag 15.841248472499041 12.489007852631616 8.902991179749959
Ag 14.038383484266104 8.44687185161788 10.787565092741033
Ag 7.545380796016546 12.105858595142216 10.526404075828008
Ag 13.937163022679252 14.466673138940692 9.585550775190054
Ag 15.730798828897436 10.615286032425022 10.928471399752596
Ag 12.432015646193511 7.935046414414427 13.024576165268076
Ag 9.32580036727618 14.299383081364331 10.43917674514197
Ag 10.144098305237213 8.171408873596752 11.420979313178043
Ag 8.14982117171487 9.901201687230458 12.129477225352296
Ag 11.700846487309223 15.805549947940028 10.622572913228487
Ag 15.699026749858364 13.418745435938675 11.497821459082832
Ag 16.619914148456818 11.596680959569518 13.357390644305905
Ag 8.127854768870664 13.516997752293696 12.864510696440993
Ag 8.260078672452975 11.293105694079381 14.5520192451109
Ag 10.128336971273841 9.232577173191258 14.013817876094983
Ag 12.056273220643087 17.358453119573937 12.923715017724305
Ag 14.76984298546362 9.4577702601427 13.29725872373186
Ag 13.979805448314336 15.449999075676336 12.203602801885797
Ag 10.10282981223475 15.402245896769148 12.889178818623007
Ag 12.653517100598938 9.736564551352565 15.107208734328985
Ag 14.74375007725362 13.563382282905303 14.128881023957643
Ag 10.103486774833735 13.416479034842693 14.863747425545817
Ag 12.386542904135661 15.038216203749911 14.466407179010528
Ag 10.429304107674751 10.967777697193798 16.19888250329152
Ag 15.009084800073808 11.141864546708911 15.540303297653919
Ag 12.63457519309137 12.565702051993185 15.6763851181561
Ag 6.0556769633539815 11.624672667883983 12.860907131746288
