53
Energy = -115.92791891 eV
Ag 15.053395869819902 12.59868481309488 9.594257553857561
Ag 15.856388342947769 10.52273782457657 11.707239983718473
Ag 16.991541518721814 10.225860434118854 14.437488998354034
Ag 16.966248890324866 13.2805764577805 11.478416337354503
Ag 15.709888639344204 12.600592524286528 13.815987643763343
Ag 15.213886304374046 8.756727721608414 16.174705971713717
Ag 13.656137472535312 10.214437354950041 9.497670960350986
Ag 15.604091141962142 7.991591823172967 13.345338493146901
Ag 15.843762927384365 15.273637686923506 13.133450496348301
Ag 13.888799514090474 14.72911798370003 7.98650744771624
Ag 13.442754112294343 12.006794141381176 7.358692394765942
Ag 13.42336571992631 11.828629862892486 11.904252420021226
Ag 14.560853052102313 17.488899129390116 11.882620803598897
Ag 13.358271030277644 8.757807014409197 11.807901876169744
Ag 14.852558002387616 11.616085930165951 16.419331630400183
Ag 14.182512555282935 10.250318533025412 14.084163143996525
Ag 15.337647500810279 15.294420251937906 10.341455361266874
Ag 13.09321281330426 14.739504748583217 12.331706142126372
Ag 14.758578706253784 14.357793588384936 15.744524471596078
Ag 11.679723981109895 9.728379868202275 7.506063498269743
Ag 12.998934812727505 7.737583952835544 14.473335793260173
Ag 11.801254771159188 11.309930611609746 5.205976846894277
Ag 11.127771062633736 10.525446984681205 10.79740857974501
Ag 12.129887543648673 14.020241056047784 5.903946711080155
Ag 12.26154810638457 13.250458335292292 9.832659857678506
Ag 13.896435752471959 16.69349737401878 14.515056436579675
Ag 11.52660705493652 8.024047850594329 9.704090153524467
Ag 12.598867653634038 9.788655721608212 16.475022068567487
Ag 13.431124459009348 19.2943667446541 13.780715960614144
Ag 10.857604358644195 15.052941042002383 8.266278096744838
Ag 12.754376217295267 16.347155200664623 9.956272851725178
Ag 11.472821421445389 17.777380474038754 15.186731824920281
Ag 12.188917330357986 12.530419431584654 17.185468179576862
Ag 10.913221074138418 7.679679641499982 12.610912390156477
Ag 10.539097226368298 12.351773393769358 7.474710294845898
Ag 12.048983642090292 15.155136625494148 16.03644756889328
Ag 12.82180155524094 12.764815631816877 14.520938498980899
Ag 11.77236211941341 17.47640149877845 12.386760683240828
Ag 10.87485158315565 12.861475798301484 12.469421756713496
Ag 11.281860070882324 10.3303222904511 13.749684761352455
Ag 10.418514857945707 8.187880722350036 15.4904443089975
Ag 9.196124197094106 10.324413392261444 8.83642303900225
Ag 9.424868429636744 12.966895315688806 9.96596379833317
Ag 8.946513605690352 8.434303540366134 10.811731020738232
Ag 10.334523439345649 15.56806751312148 13.83419100739351
Ag 10.005275226769632 10.782788728854657 16.560670784326163
Ag 10.379039897772184 15.356896680907877 11.07861323345097
Ag 8.518381627260519 8.829050693738305 13.53535910111989
Ag 10.042303454523633 13.244195028792108 15.293945810889747
Ag 8.568509541972547 11.055465173646475 11.808550831532418
Ag 8.367637153300125 13.729678076517045 12.846748437368749
Ag 8.056033784194303 11.431172252140748 14.55534496880907
Ag 7.847224656124033 9.09755176994272 16.18791309033377
