45
Energy = -97.40730365 eV
Ag 15.388676716329346 10.561996300427092 14.71756780094618
Ag 13.542752738172457 8.747256252083178 13.672894832600292
Ag 14.225676648004503 12.803460056375487 15.83827427292266
Ag 12.20902070448716 8.155427358691265 8.118512061836835
Ag 13.04335876801866 8.375144549465231 10.83674729356516
Ag 12.710853796668838 10.352442410312628 15.97378834148655
Ag 16.85002102462919 13.268355681452471 15.310104683262727
Ag 10.786367323418856 6.7073442407571475 10.122306168227299
Ag 14.044485959827865 10.293898714700102 8.8701486069181
Ag 11.847874150719509 6.775403444667977 12.77397854685076
Ag 15.531485190234568 12.696464611699529 13.021980788989588
Ag 12.816825268292265 11.595032150247745 13.48624141485124
Ag 13.27964293964827 15.264040377873423 16.737408927296983
Ag 9.469307810988742 8.703468048307066 7.447058274879321
Ag 11.749107282692286 12.83287160999337 17.06575157365105
Ag 14.850402333313292 10.279283781053913 11.751501567706297
Ag 9.30081785478242 7.777187364854749 12.344426890729126
Ag 10.88122778174015 8.82128552158948 14.498768765464812
Ag 11.524027523759639 10.831460089470427 7.56364296694743
Ag 12.353128281296117 11.381260309271571 10.750722637652204
Ag 14.838799113152318 15.152256404533194 14.327835489613166
Ag 8.120181513429799 7.7025779534851715 9.753365929704024
Ag 15.067284031571772 12.638585283905273 10.221822239516776
Ag 10.339548080590097 11.676015445503442 14.918793991575026
Ag 16.013974578464918 15.062077721701709 11.735994896748895
Ag 13.224823762915362 13.98318695395241 11.960919019364068
Ag 10.42191510202928 9.431920534849471 9.899670928369991
Ag 7.207771835450152 9.505054715411418 11.741823691971053
Ag 13.077750235214088 12.995593186629408 8.32084868256871
Ag 11.90025934003678 14.14703299234327 14.573821481934704
Ag 10.437785418292014 13.247780133414093 12.394214526205221
Ag 8.279638665796156 9.76341788369503 14.283346502726342
Ag 7.589462762993153 10.377169213015529 9.15679056179278
Ag 9.952451453936803 12.231485948844517 9.66024520925622
Ag 12.575159642890931 16.881156594728807 14.544453685992142
Ag 14.209179165962093 15.27751065037443 9.574330812033248
Ag 13.755376171971625 16.706868950882686 12.029793822324065
Ag 8.86862068009636 11.40701375431003 6.95554734631237
Ag 11.489832813040847 14.7872888193786 9.790421006558336
Ag 10.021329112055192 10.575620322659095 12.337751149958203
Ag 7.791878553646115 12.228598893548924 11.457411067307351
Ag 11.040885127787558 15.955566232534483 12.327142321568633
Ag 10.512824388639705 13.650278746586672 7.373044318470971
Ag 8.87678620780783 14.773823969701319 10.656048138890014
Ag 7.564581803790835 13.202195479302121 8.685896421038358
