10
Energy = -77.77803934 eV
Hf 10.924729951201275 8.760090058527602 9.263939364238773
Hf 9.508468395924506 8.814898777192782 11.625980132872675
Hf 9.081050141831733 6.718267274471749 9.527293929916896
Hf 10.187574796895662 7.240945037003899 6.966367089257872
Hf 10.712227169197092 10.323481465224418 7.17308310600731
Hf 8.344941487851992 9.207475129658699 7.134606173053778
Hf 6.839806548964728 7.069478132509185 7.820509191515027
Hf 8.875237322482741 10.78958072981211 9.53290708918599
Hf 7.151760752267944 8.569203640365949 10.227297094242092
Hf 6.188217160836634 10.093671438439985 8.326184188857281
