11
Energy = -86.00641466 eV
Hf 11.18269345437903 13.665648111346623 11.993175820306178
Hf 13.129868051261065 11.595290350421688 12.312656195759807
Hf 13.692173427039325 14.367531677872975 11.167878460112977
Hf 12.892599529398849 12.296887870429812 9.597028830715077
Hf 11.435600483889562 14.58763079164625 9.433125031832505
Hf 12.070930709458846 9.77298091547825 10.344548536192262
Hf 11.789767787007037 8.679816927487062 12.868595625654457
Hf 10.346287197757396 11.087610758643489 12.750804098990193
Hf 10.139084521908586 11.887617722394063 10.00950384299519
Hf 9.58103709347962 8.897224493668933 11.163369081297597
Hf 9.245259460170972 8.667062096361523 13.864616191894534
