18
Energy = -149.17915299 eV
Hf 14.635450711051316 10.672281646701492 12.70900467541254
Hf 9.707684126036096 10.8428827111837 9.878296256090172
Hf 13.082547795255607 11.4576732654918 14.721682403641642
Hf 11.351965193639886 13.565667124248046 14.233959614010544
Hf 11.992399825790024 12.304558172396929 8.755106206552181
Hf 12.148640966948674 9.024146019805023 13.500509557275127
Hf 11.285160821404775 14.643109158720128 11.838395594718524
Hf 10.941782633878876 8.114832508776333 11.057838212719675
Hf 11.801390993654602 11.626580609095761 11.898417664549902
Hf 13.921674473683902 13.522089415489782 12.70026993633639
Hf 10.334216296702296 10.982391578561039 14.580727656481129
Hf 9.286129327974034 9.839918991283255 12.448888794346482
Hf 9.94651678921123 13.817410749125957 9.656868261814736
Hf 9.1295252330172 12.711635859160864 12.362391325340097
Hf 12.486938499187124 9.814969835662668 9.552580157823039
Hf 13.866735380521677 8.335763787548931 11.368136397664621
Hf 14.442757287675244 11.899060900876254 10.19580897250763
Hf 13.111509758256394 14.486229564180318 9.888565523269648
