19
Energy = -157.6333693 eV
Hf 14.368446171603736 12.377892327862034 10.892207520856859
Hf 13.356914180851824 13.798135947858059 8.617624575254368
Hf 12.184285839126439 11.818455068034218 12.816088094189253
Hf 12.291060369317659 11.359748073007921 9.443216163566147
Hf 13.191038693725416 9.41789725190381 11.236879810062963
Hf 12.063658430725255 13.970665027468055 11.0253220855392
Hf 11.624634316187327 9.18981820453767 13.570126999510938
Hf 9.427598940210352 11.027625651759102 13.622028794076744
Hf 10.399532997355694 13.57380583627726 8.861615576666896
Hf 11.314716153271593 7.262097585533229 11.559548685048762
Hf 10.201950755798423 10.008091641194216 10.945515743510265
Hf 8.96590065312809 8.323782367800582 13.099229098955181
Hf 9.330507734482936 12.856752566252254 11.539005280168107
Hf 8.220924093422866 11.868222521197007 9.162601345562425
Hf 10.253484091343106 10.853684380680379 7.480441307774239
Hf 11.07283556882348 8.308734997898895 8.821463649675566
Hf 8.787218394145285 7.433518744650082 10.466087231617474
Hf 7.457517111982374 10.203996228470263 11.423393333686503
Hf 8.25382503255748 9.226581421371616 8.571721750391967
