19
Energy = -157.60304252 eV
Hf 13.476103882782722 9.85132314175793 9.23014201754564
Hf 13.026846417806347 10.035977932497472 12.331102491806723
Hf 13.252245971785628 12.386863686742977 10.910294452277247
Hf 12.133445255344437 7.778303365933838 10.808954887096508
Hf 11.167735599169179 8.109589967392088 8.348236658132343
Hf 11.461441516910696 12.364076045801625 12.892584837550643
Hf 12.503094650684485 12.590956488621558 8.4186519440514
Hf 10.526758243716321 8.71214845548394 12.747699687868973
Hf 10.300215506624694 10.58511977793184 14.617688989822192
Hf 11.465854160794068 10.42077466048134 7.095706241209049
Hf 10.745300821637032 10.629613212904568 10.115993128066103
Hf 9.218582748369531 7.716582503136956 10.32451233860607
Hf 10.553264342870438 13.638804272725805 10.466167684537863
Hf 8.013482780776517 9.14796704309394 13.408572771209137
Hf 9.829294866672301 12.545601263613749 7.793886411569091
Hf 8.710368123011051 11.868002493828975 12.47135913254253
Hf 8.688093945555572 9.796086256007687 8.092822733492007
Hf 7.511448222078435 9.846527667918073 10.78245674077126
Hf 8.060072233232459 12.19775399847564 9.757996945856336
