14
Energy = -111.31172935 eV
Hf 13.207841369590524 12.333996071587341 11.628602442779794
Hf 10.739105043816565 13.595773090917298 11.199390262945128
Hf 11.187001408466752 11.605044317384616 13.442104497646971
Hf 14.134704401957705 10.461542860047418 9.77414292197805
Hf 9.702195678747017 10.96197567385298 11.116607202322019
Hf 11.872006910044863 11.874373929815423 9.045644866678773
Hf 12.415760186198572 9.50709125478202 11.715022473235601
Hf 9.228757316767528 12.765611047742334 8.831157347260534
Hf 10.105508926929092 8.893893947238722 13.174173114111284
Hf 9.467083555690737 10.046964148775885 8.289135739426023
Hf 9.958965544496047 8.01532536438723 10.548097317221416
Hf 11.963579068098646 8.943201657461701 8.859993808687785
Hf 7.595252136177757 9.141657656193228 11.721424935240625
Hf 7.182694430251339 10.954638765109944 9.773250625499156
