14
Energy = -114.28787313 eV
Hf 9.259084891427166 7.750502060110614 6.538369457172139
Hf 9.996888821870492 10.539723262279058 6.679050443686993
Hf 7.294519195037522 9.740053904818996 7.2271963959216174
Hf 11.669376094504866 8.514911968614479 7.937362172643026
Hf 7.160301772021309 7.122135005592542 8.448128022200631
Hf 9.930610451740678 6.477836962938235 9.038348889245878
Hf 11.462846441060194 11.136338225944584 8.997439527423227
Hf 8.610896903730676 11.901330693829282 8.880554253181097
Hf 6.510411857933046 9.41525894306121 10.071795258044366
Hf 9.198954334407928 9.211974017648533 9.210549307769517
Hf 10.160986716729768 11.490660727364908 11.302650575164174
Hf 8.174073397900141 7.225441590804897 11.130423735917802
Hf 8.409528017648759 9.644568557627448 12.24750405086496
Hf 10.974866776690986 8.642609752068875 11.103973583468395
