13
Energy = -103.59425682 eV
Hf 11.968801789367419 10.012196870921892 9.733783819709366
Hf 11.471991039092257 7.4113803269581195 8.936973243716869
Hf 11.987632077971163 8.458393926557774 11.9358957891639
Hf 11.63751327309689 11.471756149949224 11.974975746691372
Hf 9.876281116265636 9.79261819487936 7.895308560747775
Hf 10.885869942575587 12.449114277091182 9.001622097479153
Hf 9.05809520042202 11.556944261339146 10.724112664854163
Hf 9.493036865462978 7.815819452422832 10.676224358507584
Hf 7.992413033256465 11.876496417179712 8.171391481675991
Hf 7.269117265523077 9.501024582329663 6.920812128300812
Hf 9.54658970803712 9.692767104680453 12.670724728265597
Hf 7.344586627853544 9.474549472026224 9.712312993676488
Hf 8.522363832665166 7.325127829434952 8.113184926916494
