13
Energy = -105.66481183 eV
Hf 9.820987907971652 8.26116637828528 7.294952965255105
Hf 11.382570384109671 10.703685832081108 7.645493648428915
Hf 8.44628268823856 10.823895948816938 7.544067258239769
Hf 12.142535201128316 8.382613369922897 9.271955277137742
Hf 7.295456197200907 8.469425160916222 8.838401635464244
Hf 9.620982326103297 6.8907150450975045 9.988211951569014
Hf 9.705579512252989 9.6311752095423 9.730880188754792
Hf 7.250825676220993 11.06160118630382 10.171473002280806
Hf 12.027117121229665 10.963442627134027 10.593142372688005
Hf 8.048787331188228 8.752334226573957 11.775255757332713
Hf 9.798851749737002 12.588825051173473 9.45475175288259
Hf 11.032851099139227 8.611909629699415 12.026313441560006
Hf 9.618257171445032 11.160131226607051 12.124063423106582
