10
Energy = -78.05333005 eV
Hf 8.07043051449744 11.495247513773029 7.500731302971352
Hf 6.60819105285161 9.605753445394834 9.251288080875655
Hf 8.759043575285697 11.295814705596069 10.107222394188273
Hf 10.937092627121057 11.255690894445584 8.239977537301066
Hf 8.414222698479811 8.669721703385475 11.229853590136205
Hf 11.094601501966714 9.694800689879145 10.600491984125124
Hf 7.645266552422562 6.819229128038451 9.387356677378964
Hf 9.236902329287753 8.977514069851834 8.354506576036545
Hf 12.077555814838538 8.515938484622593 8.347013171537974
Hf 10.440080086305786 6.982913378194744 10.263765220884492
