12
Energy = -94.27530175 eV
Hf 12.5838789891169 11.346926498514701 10.628978891872041
Hf 11.54828603855566 11.20673332072212 13.013063619869236
Hf 12.471509317641843 9.553507159605275 8.676391869352003
Hf 9.072845250135211 10.37680737811848 12.44977561853652
Hf 9.814344523024086 10.643854975134417 9.659904318232853
Hf 11.485157324725895 8.819103722254443 11.371080777946235
Hf 10.408867885892349 7.8027155902148655 8.776036752496896
Hf 10.084375561614559 9.89530812667487 6.868874361545267
Hf 8.570801593902358 8.203427493144005 10.924144143350407
Hf 7.837086478433399 11.487075093240719 7.782486886935876
Hf 6.988463390282554 10.536083562300831 10.349428353536737
Hf 7.830613278034796 8.825196520914059 8.235163922270386
