10
Energy = -76.73806072 eV
Hf 11.908739212863477 8.926620865235293 10.151262117138387
Hf 11.485374832265835 10.750690577997842 8.210038722151127
Hf 10.907096936536378 8.024087227394418 7.645195433361163
Hf 9.752521885024985 10.757431752752394 10.470986170329095
Hf 9.162287683115995 7.94019401846899 9.98463497208472
Hf 6.95654545818195 9.839820658324571 10.218740661295632
Hf 8.701546811962922 9.923423012328499 7.87907768553773
Hf 8.111353888011292 7.105906681167441 7.392421405084861
Hf 5.954647446763106 8.937208188137719 7.712019780850007
Hf 6.377990845274425 7.112722018192821 9.653728052167521
