10
Energy = -77.85041845 eV
Hf 7.552237410147639 10.662036519686973 8.27350799789486
Hf 6.280538647353912 8.179024571321236 8.747636974255645
Hf 6.592667612541433 9.124206407268014 6.077384042373425
Hf 8.12041749939633 6.910689000656223 7.0126202926626515
Hf 10.230142765360448 10.139957514328431 9.188661437917009
Hf 8.0323902723154 9.277174413753057 10.748397964453998
Hf 8.430628269129361 6.6208524280553585 9.85873688320639
Hf 9.391677227502864 9.393570523077257 6.538194333892969
Hf 10.628544984629114 7.4837804036863265 8.298889181911271
Hf 10.574435400864916 8.042388307408793 11.089650802190002
