13
Energy = -103.58663586 eV
Hf 7.91802629491547 8.185364445390807 6.4643882501469125
Hf 7.102416551795479 6.598320132241304 8.571219978380958
Hf 7.240158927417394 7.636112523609083 11.111602608285951
Hf 10.28701267752766 6.938448414692623 7.128905388754792
Hf 9.054161175907549 8.656480201968812 9.064781042673278
Hf 10.30288161993645 7.894259847596841 11.446951699278394
Hf 7.741748452066169 10.857431659480678 6.8390379117754705
Hf 6.3813540613069994 9.451789544564512 9.00189195619062
Hf 8.379079388442927 10.07333077705637 11.500430521699142
Hf 10.461645571637963 9.863975982556418 6.997654334411003
Hf 8.666996843665531 11.634430887674418 9.185079916048934
Hf 11.001473286534452 10.43605122263679 10.257368858575674
Hf 11.948758962312095 8.259718017264404 8.916401033779099
