17
Energy = -139.30980684 eV
Hf 12.287568544607483 13.009318072062298 9.065307768630388
Hf 12.652681463137807 12.520012735720496 12.121807696870606
Hf 12.950973529297244 9.21638762994472 11.795575152930496
Hf 10.676194682042178 10.309784619169838 13.62339922959114
Hf 10.288439658534546 13.95174427266625 10.679635545836875
Hf 13.971762387052525 11.118256410203806 9.92073148599209
Hf 10.319262974212837 8.117276307860832 11.81347239890134
Hf 14.092261972970446 8.612748332146504 9.022366678225215
Hf 11.836909906529339 10.377655932119428 7.987840801627532
Hf 10.814575385865597 10.987830096865526 10.751121394256506
Hf 11.515065443781344 7.9712491917181305 9.457117297247475
Hf 9.972841559024761 13.03822981739018 13.17449177080198
Hf 8.118027225353456 9.537747970894154 12.140873442671252
Hf 8.974882417831209 9.43848209920574 9.342256273562962
Hf 9.597760915717284 12.282683556461393 8.474431176399198
Hf 8.071136570632955 12.151758346645149 11.037027913673947
Hf 7.938833758886171 11.514111652023285 13.973834140336438
