18
Energy = -145.37878184 eV
Hf 15.743756841754884 9.04209557173184 12.857627651889393
Hf 14.926544853529716 9.161531670646212 10.27690003303228
Hf 11.676605329647536 15.534975919304943 13.581295225412799
Hf 10.669170290655675 10.536028518378739 8.409469899620792
Hf 10.744467567768128 15.62063991597931 11.043818918844991
Hf 10.730364647284294 13.192553058683938 9.539276686392258
Hf 11.180259457767306 10.76505114640057 11.150350069996867
Hf 13.449797612853615 13.301648420653121 14.4661865513306
Hf 14.239988256553799 11.287723983326519 12.143504853243845
Hf 11.492074582745115 11.170166467720179 14.039767637131568
Hf 12.386488517320196 11.811646990187961 16.587135445214674
Hf 13.173208191935881 11.384147212140228 9.198543680202432
Hf 14.117226846754864 10.30581818021146 14.89216303674029
Hf 12.251101271159989 8.632501935494599 9.512966629806265
Hf 13.041185025867398 8.702708867173005 12.462730514430117
Hf 12.739246519320913 13.752518680987194 11.527899418130618
Hf 10.733036978169885 13.617019261306535 15.450867004917466
Hf 10.01073992046696 13.397212477623121 12.561662536722455
