10
Energy = -71.85906487 eV
Hf 7.429949731919955 6.622818143152069 7.4383557022067315
Hf 10.0664569258819 6.623149898792771 7.4385741459904455
Hf 7.30143399529953 9.412018442563932 7.262869895875551
Hf 10.194813132225827 9.412147206286782 7.261942479188045
Hf 8.748254575010185 11.670758629749665 7.454537964479808
Hf 7.429620221205313 6.623003574466823 10.05752451484998
Hf 10.066427832078901 6.622644901603542 10.057752058909644
Hf 7.301430315700064 9.412116947161444 10.234337981424067
Hf 10.194833121007571 9.411972168585837 10.233408920286355
Hf 8.748009992937565 11.670600401103751 10.04192665025561
