13
Energy = -103.01374686 eV
Hf 11.96596321733902 11.36070270607784 10.57808888042671
Hf 9.261904739979176 9.141958562279795 7.146924751633007
Hf 9.64951884713374 11.611497839561938 8.28092422057102
Hf 12.785907371896228 8.502283672946346 10.476016692600092
Hf 10.68121168591554 13.761265912986467 10.210371865306202
Hf 10.134795783258806 8.973016434326903 9.808200743396398
Hf 10.704606440152002 7.419317221431066 12.166821657346718
Hf 11.861369773426464 9.750053832953816 12.869761139673479
Hf 11.97236043385682 10.076523060701032 8.002872109914584
Hf 10.472069313699146 12.308106075643249 12.768842666990018
Hf 8.563640218917001 12.155643778613229 10.752381868234785
Hf 9.031117772777154 9.858915167185721 12.348705930194813
Hf 7.560423325085243 9.935917371925667 9.323742832959107
