16
Energy = -131.90982688 eV
Hf 8.416959286225477 8.039231664746458 6.333987345725184
Hf 10.369713857795071 10.04437238828361 6.516876019081997
Hf 7.518736296908574 10.668722173323546 7.654392410689336
Hf 10.98807936725932 7.312361302919989 7.281671590350463
Hf 6.459244984510086 7.833359450964505 8.34996248295738
Hf 10.503260455308698 11.73567727610863 8.8904502939932
Hf 12.172548383467815 9.409748793283178 8.59760757190139
Hf 8.718110588537565 6.1262640817572995 8.456142955012066
Hf 9.168868026867699 8.979229750758847 9.02003530127276
Hf 10.817829638711233 7.290634774389084 10.382539937778743
Hf 7.726654111457729 7.156853137021048 10.871976485857422
Hf 8.042294924633827 11.8242940784001 10.347473617906562
Hf 6.512484237392302 9.661677107214059 10.39292233098282
Hf 11.541512823772383 10.093078170750372 11.077180836084345
Hf 10.220366669128131 12.310508573934229 11.873683876561586
Hf 8.885249040130228 9.575899968251038 12.015009635951337
