11
Energy = -86.06256184 eV
Hf 13.53399462108562 12.047927393131483 11.732822073222138
Hf 13.19423385901453 10.348585547808728 9.545284143123913
Hf 11.35122086699424 12.474245347868012 10.148295925720472
Hf 11.632347525159513 9.950490213594112 11.793289653028905
Hf 11.15707625092374 8.101500753367068 9.73912891120707
Hf 10.610236056492093 10.523854973713348 8.397052658192763
Hf 8.956421556518421 8.135939951173022 11.65259637116866
Hf 8.509846753011749 8.847951450184336 8.888359615330609
Hf 9.117005816779269 10.836019073958756 11.177241354529631
Hf 8.000890490361337 11.66980188405329 8.90980591466353
Hf 6.702625963810354 9.731373348363551 10.638962739813348
