11
Energy = -86.27812837 eV
Hf 8.863078085964638 9.118289929242744 6.17627682601597
Hf 6.3730733396867665 9.07816306441939 8.279326425610437
Hf 8.278689561777975 7.145893011917464 7.972303213112432
Hf 10.860836074292019 8.45822400914652 8.320334703554154
Hf 10.923451164316786 10.939064800163486 7.1549374581072325
Hf 10.687857514406957 10.896517933138814 10.072338786589665
Hf 8.574234885247922 10.708771291490446 8.367304907593121
Hf 9.745342706810442 6.094769589691681 9.927626637837418
Hf 7.1249629081250685 7.426189184014726 10.529755242591076
Hf 9.666878001381743 8.533609857592134 10.97994930957315
Hf 7.571123058369896 10.27003462956308 10.889373789796096
