11
Energy = -84.68920509 eV
Hf 7.542464711148708 7.995907350480203 7.616560728573715
Hf 8.396159237162417 10.483551966717103 9.836082678623871
Hf 10.000112260076534 7.535294366116903 6.376207764888545
Hf 8.3859803873485 7.526045205467034 10.688423122169409
Hf 9.284149090220644 10.16967143992919 7.019325193440836
Hf 10.371622329196565 9.434691618380945 11.390504580319575
Hf 8.982422356948918 5.84357361160817 8.519415237140313
Hf 6.565593613390595 10.55896718833322 7.808487577551147
Hf 10.639552762435844 8.035937745393108 9.032225211927539
Hf 6.061048813579996 8.796195835741303 10.010139491685983
Hf 11.055950438490886 10.90521980227471 8.987684413679188
