16
Energy = -129.58380431 eV
Hf 13.61747799778207 11.928326212832978 9.350731104444511
Hf 13.215338708065014 10.172189716226704 11.608514190256837
Hf 11.983813635985166 13.092675615016805 11.433814482969966
Hf 13.079566627234227 9.12911141541324 8.852241777132368
Hf 11.449028723019545 13.49396964119716 8.6031901972023
Hf 12.162566162013626 11.105333802452588 7.077617705317306
Hf 12.398309627182401 11.777749426340758 13.991375825105388
Hf 10.862431827586208 10.908477367506755 9.587239716778395
Hf 10.46582266214062 10.227143345744565 12.698664448056814
Hf 9.90654497145484 13.14029172268805 13.547061902502975
Hf 11.185845193143836 8.168398208810132 10.706040469755344
Hf 10.403367434802393 8.729868031489167 8.044939805485082
Hf 8.954931350710083 12.444273287567455 11.03173168401167
Hf 9.971946800303636 11.1387857894971 15.375236664512402
Hf 7.93179677297858 11.121393754994829 13.363528285532555
Hf 8.57219379534737 9.548452983574526 10.681913027038505
