12
Energy = -95.42478472 eV
Hf 7.623229986104823 11.66527856860288 9.305883767191776
Hf 10.423781230419472 12.565652082998012 10.761008111681893
Hf 8.668444138836756 10.618799958607141 11.673927232390392
Hf 7.6053749755863285 8.919559430978834 9.81583066388399
Hf 8.3693356071487 9.285860781096767 7.172512185483907
Hf 10.053580357818815 11.160449247905715 8.377559051186266
Hf 12.434361964998507 10.78901329694283 9.689361218272797
Hf 9.294832979152467 7.004910867032304 8.728328969565121
Hf 11.198597349940115 8.815351552748108 7.529606784330247
Hf 11.348113292466051 10.284747650963153 12.318111271406158
Hf 11.163627919786215 8.42178801887437 10.243679160927035
Hf 9.15854788371513 7.8772367594438215 11.89048526219179
