15
Energy = -120.92574577 eV
Hf 8.697257324145852 13.247233723942603 10.07002684872535
Hf 9.51800052620953 11.17262869182012 12.736262982315017
Hf 7.295551659230528 8.656423203535773 8.682068259800406
Hf 7.785701470790856 8.386920566771558 11.568025804011748
Hf 10.588164239030643 12.179674333039854 8.227051522244242
Hf 13.863532006595367 11.239829587834064 10.43307229037695
Hf 11.32328485152841 12.67904594656343 10.974154420036834
Hf 11.678818124633283 9.840337821821207 9.742121047658035
Hf 10.529357948878525 8.450566493384848 12.282766988126017
Hf 8.947750216037448 10.450201536523677 10.05804942518233
Hf 9.701066109830748 9.49312387587095 7.414918900068083
Hf 9.728753165795077 7.575607205152873 9.650177542925686
Hf 12.285082393310184 10.611305993778489 12.607035370875515
Hf 7.848979429283652 11.626107851612886 7.7669100956345805
Hf 13.331949213258612 8.415291611638182 11.306821488977711
