18
Energy = -148.63575672 eV
Hf 8.295637517374926 8.952700299754467 6.492234275046226
Hf 8.177572616211071 11.689181955805427 6.352724079973115
Hf 10.81461303199652 10.120678630199423 7.050474610106821
Hf 5.925833641660691 10.179700941893483 7.136434432227733
Hf 10.003965767600166 6.889997184645634 7.404916350117388
Hf 6.400215696061028 12.71451497785227 8.276428704634736
Hf 12.46369890569758 8.410195277035891 8.587464751759045
Hf 9.131180628660664 11.731875588865815 8.945325178376848
Hf 6.90161946974149 7.469581118786123 8.451374543472687
Hf 9.612888577961101 8.616848791400656 9.524588622684686
Hf 11.618159730049852 10.912403905557378 9.71155882772693
Hf 11.34029130123341 6.309428912042801 10.01720832627328
Hf 8.60964475314625 5.810649425589856 9.976147222803581
Hf 6.830762098214918 10.174488897054347 9.745931533039025
Hf 11.933488810537957 8.777342584299467 11.391865583226036
Hf 9.292857715654899 10.269208257045976 11.724244917921142
Hf 7.208957704139621 7.950600172055375 11.284652502558194
Hf 9.703188869258373 7.285179915317008 12.191002373253632
