17
Energy = -140.54733643 eV
Hf 12.071052843066672 12.630626919592297 11.996833197538727
Hf 7.385315016421404 12.105684923459831 11.75206912660351
Hf 9.708707812673802 13.326865439495492 11.071872305606899
Hf 9.811617021703247 11.434980046899886 13.274560846290065
Hf 11.669040649745131 12.623905974195138 8.93884269684392
Hf 12.302236048261905 9.87837870958431 12.856329036585223
Hf 13.624101030596934 11.018225649250098 10.528435079882868
Hf 8.776081416562167 12.698250045492216 8.595028187214906
Hf 7.541556734713973 10.479792083255132 9.568710373099488
Hf 8.159188230147233 9.322723130063718 12.140907551755362
Hf 10.571312515459018 10.387844556652539 10.418618834432683
Hf 13.152633351124507 8.330744185656688 10.624912847658583
Hf 9.79019600982914 10.118723429610876 7.641809915336399
Hf 10.601991709238865 7.6839955387194045 11.746532162170373
Hf 12.65033688384731 9.996263129695784 8.127669278263463
Hf 8.625525763414107 8.075818402923085 9.634569954300922
Hf 11.16334870485054 7.770928802114051 8.879109386614585
