17
Energy = -140.26240618 eV
Hf 10.153921132603944 9.730843415386799 6.716048274646087
Hf 9.06033153819569 7.457664866347608 8.402372249335428
Hf 11.638450727551696 11.627629824329553 8.438887956359467
Hf 8.862236617726825 12.165534195363339 7.550381945713117
Hf 9.400711318765522 10.079371865149797 9.463363315325562
Hf 7.359128163598267 9.671497817755197 7.443008397860135
Hf 6.947362565525192 8.755648070935884 10.150909726801471
Hf 9.388094893591793 12.896596616919453 10.259018156495607
Hf 11.26847228011741 11.146378338360682 11.511717641361514
Hf 11.881385910852362 8.6374175553336 8.575998669084957
Hf 9.215057653360018 7.826366745460264 11.44207034078803
Hf 13.654869700899656 10.236534576815139 10.220338028668623
Hf 10.537502507043877 9.288837191654087 13.557949483362657
Hf 6.9421825292142865 11.579480407936176 9.601863568696979
Hf 8.236626398038315 10.59496788648197 12.084235613277652
Hf 12.088829006788862 8.185433746483984 11.433481933183813
Hf 13.264255238225351 10.019215061385399 13.047772881137504
