11
Energy = -85.98182048 eV
Hf 9.301179136626766 8.420440723351701 6.749432138265392
Hf 7.971223429757024 6.199200968233039 8.275567690100065
Hf 11.213752084295292 10.451486771023472 7.114033628675417
Hf 11.866730706920203 8.274959163368846 8.534869765207597
Hf 8.434151517972625 10.975930394407671 7.654866977850734
Hf 6.739370477852601 8.680238824027134 8.070391036922876
Hf 10.318094382655985 10.704994531302475 9.770682710247621
Hf 7.493747372064247 10.385532575407689 10.31996375075448
Hf 6.862761874241366 7.64309723843419 10.710284513910961
Hf 9.233296477282876 9.02871493070287 12.013981574222356
Hf 9.356692397089098 8.026403879740919 9.576926070600837
