19
Energy = -157.45552637 eV
Hf 10.010729393578474 10.85930440795794 6.141159668669869
Hf 8.63265661157236 8.517240869641935 7.102582006512784
Hf 7.660062641105211 11.348202624782783 7.581910162560716
Hf 11.646416016115575 8.819315709962465 7.14371042944118
Hf 9.873975853277235 13.014333468764592 7.993303229117565
Hf 12.298010657036201 11.475130388254376 7.722332482556687
Hf 7.822279377566807 6.819103544302658 9.185134657440987
Hf 6.865995562635566 9.52013962258529 9.526413038111775
Hf 10.691156337202695 7.143275088420318 9.149140271471056
Hf 9.873454849393806 10.117495901301716 9.161051018058439
Hf 11.445098931525342 12.396177453680567 10.284568661815578
Hf 12.578487772151233 9.644286632869097 9.926179756284746
Hf 9.283092613867597 5.763548442048544 11.314677269589291
Hf 11.612285929186148 7.742819510712816 11.819751114305182
Hf 8.44980484402108 12.264315292062077 10.374332912339673
Hf 7.398781977964946 10.374688466576576 12.2340688580711
Hf 6.5576175644954535 7.453920227341868 11.578536834541882
Hf 10.508701774087514 10.64523631330806 12.113932195770555
Hf 9.023843256469295 8.313917998679473 11.87966739659304
