12
Energy = -93.63452363 eV
Hf 13.285965622008742 12.602589509241461 12.764316446579794
Hf 12.085066173479838 11.385229849160394 14.78823819435902
Hf 12.359220011178339 9.889384619577418 12.324619165964734
Hf 10.503025030406887 12.032635089348394 12.530858009197363
Hf 10.117858501109229 9.725224326190482 14.158495237408069
Hf 9.5847118710784 9.392885677657324 11.46511327122251
Hf 11.61495862583874 9.332567027590482 9.48706833715975
Hf 12.405180892678336 11.954309152928504 10.223915396664644
Hf 9.54762664754606 11.694352270694946 9.661273478813722
Hf 11.093742554685573 11.117408963135471 7.410328482395274
Hf 9.09801421319607 9.305142376035073 8.289367184888222
Hf 8.405773394228918 11.70236792902514 7.088608227779858
