18
Energy = -146.67690345 eV
Hf 11.086881604224635 14.388059626546806 10.728009754761056
Hf 14.942508693889359 11.014996016925126 10.047642441010828
Hf 13.647983745425195 15.43762400574181 11.670928313899381
Hf 12.241967890191129 11.533946856425707 10.638011619106686
Hf 13.892507945774753 13.612175150157269 9.536855145975329
Hf 12.776223925845247 7.979471771833229 13.750250453816122
Hf 11.252725976356155 10.309925049620036 13.128395958334071
Hf 9.421695276247489 12.146298150896929 10.293739042272769
Hf 14.130865628780237 10.459847571604024 12.775003425607729
Hf 15.286926578859305 13.096763726353224 11.88932252530696
Hf 12.787553997192187 13.251434861970115 13.257191291462084
Hf 8.443675208379664 10.493648538682457 12.296507027303369
Hf 10.115371007752294 9.42246515598726 10.246192882942088
Hf 10.225244174275772 7.8150945641660075 12.529664520340745
Hf 12.668469934131478 8.632119957215577 11.098084525415375
Hf 10.020626590341994 12.887830246409553 13.26037236946534
Hf 10.968907530037534 15.52675484273974 13.155005520285167
Hf 8.428634717706407 14.392093013039947 11.868989464257961
