10
Energy = -77.35694287 eV
Hf 12.31298100333567 10.887307769668897 10.038118883137342
Hf 10.420408568801058 9.917258800890746 11.823802946896022
Hf 10.230270720618924 12.47996889834554 11.178902173384587
Hf 12.114664089106096 8.060709064220251 10.729201611331982
Hf 7.853479163882935 10.62428145843056 11.287178660240128
Hf 11.331201872988293 8.769953167928328 8.245670532086189
Hf 9.493005715610611 10.944035471784854 8.978380986651619
Hf 8.986415180725013 8.159766501446848 10.00001939980298
Hf 6.830379999142849 9.666611752982423 8.814735859611812
Hf 8.810759016621272 8.800110054807483 7.272005442212427
