11
Energy = -86.39980505 eV
Hf 12.67612595834364 7.977049512491088 11.432352751238382
Hf 12.142709810619596 10.925244144741388 11.589938401090974
Hf 11.070024759787174 9.330196589390221 9.421152598258558
Hf 10.21857859346192 8.863984067205472 12.192839816032068
Hf 10.460859631753085 6.730389231678765 10.485030862777096
Hf 8.412706539563649 8.752446720485823 9.9989025555645
Hf 11.33278879060185 12.225554310332639 9.147662212911298
Hf 11.089734447934648 13.72830558855835 11.40331442927462
Hf 9.324021913705472 11.433443870901453 11.137578421114268
Hf 8.812333935103462 11.127666999429469 8.422232316206298
Hf 9.125311863453915 13.809659659947028 9.53367403855345
