13
Energy = -102.84400855 eV
Hf 12.619603530949842 10.51557481878574 8.3547255175941
Hf 10.164260739087691 9.010630052073525 7.741201346547499
Hf 10.003279003748451 11.431451478805272 8.884138842877793
Hf 11.909375864316273 12.391267686424882 10.582754885099286
Hf 11.374583840746137 8.839933652647153 10.127625207680563
Hf 8.616087046578299 9.487882246024471 10.231982976233251
Hf 13.960042187954205 13.0247374344043 12.393014639091858
Hf 9.095367759878716 12.582901763779825 11.39090902491998
Hf 13.45695937102284 10.215587879640717 11.637256960712513
Hf 10.620858459326623 10.321470164169822 12.266414024506822
Hf 11.211205153732564 13.768124244973592 13.019924155255747
Hf 12.442354692372733 11.48710190754532 14.12575429059333
Hf 9.548819675710332 11.946133996150083 14.267095454311479
