19
Energy = -157.26728532 eV
Hf 10.833612895688306 8.099552521622389 8.644974792141195
Hf 10.642325084943081 10.292988961602985 7.229321611630056
Hf 8.105320188337657 9.650172762817077 8.667608393133277
Hf 8.202951733430952 6.909527306634893 9.289342493944726
Hf 12.989437016021139 10.36800568972853 9.000548855650326
Hf 8.748632533268943 12.251648705049805 8.086766497198663
Hf 9.78226640928363 7.604629921992938 11.455414822050882
Hf 9.147362562051931 10.076650197896289 13.024425315700901
Hf 11.783168568306815 8.849142096086675 12.762553578654433
Hf 13.806373470284958 10.397998033140386 11.696666183365727
Hf 11.799530557799812 11.472963790928954 13.311741872882918
Hf 9.651842430403061 12.885810553139134 12.519665694645376
Hf 12.890618331154187 7.803609312619407 10.46952201096406
Hf 7.690063148901228 11.76083415830362 10.7690626707614
Hf 7.30021449231989 8.863464349843422 11.176408421557307
Hf 9.797137046531402 13.840094263502689 10.02663903194808
Hf 10.469061699930002 10.766198225791419 10.453215970829715
Hf 12.475884426946003 12.914433714795155 10.913823672486863
Hf 11.557349757476432 12.713122504888846 8.237679794263089
