16
Energy = -128.83752631 eV
Hf 11.947402976516964 9.536389175950609 10.525921077077818
Hf 14.70995837096894 14.254163464886432 12.113358700559784
Hf 10.082706711828257 11.624882985473993 12.018223296710095
Hf 11.131116666728301 12.315174987537157 9.477605740599103
Hf 13.502522340647547 11.22482744364822 8.558256502725788
Hf 9.16582251313671 9.759039066181018 9.926489125289628
Hf 11.13647377150991 10.01647465470996 7.874572260026422
Hf 12.025937206726763 10.415604768377946 13.830127145915933
Hf 10.718648104596053 12.981630187739952 14.502207101590846
Hf 13.587806768292097 11.728604630944183 11.520193113797047
Hf 9.26482532253635 10.560869787874314 14.531841885084116
Hf 13.546553400767532 13.891706346662902 9.610477152512921
Hf 7.5665456606746435 10.128288802790902 12.302505953800885
Hf 9.934810245878971 8.786236395749851 12.494290779851685
Hf 11.965183197003212 14.227212682105423 12.037984622072598
Hf 13.458131653596332 12.99363158649276 14.18534749645107
