19
Energy = -157.48468928 eV
Hf 11.32494024861429 9.200630441869997 13.136698258029805
Hf 13.599817793207261 10.915435706862331 13.370644607326332
Hf 13.543839145952973 8.840396793662872 11.29994948427761
Hf 8.937774872590564 8.025098070964484 11.998900386514624
Hf 8.738489939047094 10.609961324095654 13.248274530672667
Hf 12.84323995460637 9.951877044504085 8.69331405124325
Hf 7.165095157019979 10.128107735480123 11.04488625069262
Hf 10.95335792396079 12.321211677196235 13.234014647750152
Hf 11.185050492464862 7.7437703750891265 10.016566928686368
Hf 12.652705610419524 11.563780907575548 10.946391462922819
Hf 10.047322534926549 10.270255323924443 10.587300572677712
Hf 8.36417135931018 8.33657384505682 9.181097497615255
Hf 13.305353772249658 13.860232434405408 12.389170050184097
Hf 8.662651635407629 12.702346293830352 11.083076111785363
Hf 10.360042690751703 9.564422662454039 7.719125300548424
Hf 11.126957817332572 14.1009211895275 10.822170868798805
Hf 10.825443158180759 12.382075694116605 8.474598351878607
Hf 13.42973360347786 13.543006360781654 9.342600768154602
Hf 8.136101013612885 11.164668564627132 8.587736505590609
