14
Energy = -114.14512818 eV
Hf 9.185517045447563 9.244099633025689 9.211199472402555
Hf 12.12446267113167 8.74503664978588 9.261932633457869
Hf 6.302027487602432 9.249376756889443 8.525789366740108
Hf 10.684488978398461 11.501650421418027 8.826948990001723
Hf 7.630322583554351 11.616954896118475 9.525459266550433
Hf 10.344595746442433 6.703518567945871 8.573805138931688
Hf 7.6783494286931155 6.935791672351916 9.681067916559352
Hf 9.42538593269402 11.02565652546387 11.59126141597601
Hf 11.995828884183043 10.385739949287025 11.353931486586786
Hf 10.086144483229335 7.997024392136077 11.477220416345032
Hf 7.221856168635041 9.31955250335634 11.276664207236104
Hf 8.337219627690486 10.573803774989658 6.901938290801259
Hf 10.756988030171025 8.98537904598188 6.830585908764647
Hf 8.178845372393788 7.668446917738736 6.91422734289064
