16
Energy = -130.84425885 eV
Hf 8.949055453373806 8.741948660711396 5.7992211909366524
Hf 6.500669327095326 9.236235858623257 7.0499921193817645
Hf 10.926119478328276 10.410342612063628 6.859557570032607
Hf 5.98949431517295 7.794300447891648 9.295296939565523
Hf 7.937689282531405 6.628692758190888 7.537146505069177
Hf 11.00792061345643 7.439431563986788 7.405058545073935
Hf 12.261101722227872 9.45227560676029 9.024608382302956
Hf 8.316306402186969 11.350003211353393 7.149519183655331
Hf 10.1193280010638 11.462415614979154 9.545390627712015
Hf 6.898300921077769 10.60724505683259 9.683329975410773
Hf 9.019948817721751 8.959449438477193 8.655440557070415
Hf 11.727899560709316 9.96967584614252 11.658716980955973
Hf 10.960711068165477 7.467765217246924 10.488672432700897
Hf 8.222903815639002 6.749057005381889 10.601609200711719
Hf 9.024568931685126 9.442808803710697 11.642400694228584
Hf 6.420812062053236 8.571182070136569 11.886868867681068
