18
Energy = -148.40325 eV
Hf 8.771632253539833 7.498535384094123 10.15958635644474
Hf 7.503878225400625 9.109190978898736 11.90287637320955
Hf 11.437630776738565 7.171048970763671 10.036733212527045
Hf 10.219948610593908 8.30904152979908 12.723650761674
Hf 10.116037699035903 8.521421176820452 7.953887720242265
Hf 7.861162948541122 10.067144765547722 9.11935391855428
Hf 6.510484371974247 11.542383768732169 11.243451117683998
Hf 12.80535552401799 9.401045236379108 8.668987030889685
Hf 12.980317284652092 8.62392909234193 11.731471439931479
Hf 10.652475170235917 10.037457662707743 10.465162965939522
Hf 10.294724613262094 11.386319817108312 7.786675442441557
Hf 13.568994715278627 11.156404797347713 11.051018909338621
Hf 11.781418577036996 10.743543876187132 13.135715871521082
Hf 9.038279144312254 11.43317138207797 12.606348518477517
Hf 8.683927921831065 12.757779156863224 9.929554250494464
Hf 11.296240650666562 12.974604231680107 11.224844927676566
Hf 12.812911984756267 12.350039254776968 8.758400460210074
Hf 10.758908354124939 14.108040214223958 8.591370726058763
