13
Energy = -103.78716678 eV
Hf 7.811379876808317 11.708861596899212 8.614797047604183
Hf 5.763489359791517 9.615227365179454 9.36807535858806
Hf 7.108083299091417 7.204484986205976 8.696073022834586
Hf 7.2687262103957195 9.48466397520008 6.982615348915174
Hf 9.783430725134913 8.298065962385106 8.019259202536965
Hf 9.350937419536654 6.766001104807141 10.459977335467457
Hf 10.551260960794943 11.400915888853023 9.522589717980845
Hf 8.403488821951608 9.517651281468506 10.33088509041277
Hf 6.565180770387014 7.62289232986897 11.298057652279201
Hf 9.801846098204965 10.896477620105047 6.859663218700634
Hf 12.25122743260632 9.641294467695264 8.113266175705617
Hf 11.286759162529357 8.895744507827557 10.679095864527556
Hf 12.015208232325293 6.908737348284177 9.016663529668218
