16
Energy = -127.00078625 eV
Hf 11.7572490145152 8.990436679886859 10.7855991333418
Hf 12.219802417573849 7.89886092821301 13.240998265894557
Hf 14.273954656861596 11.36763173106793 9.759126265194613
Hf 10.586306879721935 10.246738522689059 13.18259547418275
Hf 9.203415910662189 12.701113261302245 12.194181958732788
Hf 13.356331593205805 13.949036251201306 9.205206641377067
Hf 11.680967274425534 12.009261146876348 10.694222297250267
Hf 11.867698055627534 12.92979473510986 13.709749977730905
Hf 11.436530185497483 14.783659272296758 11.673668169756661
Hf 9.195685228622928 10.195594278075868 10.618026771482786
Hf 9.519526048985675 7.886754501059038 12.202420461757868
Hf 9.739830842152926 14.706860601280319 14.056596678721776
Hf 7.765061031489304 10.061136087557104 12.929251016311929
Hf 16.006822573128588 13.517229620609386 9.69580455880232
Hf 14.003286034877151 13.378927534153064 11.817807869319553
Hf 13.522940819853618 10.514998776738139 12.571986668496931
