17
Energy = -141.52252455 eV
Hf 10.819080507666285 8.72077265342219 7.521291421512113
Hf 8.450771134313662 7.949121768751307 9.262113625676307
Hf 8.755132522754893 10.372703070115232 7.441222259679096
Hf 11.48883901847992 11.66383035200795 7.857123793848042
Hf 11.35329562902864 7.333086227523539 9.826523709225077
Hf 13.063973306616335 11.588737917892276 10.442662974667222
Hf 7.169606100207333 10.677680477897024 9.621413004231472
Hf 12.996648054021643 9.346714849049942 9.064533097353559
Hf 9.81226465309202 7.6126111776916785 11.943091228056687
Hf 10.22682239790569 10.230568133821546 10.239787990431575
Hf 7.644705952778 9.316965295464742 11.831602961112415
Hf 8.813481997851499 12.687743901294017 8.860533448182435
Hf 12.446327953558567 9.09573944846518 12.033929997522787
Hf 10.92131139139411 13.318233515649098 10.319556330995745
Hf 9.845860195441773 9.942320185595216 13.348182632504361
Hf 11.450408073319824 11.903727427428864 12.612663494938767
Hf 8.541335215585521 12.219583511675488 11.849589767422051
