11
Energy = -86.46895838 eV
Hf 12.753442033019862 11.809534752012203 9.585819857382841
Hf 11.734948406315805 11.099063683212618 12.085877923352736
Hf 9.98030191970927 12.413673582269707 9.675120580806414
Hf 10.641820436546316 9.772119916148933 8.756653461842813
Hf 8.363076037990677 8.105755287408318 9.275948911267207
Hf 11.448077373133914 13.672405494229812 11.491723412584212
Hf 10.825467226561521 7.172243974980097 9.819248614711334
Hf 7.85674548016395 10.648227386596021 9.943894631070489
Hf 12.668094819222889 8.971581023045351 10.568651727462889
Hf 9.07845250794264 12.060116543855946 12.296942114263755
Hf 9.677751241408044 9.166012842741964 11.53184487863037
