19
Energy = -157.06506975 eV
Hf 13.178277535767497 10.408789437628279 7.740950195001803
Hf 11.534328780781218 8.191384157065963 8.400567533663834
Hf 10.24607594914144 10.671441494796023 7.99576442202951
Hf 14.788346164142716 11.61706401903935 9.963617870594678
Hf 12.925825249443692 9.480370273424274 10.403953517236557
Hf 10.830439379808876 7.380716367317184 11.080802427570513
Hf 12.152587838499963 12.57822775500757 9.289989976027924
Hf 8.889608494140122 8.435147489954986 9.285119250525097
Hf 13.82476364166241 13.937736871207028 11.034922146541385
Hf 9.236332767048612 12.906347044690653 9.48164991693839
Hf 10.17242849724006 10.622329462075111 11.132715858756075
Hf 8.421474222602711 8.290121658411664 12.006603731941027
Hf 12.832414924552026 11.628719673684513 12.214287299029175
Hf 10.941660067581333 13.855349209053532 11.708177016004246
Hf 7.419221751332566 10.69334746320031 10.518211052395364
Hf 10.816585584229697 9.132203952697232 13.462276372458382
Hf 8.373240085029591 12.841173076624392 12.12869645833683
Hf 10.495223438757115 12.011045862887912 13.9210130910749
Hf 8.199965537199908 10.49209595451959 13.510667242981103
