10
Energy = -76.97151833 eV
Hf 10.561157393915774 9.832455443396864 12.254730769701236
Hf 11.933235213758795 12.25467261464977 12.86670265248588
Hf 10.300889355371359 11.19284842998494 14.737533510288868
Hf 10.831014409003837 8.6278603193476 9.50572944541076
Hf 12.590353150464587 10.689205327340437 10.380326076164431
Hf 12.976413278687428 9.216476504253883 7.97475285670509
Hf 8.973717080602565 10.750610682079913 10.08598329588345
Hf 9.124962130114271 12.270905947484836 12.48487860661035
Hf 10.805020393135283 12.889692370442443 10.299347217455233
Hf 10.94405358710335 11.082263007301577 8.094340866737229
