15
Energy = -120.95077131 eV
Hf 12.817922153916221 12.75065329663348 12.006256164182538
Hf 11.043029522198077 10.785172561261628 13.100077212070005
Hf 9.287504816500775 12.630181777242658 11.504778711001997
Hf 7.981052023841875 11.325879948241576 13.451984374976284
Hf 13.62739490263445 10.132421918905258 11.796319417197951
Hf 11.419405748516779 11.203808144679904 10.159431383008483
Hf 14.084647422196134 11.653376424121483 9.429400884405215
Hf 8.888843712555774 9.644202637015306 11.360619229230517
Hf 11.402700538010404 8.298704072023012 11.509689344770232
Hf 6.743362095947607 11.394872538284352 10.877547383474228
Hf 13.146534046382543 8.97427689676998 9.276622418206037
Hf 8.81146823621341 11.350059627560439 8.849624757991931
Hf 11.956335935939954 10.685242683129156 7.479537602445193
Hf 10.258545374819468 8.7652716899919 8.780626494159936
Hf 7.224344187899091 9.191388534744029 9.111805696938866
