14
Energy = -114.29430903 eV
Hf 10.05564361496117 8.75066434930551 6.350967023705231
Hf 8.902107797596997 8.894498807001021 8.888352884357746
Hf 7.232206742822277 9.40170198752553 6.189646580081964
Hf 7.802831157609042 6.907914709476881 6.95675939325104
Hf 10.378284918012435 6.422815321660656 8.10053107977897
Hf 7.282486545216257 11.507348462798387 7.905185648728738
Hf 10.106881995243564 11.409812008007876 8.560137424281189
Hf 6.235794644712279 8.925051747805208 8.944147579781678
Hf 7.972927717216573 6.334623708507812 9.71395835092323
Hf 11.693855537486403 8.8760445480164 8.848219159381802
Hf 10.462883297919674 7.1928533538928425 10.843971013657885
Hf 7.914245833675124 11.181305767887235 10.487509976347468
Hf 10.45214665842836 10.111970898963664 11.116163596687443
Hf 7.980475456723654 8.556166246774353 11.567222206659263
