10
Energy = -78.11080013 eV
Hf 11.828939604249388 9.391227501227634 11.388397207651222
Hf 9.346834215034026 7.969124866817931 11.750052916020636
Hf 9.470655966018413 10.375840655049752 10.143349980935279
Hf 11.95356980994544 10.403415288664231 8.622737268784924
Hf 7.2198457660845206 10.390059438877039 8.29068222251947
Hf 6.852978027693894 9.392376925590137 11.030193632437518
Hf 9.56314981590607 11.950403282933998 7.776816523031253
Hf 8.059440780234846 7.808549184651204 9.195971737056327
Hf 9.662625438291245 9.29178493181018 7.2956322094104085
Hf 10.933072850658787 7.832868165936946 9.377370255859114
