19
Energy = -157.15763019 eV
Hf 11.051523155263597 8.691240616332726 13.820534461911125
Hf 12.55835153137442 7.6344024208502335 11.7012856836164
Hf 13.475614822575443 10.114387460287121 13.087306407068523
Hf 11.876562969595838 8.483203301855358 8.957679102410584
Hf 11.160040993980452 11.670297389147557 13.699586611626517
Hf 9.474209538954453 8.036692770897677 11.304810305554568
Hf 14.051614277070316 9.712068673741168 10.417441946928102
Hf 8.832624207154018 10.193540729459961 13.247439614419491
Hf 11.27848605754706 10.132177448814428 11.306329736383663
Hf 7.187706170042842 10.428128156484965 11.032659700968729
Hf 12.680979261098141 12.439800496755945 11.194636509912495
Hf 9.36183070365871 12.522568970373795 11.524979870628467
Hf 9.342020925675358 10.388531494500485 9.133240434514152
Hf 6.682578922311402 10.119333150418358 8.199089911660925
Hf 12.819062637547821 11.17960370198855 8.512533930354959
Hf 7.51193885235869 12.560143585689977 9.281207905619366
Hf 10.556036272648024 12.882741320375255 8.636429686570784
Hf 10.873737499367657 10.528485260148486 6.737991857393457
Hf 8.447497374601213 11.894972744715375 6.81186484381571
