10
Energy = -77.92051569 eV
Hf 11.534394062412762 9.026411742097299 9.16227702534343
Hf 9.58523727023146 9.887339375484038 6.904388944881534
Hf 12.718693193647058 8.850407104782406 12.01756575203588
Hf 10.85198597674898 10.53605841468878 13.512265489918624
Hf 10.04136572793889 8.762395848751808 11.636563917098957
Hf 11.787963574794862 11.2055955107032 11.06294017065907
Hf 7.709461292647412 11.58042206844065 8.393913105842099
Hf 8.643283384115897 9.23216876537633 9.35266094669816
Hf 10.38371096823632 11.664891845423368 8.7801744835346
Hf 8.899330446795446 11.404769798219005 11.262742061298265
