10
Energy = -71.22809762 eV
Hf 17.31181942776162 14.001365293052764 15.172529945981342
Hf 14.628993870138375 13.366743272222479 15.583541510031283
Hf 15.9968870455357 12.110819891211237 13.416083737628865
Hf 18.08119632853097 16.113135093841407 13.619359980397862
Hf 4.755874266347323 13.919449116686454 14.709518306355898
Hf 18.588156924256563 13.440474466299433 12.82345465383617
Hf 15.262831562651424 15.95729271719769 14.56322263024035
Hf 16.205113939436075 14.646458578382607 12.300510747126438
Hf 13.624339575137437 13.917715593025957 13.109230899067812
Hf 3.693860676152152 11.918692796929603 14.836855111957796
