10
Energy = -78.00533443 eV
Hf 7.5619614205661945 8.67111762977404 7.028380614829349
Hf 8.013822426740829 5.9753670934035155 7.1237138470685935
Hf 9.268053574595776 10.646243312920316 7.8742325593221025
Hf 10.196987283380262 7.954165603238009 7.842814296304387
Hf 7.356885204046171 9.604103380290058 9.713564815968338
Hf 9.54797149838499 11.584708813757254 10.43137109674812
Hf 5.817734279573895 7.244823998413667 8.57521233126332
Hf 11.738413727880285 10.311129556776496 8.98746280835622
Hf 9.991304951505915 8.88520529740127 10.528058224922841
Hf 8.292032581769835 6.908302262469394 9.680356353661166
