18
Energy = -145.83010514 eV
Hf 15.662641171086888 9.362113014404697 9.240857125315557
Hf 9.498679965150027 11.512610013147778 13.49619645407488
Hf 10.164718717853471 11.721094345029965 10.63230575843777
Hf 10.463909315977633 13.95010705744118 12.349491014187906
Hf 12.71988698140814 13.135114640878529 10.218372090706168
Hf 17.150787654204354 11.222837352846764 10.818855953027995
Hf 15.117023830721665 11.982284461863077 8.978846130436658
Hf 14.76308441696537 12.28576893557852 13.749686809126707
Hf 11.406130101244369 15.679088181204861 14.619118803305057
Hf 15.46209628190265 13.502891579245865 11.251351669815127
Hf 11.31995863578205 14.367907920267013 16.994182161765377
Hf 13.275207933495482 14.54295577030115 12.85865130180146
Hf 12.168200714909823 11.291221052168641 12.418431344055772
Hf 11.976001939589425 12.642643735660364 14.897227835421972
Hf 13.83576465926367 14.685602865601316 15.640170484768726
Hf 9.29783573858374 13.88269225785732 15.01373446931817
Hf 14.681900298207738 10.408423396042144 11.523843594490778
Hf 12.744442064454864 10.332823797342703 9.53705329815845
