19
Energy = -156.12156806 eV
Hf 11.407359919721717 12.798100590015663 13.253642593107712
Hf 8.598382879167145 12.649167817281969 12.907534045072957
Hf 10.148573581563024 10.540693882318452 14.18119987818794
Hf 12.946314495221257 10.401629004969498 13.26705496220871
Hf 10.210672810933398 13.39377099665707 10.71124759861604
Hf 8.206719808925033 10.023439604441082 12.272215180067851
Hf 12.939467314121389 12.685643976943284 10.979323881288394
Hf 10.389467528147847 8.081764802503244 12.671269103895067
Hf 10.991562059238522 10.363716716863607 11.037381135103523
Hf 14.462824525002802 10.496727274477113 10.801621991415848
Hf 13.180623789621908 8.18012064621575 11.523047847068781
Hf 8.392820434537468 11.429463392696961 9.52800720875799
Hf 11.07579850608683 12.045974603559207 8.39924569296476
Hf 8.652970927167736 8.342962057508686 10.244466299289112
Hf 8.866168865805552 13.898211904748711 8.03880062532244
Hf 11.201629982695678 7.431445830560069 9.907943656286712
Hf 12.913143872772364 9.392047920214912 8.79974101601044
Hf 10.100108017289969 9.424748246963931 8.116312207793618
Hf 8.7534154182017 11.705728950817749 6.658282701147474
