12
Energy = -94.61938499 eV
Hf 8.415739686937094 10.039197350622784 8.678871705582901
Hf 6.580455117966942 11.054244190868703 10.465279626995313
Hf 9.079950344937997 12.334904026837668 10.122009068392728
Hf 11.182155387259796 10.353230509763037 9.689874636095373
Hf 7.919330304220126 12.072103491832165 12.64403978777183
Hf 8.91353873669006 9.76921906103218 11.41772416136908
Hf 13.160962795857314 12.264939012923916 10.633176553540558
Hf 12.914350128056583 9.721511133157263 11.962779223854456
Hf 14.110965681144874 9.916329015776064 9.448741861504725
Hf 10.851273789626141 11.726202530474344 12.35607959976474
Hf 13.619885058941813 12.028959273867612 13.370836457495724
Hf 15.446221361839807 10.93565349088766 11.630151372286234
