10
Energy = -78.11723858 eV
Hf 8.877602926849955 11.511868991767201 10.259795162274026
Hf 8.135945480552877 10.632137425851747 7.7285563241278625
Hf 6.544007841044975 9.958687618458598 9.906956454021072
Hf 9.688934261142142 8.37272459098087 6.864254155190063
Hf 10.128504811984707 9.25850518785885 11.417788448482181
Hf 6.868319428033036 8.151702804492555 7.479943165669246
Hf 10.81824288500169 10.099673904023447 8.859732536076367
Hf 8.40249710658998 7.963168102844712 9.732981792203987
Hf 11.005590290852973 7.335248815800366 9.226447337272063
Hf 8.825864074550411 6.012002484023023 7.80370647936209
