16
Energy = -127.354852 eV
Hf 12.903082228840654 14.144880779710071 10.259431527813748
Hf 11.292725776477843 14.299692993409083 12.621942287968011
Hf 13.773259284579918 10.67448916456523 16.334419254830973
Hf 12.264720818705802 12.634916623568287 14.780864228759793
Hf 10.26325571172635 9.969880267970243 11.073623315099072
Hf 9.748782235647822 12.864937632560384 10.593057395738953
Hf 7.748475934715179 10.926424420158392 11.228689418873156
Hf 14.12269730321803 13.031331016773375 7.9357767855248005
Hf 9.711452921772324 11.956383855474671 13.32029065484164
Hf 8.986171656357788 10.876768553134253 8.772572578480641
Hf 12.351729807264753 11.558581570722485 12.083011870155264
Hf 14.165764164272895 13.697604565786598 12.769419814345648
Hf 14.694988538459285 11.973457739795014 10.424734209183962
Hf 11.714940300542734 9.971008269616505 14.484337723446659
Hf 14.371794548052627 10.802475005574642 13.757748186463981
Hf 11.964946999491074 11.581826708978227 9.131579608670972
