14
Energy = -114.17254013 eV
Hf 8.529242668820531 9.029277740433324 8.570582460006896
Hf 7.737240921228892 9.618204336529267 11.186217295533986
Hf 9.80501208242938 9.08612629457815 13.134696529394168
Hf 11.65921556296925 9.054882855825383 8.541457183771465
Hf 10.446688747720712 10.391492238034965 10.608970197160017
Hf 12.282358358246745 8.640517898189092 11.587472176013625
Hf 9.835439388586062 10.754955568737486 6.984789184354949
Hf 8.670539153184453 12.06408701266438 9.343885662381899
Hf 9.078044289634802 11.867392491390595 12.436024710450768
Hf 11.645731940621143 12.179424172156715 8.36072999788834
Hf 11.221689920313416 13.140010784825906 10.95169174022497
Hf 11.908984282370488 11.212370503876425 12.992998491532548
Hf 13.219152288128814 11.128547876195503 10.419839408990406
Hf 9.734568847592254 7.606618226562643 10.654553188219511
