18
Energy = -145.03356551 eV
Hf 10.28704081618461 7.570937125272403 10.992649649479551
Hf 7.578505786816541 8.08973344626943 10.21060165329894
Hf 13.268868550338054 8.395378995428633 11.67104627437271
Hf 9.705176796428258 8.16437685897637 8.367995888924263
Hf 8.396808575810645 8.733224616728226 12.755733031461121
Hf 13.781907570360277 10.278953971841256 13.688182502598451
Hf 12.016352011071108 9.50996706270233 9.132662352831213
Hf 11.10995053696621 9.68823011260587 12.95753952397267
Hf 9.39579220826089 10.323780157643217 10.36139363016876
Hf 11.884122104627615 12.398104238416122 13.644365843363584
Hf 8.90815027792643 11.509115118558588 13.133457643377437
Hf 9.96261641519406 10.843238485644859 7.482354649720043
Hf 10.507821225247167 12.889489138893456 11.239923507544438
Hf 9.047705038754852 13.18786799418969 8.712370380399673
Hf 13.180154980740912 11.208855059227123 11.156299164231688
Hf 11.878452867319758 12.668590574946885 8.716453803448351
Hf 12.934881651961218 14.060641992146284 11.135582141056577
Hf 10.780665369793416 15.142309089667764 9.53720034971435
