17
Energy = -139.23615418 eV
Hf 10.4683581744668 13.49108839177869 11.091226717092338
Hf 12.117789036497802 9.08539646951444 12.414230050309719
Hf 14.962550394146772 11.686593126269328 9.753292664637902
Hf 13.019790263098187 9.896357954595882 9.430377431873321
Hf 9.262435269773581 9.627818934383116 13.408874241511262
Hf 11.149180576719678 12.201744845937322 8.533455393989607
Hf 8.375838468134363 12.075908657819237 12.460670735434542
Hf 8.900294067534915 7.979646392204338 9.04223621709166
Hf 8.264097440648346 12.566648536466522 9.733562114988352
Hf 7.438914398888821 9.773672631546388 10.871921491871044
Hf 11.07660226622528 11.676155542412518 13.36664745998904
Hf 8.519890197085282 10.540247251320727 8.043432900722793
Hf 10.991532632701585 9.395062398435808 7.667201518114708
Hf 12.748861356970032 11.986550684957589 11.185233689379501
Hf 10.197306998150845 10.358946370119506 10.59350484659978
Hf 11.606393904735436 7.570064174011377 9.936006036232973
Hf 9.527363067224126 7.599559565482476 11.71503415637617
