11
Energy = -84.92282993 eV
Hf 13.816772314756031 15.327110957639551 11.967680518944466
Hf 11.481501078681067 11.220064565979639 8.836226704601854
Hf 13.156117048274048 10.399100116847306 11.046199393502954
Hf 11.483758569767597 14.212101785315939 12.907399947148244
Hf 13.960687969009733 12.719123735104315 12.936143229202758
Hf 11.797128390862659 8.78918171553588 12.980690168295338
Hf 12.552883642089844 13.142565609596815 10.572248255716676
Hf 9.136714107320408 10.179865670761579 12.89419298937502
Hf 10.49294525940912 9.46382378785159 10.665683533351865
Hf 9.836293065577271 12.23723148144257 10.995208099870757
Hf 11.485750197663261 11.51038221733596 13.398878803400848
