19
Energy = -157.95893027 eV
Hf 10.93413167916412 10.73857355197904 6.760003772543682
Hf 8.199442000621763 10.764242494295651 7.234138957765257
Hf 12.11169584365396 9.019217228292792 8.861238922992904
Hf 12.55945571056122 12.087043846089879 8.588133574302104
Hf 6.718932781234242 8.526747004300224 7.943067043038756
Hf 10.105103095592302 11.10394327694172 9.617930996271722
Hf 9.658738549672778 8.083599330858735 7.128336755427395
Hf 10.025313974710663 13.19864961610545 7.816654809684007
Hf 8.080428619615018 6.165939044364081 8.81542586938485
Hf 6.368363685238122 7.824978122279278 10.661424487656571
Hf 8.924152269840018 8.647725329894943 9.794254854405805
Hf 6.911262122710877 10.637777733532616 10.011464853203968
Hf 11.22316114391347 13.400433759998508 10.722391212074704
Hf 10.82164062858704 6.566946112473298 9.53369518203326
Hf 8.807135287498987 6.529591458319194 11.663432946675572
Hf 12.529967680918453 10.944433718025259 11.201329560515475
Hf 8.136824943848948 9.20624703218989 12.477341384578654
Hf 10.069227429084505 11.237310156779438 12.521790632073545
Hf 11.023891212648357 8.525469842395006 11.85681284448646
