16
Energy = -130.15871084 eV
Hf 12.201462869610893 13.044843334109665 8.759116346630597
Hf 11.983185380144208 12.277577196194295 11.419836983069116
Hf 9.640110775367777 12.451335721194324 13.027907750407733
Hf 9.407647513474284 12.88237464473703 10.229106782376325
Hf 13.38569026017897 10.558297042746384 9.527782828312352
Hf 12.928433736015322 11.068745837571631 6.869172789231676
Hf 10.614952953695335 10.70726538701575 8.390071392069975
Hf 7.383525676068275 11.354294615597702 11.897742225376726
Hf 12.323162533687812 8.49061780978637 7.863074254334964
Hf 9.933040443671818 10.130080450525691 11.250296337795133
Hf 7.925519862497333 10.487909728213502 9.165205427113381
Hf 12.089355628022972 8.185111823355856 10.614177982760618
Hf 7.451873494591156 8.628415908313958 11.362365955486862
Hf 8.717265015456146 9.611842433130454 13.728047101699323
Hf 9.771344555403013 7.296384467177771 12.013693955111922
Hf 9.534679152913297 7.946133208915466 9.25805396421303
