14
Energy = -112.34348945 eV
Hf 12.714626961191453 7.279649047411004 11.723253315754226
Hf 13.589171269324046 8.213029267757037 9.332072824702884
Hf 12.2399263550109 10.008172350025708 11.180336251069063
Hf 10.114027109177531 8.546627011462782 12.41013907981973
Hf 10.936177921490135 7.865074475060152 9.639342281719458
Hf 11.245411494536272 12.620479206221766 10.30239760819874
Hf 11.649710645801015 10.463186909519179 8.327276686667497
Hf 9.96691269119137 11.412604659613871 12.65512694543917
Hf 9.271207900022125 10.090695284079896 10.075275043363435
Hf 9.024769627015903 9.737822868294364 7.294514867917802
Hf 7.342945860188905 10.525693683881162 11.973872594955939
Hf 8.386936371616741 12.834196258993964 10.755374482329815
Hf 9.366792288920971 12.330442662364103 8.1327275245733
Hf 6.933318530998721 11.161649411842616 8.979730195689102
