14
Energy = -112.56181478 eV
Hf 9.23607647897279 12.12296910937182 13.233814818599823
Hf 11.78559628169548 12.31395284045151 11.984087793614355
Hf 10.974710375751526 9.881256311897275 13.221588047027383
Hf 9.638773305090767 13.64518931733393 10.789671899928093
Hf 11.694230051318534 12.372794357441682 9.232488915787194
Hf 12.405231342576046 9.841233975278007 10.490308196866458
Hf 12.124787785430467 10.085116346112724 7.415202916404346
Hf 10.928163517498861 8.039117969919722 8.87310223439061
Hf 9.491071138826776 10.74989669082127 10.843700194142311
Hf 8.20249398960956 9.33314350226092 12.830670443728756
Hf 9.536074499345354 10.849219433050205 8.0897998508
Hf 10.169886789564082 7.893322700433492 11.469117611982554
Hf 9.684724955922086 8.613492543679616 6.611032528033327
Hf 8.206252659197425 8.505708860736446 9.38094579623665
