18
Energy = -148.89117879 eV
Hf 10.723083550059307 7.6804036008553895 7.3467074568715685
Hf 8.27727018532696 9.154642078335181 7.045804886990467
Hf 10.66089184524081 10.687666477289019 7.228967352113656
Hf 12.583438097770884 8.813570757304623 9.374714603203989
Hf 8.346677624994639 6.6954917911481875 8.660161820213666
Hf 10.887593940918894 6.579153368510595 9.965542275493055
Hf 10.13172113518207 13.67286018626821 8.871639173895115
Hf 8.080806838926092 11.529650161244138 8.735351390521352
Hf 9.62352235970565 9.14066436309315 9.60623173279376
Hf 11.411661033217214 11.497299342119861 9.770352927388839
Hf 6.750540842825595 8.901334932249547 9.475467902762045
Hf 8.87793525480494 12.921631344991907 11.182303896273558
Hf 11.612747663442654 13.442290231568423 11.636269349733215
Hf 8.394283817261888 7.427301793377736 11.508276019455614
Hf 7.747293114087203 10.317689910076878 11.612292051546376
Hf 11.258012517288902 8.412141779757178 12.042700134526067
Hf 12.956528534843573 10.67781962791175 11.845527672275175
Hf 10.316203289108406 11.088599898903405 12.731900998947655
