12
Energy = -96.21053023 eV
Hf 11.287025256353502 11.149023951488452 8.27562607764933
Hf 6.227247718982145 10.040103132066672 9.102748524811185
Hf 7.18364389357602 7.580106249117498 10.00176699766923
Hf 10.300623228330965 9.022294937212399 6.755521060176665
Hf 11.739859033925423 8.577805631153927 9.260845951376936
Hf 9.553883708258846 6.820257614497969 8.498563013868598
Hf 7.480814954488684 8.40398973736391 7.217104949999201
Hf 9.810950760856871 7.687371208868873 11.262145183089915
Hf 9.05666611805366 9.677264794933969 9.291633808808616
Hf 7.8258594613143435 9.551056334470832 11.869320842126383
Hf 8.361061602849729 11.029754148536481 6.871097069289581
Hf 10.944344263009672 10.232952553799898 11.365606961401244
