12
Energy = -93.81409467 eV
Hf 10.693754680838666 8.468861010814486 6.524758471485184
Hf 8.10687948600797 7.747452954228707 6.85962018041023
Hf 8.41513266632288 10.475614195500947 6.442933608938759
Hf 5.889147221859443 9.327084722929225 7.223691618284978
Hf 9.82460236817088 7.104210924929472 9.039757290313924
Hf 10.066925408917966 9.967943264176279 8.785440049913698
Hf 7.004026265709295 7.765459906958689 9.421157930474942
Hf 7.364875300183608 10.568627041762072 9.274296009529477
Hf 11.824450553241599 8.862678583188051 10.610227121366137
Hf 9.041803767760818 8.877606111763386 11.249552053752026
Hf 10.548329860361644 11.255875083639777 11.263823504298957
Hf 11.136174657505856 9.494688436989527 13.220844398112435
