16
Energy = -129.75644409 eV
Hf 12.739011516795122 11.047684454555348 12.636030267919873
Hf 13.18799726713614 8.505117655854203 10.689849069607384
Hf 7.611425977304831 9.87194153759626 12.069330982080263
Hf 11.04738177269554 8.088474851148703 8.986004701121512
Hf 10.446036389352228 8.627397779155835 11.856596513787816
Hf 9.787739629404319 11.106168889841106 13.220877635855528
Hf 14.52044756035017 10.876841202706077 10.349434616034737
Hf 10.924902959569623 13.3146327930318 12.179921459604483
Hf 7.550205737976722 12.674373646677394 12.24535570318446
Hf 13.20974927168555 13.194119382414854 10.750653134211682
Hf 11.52391180018083 10.832503561773196 10.150875480314607
Hf 8.507948692294553 8.915944659256064 9.650544900244098
Hf 13.14767212848748 9.70555479427645 8.10740237369935
Hf 9.113500903870925 11.931920181637073 10.253292998140166
Hf 6.620002545372725 11.121725678364893 9.787673135011154
Hf 9.891084401955464 10.384708269834007 7.724322645836005
