14
Energy = -112.26836032 eV
Hf 11.429704783406795 10.593263576506473 13.864813985813646
Hf 13.210330000122505 11.308845930640539 11.225531570484572
Hf 10.388142957451889 11.650321468922332 11.660830757588391
Hf 12.101830991683002 8.901489855416921 11.676435304990205
Hf 8.461529972842744 11.143348700213066 13.402681102254178
Hf 12.963807509346525 9.24146349232576 9.055822895200562
Hf 10.917675629228587 11.113632940534663 9.086259449287716
Hf 9.592349117914052 8.738573612341575 12.719349018488561
Hf 8.005550291596144 9.862427742323547 10.78049740431563
Hf 8.325812685424378 12.362145880319249 9.448848094054053
Hf 9.506330542196451 11.955932059655323 6.810892868109175
Hf 10.843805789710276 9.369111489791159 6.9343592243291425
Hf 10.224485414623196 8.18397480016056 9.594499455073018
Hf 8.352968319929586 9.87776595488438 8.042849042733668
