13
Energy = -103.53097103 eV
Hf 14.426209725761309 11.466870128995945 11.631708402197448
Hf 14.431698256788009 9.779330354203347 9.50638714124882
Hf 12.687840997891673 11.891077527413847 9.564525470452296
Hf 11.525054165828234 12.257736597666467 12.195389950570936
Hf 12.245833990688041 9.637205583691793 11.339284350259833
Hf 11.521412219335437 9.419350536171946 8.599346061716554
Hf 9.843482733153026 11.41065188301974 9.96856586768665
Hf 9.770181664673958 8.23820769901079 10.550175460991397
Hf 9.786257007848326 10.097467265507829 12.88890393268441
Hf 8.31757404871862 12.411832278928305 12.146532826352571
Hf 8.33082712114218 9.533735899544219 8.488600249722081
Hf 7.1084630295864075 11.889582897420992 9.613231195858686
Hf 7.530094795025492 9.810138919328939 11.234442314070877
