26
Energy = -220.76665036 eV
Hf 12.950383154769662 11.239789532780469 8.122421960013291
Hf 15.790661278099895 9.992861232221339 12.029998243502895
Hf 15.211497282058517 11.649916182234778 9.909777484388911
Hf 15.219629417270488 12.9293256474163 12.629138242841927
Hf 13.329020514051834 13.744178111656357 10.058547974411931
Hf 12.852538281601435 14.740375744105117 12.663009411183067
Hf 11.22154487934498 13.727369966933175 8.110889797946797
Hf 14.614199546797677 10.562878111558875 14.526945995463421
Hf 10.405973785420597 14.631337776314943 10.821994390975968
Hf 13.093850936164035 12.990756937622434 14.851257447029566
Hf 10.984841577358722 11.701430169240059 10.15040405175587
Hf 13.208005379997092 11.111761252811393 12.036649789024807
Hf 10.772190166931976 14.727267598563758 14.62755965857086
Hf 10.751193094091246 12.5428470474713 12.932185430829907
Hf 10.018727086266107 11.128378970289386 7.571756768594422
Hf 13.71383946312427 9.01806913863692 10.076520557494764
Hf 8.251662025427947 13.043581621708318 14.363868932111805
Hf 10.373004117610972 12.07308886046939 15.703483971915427
Hf 13.641772509257063 8.373655987471917 12.959271381232949
Hf 8.640338004667157 13.034002258812592 9.047998795333926
Hf 11.08398184890735 9.002882468792405 8.960433716586685
Hf 8.925443431993488 10.397990013224122 13.371749055144862
Hf 7.968493051149506 12.559214998230496 11.673941010459846
Hf 8.619489286421889 10.154261188807437 10.112541729798068
Hf 11.751328656408528 9.838297934366976 14.507748300940031
Hf 11.022401014082462 8.843170584183072 11.793146394786119
