22
Energy = -179.3199531 eV
Hf 15.622011760743224 14.029365062329234 11.63433398659905
Hf 9.767022983323551 10.177871847565406 14.038412305451205
Hf 10.929197896094253 10.636009881770402 11.54021333044431
Hf 8.786610779837371 12.560379235362253 12.476311609218284
Hf 11.127252677706613 8.245716523528607 15.590087872797024
Hf 11.894611060129131 17.646932211374075 12.59035704496224
Hf 12.524029776726744 15.801497150162138 14.761515894990634
Hf 14.695283513843664 17.192422360310708 11.685839781103049
Hf 10.765722995482932 13.530869314710246 10.850559537239782
Hf 14.038402338645236 18.18242194232191 14.19220627634164
Hf 13.797782664332548 9.420440495684666 11.530878592534995
Hf 10.192316795224162 15.272936068449651 13.014340905475473
Hf 17.1384630845736 12.927986367742813 13.54108438854608
Hf 12.680997174926036 10.219425980113858 14.050648018312152
Hf 15.377992843765337 10.794596441371398 13.500508209098784
Hf 15.496231886324358 15.710790785949412 13.981173931650378
Hf 16.338312082458636 11.245336603094168 11.062179239810668
Hf 14.3174068013179 13.277796834440805 14.380286607991316
Hf 12.994917382979434 14.938618909919244 12.110913339224275
Hf 11.321965537296 8.079376049816865 12.92135146741473
Hf 11.326014647302664 12.820815250862852 13.616225418677098
Hf 13.47530734055786 12.108640542383275 11.248230234886345
