27
Energy = -227.1409319 eV
Hf 14.135823881344745 11.47118365956942 12.869023031162433
Hf 14.138402760435081 8.500466611163858 12.625255058787323
Hf 14.32905782119324 14.3939956685238 12.085644739994533
Hf 11.673724622254978 7.335538753314287 12.82251242884283
Hf 11.787962452050133 13.23844189769644 12.768924363392346
Hf 14.616004354310137 10.020448156580581 10.383879566611414
Hf 13.078981920345067 12.485069814683616 10.298228980214562
Hf 12.334191180216848 9.605358473696485 14.5743526546013
Hf 12.154823442216944 15.171492612988134 10.62138312600889
Hf 12.623530230273229 9.971939958790575 8.198487885072096
Hf 12.628091816891704 7.802204846562985 10.131316866022537
Hf 10.131863280475482 11.557285094979143 14.62194052524713
Hf 9.595072898807434 8.853536538203214 14.09294435280294
Hf 9.775232634263041 8.075952481744942 10.802250746163782
Hf 11.81528104669408 10.135828270520799 11.774122823088637
Hf 8.765515682423466 10.57499977973046 11.938602606385354
Hf 7.467545165659847 11.079962733382969 14.28096504222541
Hf 8.68642464177262 13.355710937778506 12.996651779730586
Hf 11.725828655056917 12.850863354245746 7.884440175244303
Hf 9.987863765994472 8.28066294561416 7.822331615262787
Hf 10.511687502557077 10.750827117513131 6.357675754883954
Hf 9.995900634333598 13.307438576939509 10.410701985943186
Hf 7.4627226210155335 8.981910062473816 9.528055695320495
Hf 9.981616662346752 10.727370495658347 9.183011511929314
Hf 7.366080722224859 11.861932951254579 9.721583059894757
Hf 7.850432381992218 10.381667558171523 7.193850247140789
Hf 8.96591985469041 12.98639280542206 7.5812143532112675
