25
Energy = -207.65519029 eV
Hf 14.768931015764997 10.508775219383468 10.758830369750935
Hf 10.487615250660031 12.769185002998634 10.002645045653754
Hf 11.759899312921434 15.380293599260947 10.569325285441392
Hf 12.147584135677999 10.481124628469153 9.653623773090732
Hf 8.948948154465716 15.60069867876379 11.058305606550677
Hf 13.485234919805013 13.033027726216805 9.922382473992215
Hf 10.155815797014755 8.737247840765727 10.564641500202388
Hf 10.514666878491786 17.89764682669307 10.941985942695236
Hf 13.01009004656822 17.44103560502441 12.201973428896046
Hf 14.680782824678362 15.542887808378891 10.83846126228046
Hf 15.429121141372535 7.569782049034516 12.279914377393986
Hf 12.957926153203331 8.428601189820357 11.482061741279118
Hf 12.364000022715219 11.624890889407675 12.551604807082642
Hf 15.356446327501791 12.847389549321528 12.177945381720402
Hf 13.367416035594893 7.583103727704194 14.178157767524452
Hf 10.665298524337436 16.326565281434235 13.21247508642179
Hf 9.297943367264725 10.97405374126165 11.886604229831661
Hf 10.07868967957714 13.587381167346395 12.781189485455606
Hf 14.841958662098591 9.91412891828746 13.591414379344698
Hf 13.284521742840738 14.650512894170122 13.140471115445497
Hf 10.788775410315708 8.904188545725935 13.383146373130279
Hf 9.967935012714115 11.206311363226233 14.600940514187736
Hf 11.760611678388507 13.276321454121994 15.138595686072168
Hf 14.391604839269492 12.451470829387315 14.797162364705112
Hf 12.567871193395684 10.343063590433648 15.365830128489014
