22
Energy = -184.51786785 eV
Hf 14.546948262793018 12.086604857325764 14.371289049278172
Hf 14.10718216952541 10.618660689832774 9.812065542440102
Hf 8.789130461409572 8.901804291728086 11.968206178987339
Hf 11.493071871000355 8.998866771143792 10.5075813040554
Hf 11.934362661746967 10.906324780485452 14.922963882548025
Hf 11.442112131181958 11.56584547100585 9.017596335286855
Hf 15.709669869361113 11.706881006795781 11.92407763649532
Hf 13.731747435249988 9.659528323489951 12.728093572423735
Hf 12.35476367830882 14.372594186596553 9.731700275861712
Hf 15.16315185256069 13.461570665051193 9.944652146317424
Hf 13.67816383781106 12.774032962615768 7.772873815098736
Hf 9.651594468600871 13.273055261038078 13.84829767011786
Hf 11.46957007587905 15.056581405868597 12.32938689906528
Hf 10.55246677913256 11.08528313255265 12.211023100814081
Hf 14.477638564824527 14.517832217507049 12.635088960042781
Hf 12.401458308293133 13.768946365247926 14.571857660607842
Hf 9.062371455168458 10.29796951954747 14.464039544450605
Hf 8.975650954249915 10.694734486173887 9.78790792024039
Hf 7.82320903645153 11.68898095505577 12.18527712735726
Hf 11.161737032808224 8.56606150493218 13.447118055846218
Hf 9.582842977476941 13.49015991647133 10.724937714405396
Hf 12.924654827281493 12.39751432035722 11.883551096994628
