29
Energy = -247.25558052 eV
Hf 14.04547695423075 12.053425360185978 8.425082207625199
Hf 12.075587941039782 11.77025438147764 6.586645897263661
Hf 11.817667903734456 14.156637717367719 8.326216735784682
Hf 15.505527831597348 12.409480877832147 12.278915036519201
Hf 12.702647873875923 9.3326807617788 8.468493478039033
Hf 13.561267401942624 13.629800347179359 10.677339132771559
Hf 14.095860655267819 14.761210017158641 13.515386182488214
Hf 13.927939703205995 10.562504949936992 10.823810604838553
Hf 15.220042555566588 12.431682256723061 14.99956134888089
Hf 11.185461253461808 11.625528552525688 9.349428170436331
Hf 14.397767008919683 9.89541625044172 13.639114121945832
Hf 10.20105189045771 9.840070816163028 7.088165330789661
Hf 9.500938236933573 12.691885178687137 7.217982455749424
Hf 12.279898995995845 8.337670987679843 11.610148204207007
Hf 8.203896705481593 10.744827402844079 8.701865521597837
Hf 13.169354472441588 10.89485679156334 16.06417239440379
Hf 12.946721917703782 13.72315857722016 15.979356572077998
Hf 10.661883875424374 10.759327940856334 12.069726601830041
Hf 9.96648905016394 8.661592133104717 9.751806643334923
Hf 10.979887573774008 14.199849230973186 11.395400926407559
Hf 12.734457429922243 12.310143643300512 13.41403939485634
Hf 11.49766193840042 9.216232996440704 14.471644398860317
Hf 11.077223874467144 14.711516098289241 14.204532114157509
Hf 8.654778487212056 13.138821145338154 10.087207347789331
Hf 9.57713436353864 8.198960504264596 12.565632018708403
Hf 10.552759061218405 12.09384751186128 15.516486962890458
Hf 7.877245204782074 10.501591078774949 11.492016536345881
Hf 8.760541972533495 10.332261681828406 14.215427141093214
Hf 8.90731651549344 12.973668935696848 13.108863076470815
