27
Energy = -230.4288962 eV
Hf 11.416373437235341 14.551554805123754 8.528933446520274
Hf 13.60267530319563 15.31485264102604 10.020561967056794
Hf 15.137350988150066 13.398015518566366 11.185761756712548
Hf 13.98422784355413 12.788647796286103 8.435473793724428
Hf 11.15286278904425 11.944542268244588 7.880338216596909
Hf 9.332945470370749 13.155661053425193 10.005455614936153
Hf 10.756252221403935 15.353689264560357 11.298322919221153
Hf 13.340468886223373 14.836934202983953 12.976895354205405
Hf 12.764014379921761 9.81950713950442 8.820309840840785
Hf 14.807781223885247 10.659872909282086 10.7833887761709
Hf 12.32775258205334 12.693408297350073 10.514190635868061
Hf 8.608770638894825 13.99292923896945 12.753091218364208
Hf 9.596470112477233 10.20215866755465 9.59491093351919
Hf 11.060977504872522 7.666460598162856 10.05411468097357
Hf 14.282547511428227 12.133274617315177 13.595616951934721
Hf 14.056804978309529 9.281514774333754 13.404917306923274
Hf 9.61612630151464 12.39404686540365 15.109508399729343
Hf 10.578167292384968 15.174106392584292 14.301376605454463
Hf 8.547823065606861 11.16484033046037 12.30039812172616
Hf 13.658440872106107 8.084912601658944 10.937609873028016
Hf 11.215547808520787 12.780080142896882 12.980094710279136
Hf 9.142892907086429 8.428594234664128 11.876985868969417
Hf 12.454758087362245 13.422150139311652 15.478555297616808
Hf 11.650264316737138 10.004316514644652 11.772608727986363
Hf 9.837643148027505 9.482895364808572 14.2979921241717
Hf 12.197525324728698 10.660167703866888 15.121902734060138
Hf 11.682263420897858 7.453348787806931 12.969877484323758
