20
Energy = -168.07159288 eV
Hf 11.988219404639205 8.243669493334517 12.558066229644947
Hf 13.028282308190661 9.652626648719435 7.911874070384382
Hf 11.343453749675238 11.145597902541683 9.603188704911778
Hf 11.684213736242365 11.17802599015996 13.285227609932877
Hf 8.909554387604517 11.990516279185824 8.629075403780737
Hf 10.216004942404922 9.5187864197504 7.446712751679948
Hf 13.750776828812155 12.320555708924177 8.78013401292462
Hf 11.531350004860634 11.971450420043283 6.932237092168816
Hf 8.298318085381231 9.036728568023198 9.539914527651263
Hf 11.308036901532043 13.907603695343143 9.08107947004646
Hf 9.441260277430478 7.216143010609262 11.780528806165917
Hf 7.4197537787661805 11.516958259762218 11.046804844312737
Hf 9.7527498950756 8.884419928475351 14.169864589504996
Hf 13.499752464531921 10.085151485478562 10.946553299832045
Hf 9.83109027707233 13.160373012114203 11.521361440846235
Hf 7.364258010562857 9.09887897596804 12.520455913505371
Hf 12.778115467401843 13.003394791941023 11.349982349876994
Hf 8.619882736181442 11.49951847515934 13.63260017764453
Hf 11.36724017736268 7.979808354454944 9.68483421501902
Hf 9.851970022124059 9.996372552164306 11.599320835820562
