29
Energy = -242.77756731 eV
Hf 14.850797421914718 11.677240491629878 14.88215019292762
Hf 15.16254076717227 8.881958186657233 14.341436606494497
Hf 15.888083308859548 10.585520704664722 12.233730286880277
Hf 15.859649659374632 13.435953622566263 12.615817923908766
Hf 15.65286011391001 7.560296996340854 12.036335218808258
Hf 11.838549910936175 12.027435825898612 15.509902965391856
Hf 12.82617578545738 9.347807102920992 15.584876096145356
Hf 12.809928404281049 10.769528604772955 13.027025157509481
Hf 13.203535617701665 13.830762976645214 13.488476826734676
Hf 10.42038947235157 9.73889632000079 14.323927647005272
Hf 12.755150944094819 7.851870831884848 13.008277240681672
Hf 14.387195472600643 15.156723081520347 11.151451616523797
Hf 13.751552397321696 12.384555190537975 10.737588298948923
Hf 13.982538753166606 9.214339164559316 10.60564207235911
Hf 11.265174731912225 9.315907789709762 10.772328753024848
Hf 10.762337279430403 15.085995613348862 14.320577008794071
Hf 10.572165765610439 12.343777826228749 10.41776663333196
Hf 12.30725423596431 14.041422525302922 8.814625292753187
Hf 10.036903582265268 12.487649912773499 13.32006664574028
Hf 10.244347369331466 12.646078617822976 7.461159818141178
Hf 12.274359290602808 11.021125354142816 8.493672640420524
Hf 11.543565424386898 15.134396124761581 11.50170584487798
Hf 8.738890709712315 10.158546948874507 11.81217368188333
Hf 8.88052921734511 15.136956757978092 12.386706999494214
Hf 7.707214118000908 12.644168415480806 8.42169506372737
Hf 9.320962638509133 10.230303224553072 8.777622100162908
Hf 9.350181658150818 14.794890710606618 9.444649521032108
Hf 7.69191101772218 12.756863626800653 11.247978706667514
Hf 6.645001333067562 10.527811439717707 9.823988250157978
