23
Energy = -195.1460246 eV
Hf 11.170054446929147 14.502409722025874 14.30006241332289
Hf 9.983205040344073 11.360998561170398 11.128746046708848
Hf 15.267385182956883 14.457375168821505 10.734145518129573
Hf 14.589413884406815 11.617482045689439 10.231147283111007
Hf 10.633644169252658 14.335798040044095 9.423863781661643
Hf 15.297672617459042 12.856618586480309 13.032256250187245
Hf 13.457461463260717 13.72686894324081 8.632059415917823
Hf 13.033852287567022 16.049093465386473 10.082462322527881
Hf 11.68920399858772 12.440291859443871 16.211819707329152
Hf 10.306799017277775 9.29582042110397 12.990855814534823
Hf 11.251827598866374 9.815546284885444 15.59407617372739
Hf 12.336893537739751 11.482562113785264 13.461915120540741
Hf 13.733075590834753 15.613473348417848 12.962121744392066
Hf 9.377895177821241 13.869383285379577 12.08187315669302
Hf 12.984330441855107 8.628672201234975 13.777170894638292
Hf 14.121140102434957 10.77925485940471 15.5348783989038
Hf 12.475058193298915 13.50305956568174 11.394200477312236
Hf 9.548812861351983 11.857831333759922 14.21358599429373
Hf 10.977736708279497 16.03011508074266 11.88872224892806
Hf 11.852797208911062 11.579474342144051 9.103558989950818
Hf 12.551336332208844 9.567159034885613 11.083080685032238
Hf 13.835107492838143 13.716243533939569 15.195084338961374
Hf 14.971541199823234 10.135602496456666 12.695298430864646
