21
Energy = -176.38016312 eV
Hf 11.786882570199097 10.383955092064147 6.756150237334974
Hf 10.214241116373417 12.69994703372704 7.544337584378977
Hf 12.997842136562483 12.59240006005071 8.095132981984209
Hf 9.082334369818895 10.02137359242268 7.692869126026262
Hf 11.292890969480013 8.216956951743397 8.536606387563321
Hf 13.69101080648026 9.818312575942898 8.91912189668853
Hf 8.544601374093677 12.296958350350302 9.79283146338102
Hf 11.091532878806648 13.80522474902913 10.116869576699193
Hf 11.113380248435872 10.886412152375865 9.552146344744122
Hf 9.206643392577524 8.597813924925443 10.292966102268602
Hf 13.686827355867859 12.143412807915382 10.726859590116801
Hf 12.023999336714509 8.618551133778425 11.426830772846724
Hf 12.319197073643197 13.505639253452491 12.691731670830453
Hf 7.86644206680904 10.541216258551618 11.929375161376447
Hf 9.291444297021316 13.175898065449404 12.643394572259293
Hf 10.798923644748296 10.914846883589734 12.40603442126144
Hf 13.499790895972183 10.923986282841652 13.390129405417055
Hf 9.371933322247695 8.329756117254805 13.093520209134573
Hf 8.913479180915806 10.71044333956486 14.533051397378681
Hf 11.355916724101059 12.166825176403538 14.88179297431042
Hf 11.499034547896319 9.298418507331057 14.626596432763199
