29
Energy = -247.03137512 eV
Hf 12.349285648004694 6.780040718012634 10.741459262327028
Hf 10.805225445200502 7.634734824851733 13.170862131190407
Hf 13.488793671256953 7.9531187320759695 13.180746576375018
Hf 9.125897493352623 8.317207705530292 10.917109379706702
Hf 14.78670320433984 8.54905774781017 10.925625252529148
Hf 10.491123850193151 8.58547560774961 8.498328958738973
Hf 11.965881228675103 9.898242729561279 14.78295784834455
Hf 9.18366856672935 9.874752713418033 13.554024869470718
Hf 11.95946738593688 9.42184584257703 10.932266013661144
Hf 13.423269784673867 8.584228426653148 8.586899302975064
Hf 7.29273819377749 9.86504379476011 8.788588886654741
Hf 14.376212328496043 10.759773524966697 13.024429569482708
Hf 7.115714013215934 10.162987743487683 11.67049106367459
Hf 14.074535970513374 11.340756385742633 10.097489049753912
Hf 11.528451959828 11.626958921348502 12.523659336187137
Hf 12.06942600087725 11.104528474020139 7.995374074573247
Hf 9.506548848691013 10.799358257604029 6.926078219311885
Hf 9.421708550602023 11.281420428121447 9.860245456568395
Hf 13.550364846331798 13.63807635356875 8.416989688955894
Hf 6.651088538026153 12.421325895453409 10.316599514077662
Hf 8.519706798240607 12.720498381309497 12.548843237136959
Hf 11.542217220119786 13.48210153024783 10.218002908469694
Hf 13.743732498619009 13.552180897974655 12.034495628079013
Hf 10.176482910152314 12.284695246085063 14.927426555315671
Hf 12.965696348847858 12.734041875313665 14.693983400268989
Hf 7.597071892810836 12.61528516003048 7.814300625434895
Hf 10.334168331594489 13.437937409051694 7.644131263854616
Hf 11.111313093314024 14.348854079904028 13.092602944924439
Hf 8.767316782242288 14.262024145200641 10.021257061783794
