25
Energy = -211.66823783 eV
Hf 7.967846291666263 7.877514216492937 10.220376560613493
Hf 8.52208032347158 8.16781789977208 13.028288472414708
Hf 7.1464836727745755 10.374076912325297 11.744586011718312
Hf 10.541226338374067 7.072175964643993 11.147845868191796
Hf 10.544425987374447 8.53923179351839 8.559763846845971
Hf 7.9631423125221374 10.306985356566008 8.818890971145112
Hf 8.805066232533134 13.055747552601915 8.615241642959509
Hf 9.758609173559671 9.826227234246693 11.090181703519674
Hf 9.222914422019935 10.997818668888307 13.904574231110322
Hf 10.012627340445517 10.917325513113578 6.992360798443448
Hf 11.241189942486915 8.492431361471356 13.617418851192275
Hf 9.151182009428382 12.832468354903941 11.650747439887072
Hf 11.837494061502923 11.394478592771058 12.279763108962822
Hf 10.883500309293519 14.585688797123629 9.828113081695506
Hf 11.329972255655239 13.339666777081717 7.264390191751621
Hf 13.901573844750727 9.570411218400663 13.084752000313198
Hf 11.25310576273935 11.654916287175812 9.532081954959692
Hf 12.026315307390394 10.77763394653929 15.046534353524715
Hf 12.803848170872856 8.857171475764542 10.43283049609985
Hf 11.171541956873526 13.370198423882343 14.055790853480097
Hf 12.968498778174032 10.69210814957291 7.81903591102951
Hf 12.991831880582549 14.023285401802285 11.707509937937683
Hf 13.481119494378719 13.479540838938156 8.99507466954302
Hf 14.022538072023833 12.35058005330344 13.70670300073692
Hf 14.356485931582958 11.35253852488413 10.751593544373351
