22
Energy = -185.97560475 eV
Hf 14.254511974793369 8.85278250205413 11.208355599077029
Hf 12.829393389681309 10.214756952982883 13.562108833141826
Hf 11.7457195798054 7.98854426535458 11.80616019788149
Hf 15.002921116063783 11.475294487586465 11.791145291604979
Hf 9.853768141169239 9.299708260640346 13.412090352577268
Hf 14.455601701880948 10.756883840680816 9.008158960486632
Hf 12.408221831046738 8.590997189915631 9.056150364713032
Hf 12.28443896146443 10.977404134876178 10.889258574485027
Hf 13.002007921139084 13.14635399818272 12.763129009214483
Hf 9.625930764713122 8.012884476102505 9.850199460757416
Hf 13.777110605394082 13.36038055641196 10.032127467454284
Hf 10.226493065434076 10.078578503371016 7.90021794117786
Hf 10.452730576082786 12.198194670721563 13.491814403754345
Hf 9.438242910255523 10.831084618134842 10.875332483226494
Hf 7.6713443249675 9.810653554955133 8.797594446216833
Hf 11.021178856401786 13.835125499640093 10.631699866681512
Hf 7.374049169458783 8.929003756116625 11.556354159602096
Hf 11.87775421497345 12.328436898092077 8.238105144416165
Hf 7.779722867265537 11.201365989311407 13.26464477971694
Hf 8.846495836695803 12.649973937724972 8.786267016804155
Hf 8.432617122222956 13.482719133474683 11.689604357775535
Hf 6.648090073883821 11.611962261588792 10.666936707525261
