20
Energy = -162.65879035 eV
Hf 14.623741644955386 10.848179009384365 12.623100689414986
Hf 9.288883881254145 10.860756239659999 13.201057154113569
Hf 8.18333858666237 14.293413600040102 9.991344945518277
Hf 8.976039992217359 8.9020968181274 11.18009905733885
Hf 11.18193858941541 9.522205198719615 9.244486477232991
Hf 12.681482833496858 14.840222326691919 10.454489710666248
Hf 14.4304589668722 13.671479628107864 12.177043963280422
Hf 11.915569550886007 12.470794457008111 13.069824232414724
Hf 15.15193008625052 9.964773630206452 15.218735072130547
Hf 11.59845231974937 9.515505989701659 12.036920183248233
Hf 10.647660394122727 13.85969001690892 8.993745424315618
Hf 12.288965369503764 15.404640593777083 13.118733777303822
Hf 13.859908443171431 9.06975800121318 10.416707735388444
Hf 9.621081878786363 11.540489530344813 10.486459794817934
Hf 14.099243401229973 12.65402168524828 14.873099019545538
Hf 9.984510445009077 13.987368800822736 11.994547117376207
Hf 10.245258080167584 16.24831241881848 10.55072244725105
Hf 12.789762245399197 11.82563328556906 10.199434946755883
Hf 13.907254335436534 8.217123395602691 13.345175964245994
Hf 12.475243597167983 10.254260015801398 14.774996929395162
