23
Energy = -193.1288053 eV
Hf 13.496146996415378 9.31465483691959 8.149403269033717
Hf 11.223299387267579 10.496850705557948 6.889720103366061
Hf 11.104953770928523 7.7778744713759265 8.063916566992194
Hf 12.688391595281837 7.806686298056373 10.633531795452608
Hf 14.283670468699938 10.321946957346377 10.514598069831315
Hf 12.910531146527632 12.179416433260986 8.603461003324455
Hf 11.270902831236365 10.080714205112411 9.759360162022805
Hf 8.854995267579753 9.441576895063948 8.076215945028759
Hf 9.364151767925328 7.919730463123482 10.482507393541171
Hf 9.552646786287408 12.255261766642572 8.548834891244617
Hf 10.804926538215236 8.18280772223785 12.852537731528468
Hf 12.96656843947393 9.91774874394499 13.039942211810807
Hf 10.48725054505587 11.479659270927925 12.040652483364887
Hf 8.34448256570146 9.581602025443273 12.958140968030635
Hf 8.449235149980236 13.360226667735104 11.078284247772947
Hf 11.176839229544155 14.154022826332131 10.2180602651675
Hf 7.9548477919840845 10.596964616329991 10.342549094861182
Hf 10.516628558252311 10.171474573477157 14.668816104466028
Hf 13.266537447692565 12.640287148681967 11.582972395674876
Hf 10.151626691020242 14.50374873579613 12.855565334183233
Hf 8.894490776777522 12.406332080602152 14.145867656601633
Hf 12.757163470202144 15.133960081389532 12.577774342364643
Hf 11.911122417992937 12.701118895387769 14.302038672348454
