29
Energy = -247.94813547 eV
Hf 7.400290400591749 11.759196689243451 11.755052797074597
Hf 11.502869287624844 11.830655814990001 15.156442667022164
Hf 13.35169440237684 16.189795491843324 10.64898046258814
Hf 13.493396153370144 7.520770550336051 10.662419100815514
Hf 8.676075869311235 11.783370819368912 14.433106876473598
Hf 15.199721603170676 14.799387455650532 12.366881157972609
Hf 15.29495851033553 8.97559225600461 12.376443406392095
Hf 8.989004795875866 13.40376334390834 9.911793821793134
Hf 9.04169247603911 10.161706690345017 9.916407353819306
Hf 10.821657730266242 11.809677351117713 8.618249575145846
Hf 12.957180505585121 7.7498462406845094 13.397791818850866
Hf 12.8239829631618 15.951635926677078 13.385192686859058
Hf 14.911871266117961 13.970951016794073 9.699951460969762
Hf 14.981294779227873 9.7862915227783 9.707040143819198
Hf 10.731000006125502 14.272470541606408 14.230715703088865
Hf 10.81062650285247 9.362163269503057 14.238180777589493
Hf 11.905044633644408 14.388229357484509 8.962732161564409
Hf 11.989111085440962 9.269042406431087 8.970545847941912
Hf 10.711146829556686 8.06034435904985 11.474925813670213
Hf 10.588761981555162 15.562590332171446 11.464479963017492
Hf 8.407717927603212 14.1525990635318 12.654144854135179
Hf 8.48537339495467 9.402099669249742 12.660735032117614
Hf 13.433607665524004 11.852404572374498 8.734119551725675
Hf 13.772767493637751 13.36803158384302 14.393976477778436
Hf 13.82096845300571 10.365406928966781 14.399252698736099
Hf 15.33094370157601 11.888458723971537 11.918486258091775
Hf 10.25213423627622 11.80605518883512 12.124329371896945
Hf 12.725987549801062 13.517228907278888 11.640042616335888
Hf 12.780546387430002 10.174856065925713 11.645021875971127
