27
Energy = -229.41035224 eV
Hf 14.954527179887794 11.285865973136108 11.822333886372563
Hf 13.10925184734123 10.364983117104334 16.023458535576513
Hf 12.505275498481607 7.896204577435363 14.34426905743099
Hf 13.471862490480055 13.244743019590814 9.434933666061536
Hf 14.18265619158594 8.459663554844363 11.84923338658893
Hf 10.518789960041744 9.882895878950672 15.574401723038084
Hf 12.828234740453798 13.208762716707618 12.239593138394854
Hf 11.442985067406918 12.617493935699708 15.081404050649555
Hf 9.725501956726871 8.482053458578411 13.398837399344007
Hf 9.453686315587108 9.911632494825982 11.05287470946272
Hf 9.208635846818325 11.382099726515985 13.614962782773027
Hf 12.183370576017316 10.426152425844103 13.090306597952532
Hf 14.956576822461734 9.595307528619644 14.167769793113276
Hf 11.788760970624525 15.171049306016439 10.595704976625276
Hf 11.555248644938079 7.96927859015843 11.329927552021095
Hf 7.752994591269473 12.644964366555099 11.051211703877476
Hf 12.972244256560426 10.28999529405587 9.960816284833747
Hf 9.12228207465221 15.069729727604821 10.142699090249167
Hf 10.527240900083939 12.396632190571104 9.807260313621834
Hf 14.28466857901911 12.353365668953314 14.471595769998702
Hf 9.962955409093228 13.904304675774684 12.53769887298949
Hf 10.628795749176689 9.544124281808768 8.431964164043537
Hf 7.992168862314821 10.768827266312721 8.827044204887432
Hf 12.398212758199113 11.677151959793735 7.485599811879536
Hf 8.113877398942785 13.484517839620423 8.24202296846441
Hf 10.997871005288793 14.373446435706674 7.820386296070731
Hf 9.77959998593619 11.819030331904392 6.864703439908431
