22
Energy = -181.02919565 eV
Hf 12.465979176766322 9.04003116358886 8.832494440068436
Hf 11.872486106274364 11.438497210320751 7.310286088314141
Hf 9.572713100125895 10.043532383248786 8.575893126901118
Hf 14.017603891874971 12.370407911940449 9.061121743996699
Hf 10.134073318691796 7.64881009645692 10.05834416065769
Hf 9.305478229252058 12.608896046970155 7.334453400141724
Hf 11.362604196270052 13.774804226046939 8.84110134170946
Hf 7.5346208979897655 8.436020975324704 10.407761134442218
Hf 14.511865435101706 9.96890958122889 10.655838096774993
Hf 11.732276831954342 11.289625301604591 10.393605000857944
Hf 8.73385176068223 12.420703715526784 10.28249111536563
Hf 13.247297094288632 14.631662662022237 10.654820073502849
Hf 12.153983149336604 8.611160114645466 11.876363830093815
Hf 9.46762376916885 10.105085646865247 11.68231201162577
Hf 14.161949958728496 9.926142853958016 13.446532311732293
Hf 6.731129495709846 10.67113803977919 12.154034477990576
Hf 8.562166375708172 12.315049709361828 13.37314002437072
Hf 13.917048158745793 12.36389536079874 12.072446486681223
Hf 10.912432628042039 13.49747933100119 12.018767018840991
Hf 9.265497301917037 7.437151423494432 12.651477861289349
Hf 11.359366647949571 11.007283274283024 13.568568732069286
Hf 8.480186860431312 9.742400052840823 14.321081192805863
