21
Energy = -174.76004679 eV
Hf 8.293618088244196 10.696866452786415 5.929895512706658
Hf 11.105824748296303 11.227637265427273 6.00330265587522
Hf 10.32925089117512 8.784777667770614 6.868120589710133
Hf 8.203388503690487 7.111581365746641 7.8914000275151075
Hf 9.454620194038128 12.311617015870272 8.07785564360077
Hf 6.550773040433401 12.246158426688272 7.790355138414145
Hf 10.944665022824593 6.387258566840615 8.301474610933983
Hf 11.978933053731462 11.11232985359744 8.710487704172746
Hf 12.787100759268368 8.351382251957942 8.64545436149589
Hf 7.65889515295123 9.87275180578001 8.684081262976951
Hf 5.495022079952057 10.64488626764257 10.103221124100454
Hf 9.176708020267148 5.768212018475582 10.254190232125532
Hf 6.928115002318899 7.655078548410129 10.439795421495234
Hf 9.987376076104391 8.718685478339824 9.975948650986776
Hf 12.649869830883809 9.75907040695888 11.026392884546928
Hf 7.598142693769891 12.426980866147991 10.330784872017427
Hf 10.301274425361981 11.61954629943153 11.002223044951172
Hf 11.70140847853603 6.961025502151777 11.293131419612006
Hf 7.8097963511094015 10.043438538097709 11.940866449971658
Hf 8.905048221368505 7.394887321264057 12.441172907149687
Hf 10.658850664779495 9.424509379719659 12.808526784746121
