20
Energy = -165.97890197 eV
Hf 13.72132747463583 9.989398356358738 11.172122688532067
Hf 13.483238476052003 12.432446282074011 9.537219626482205
Hf 12.370301460864933 12.5182132511842 12.227685422632423
Hf 12.213001834245317 10.023029998014643 8.511851872173809
Hf 12.345037358370421 10.293019266364078 13.873493257137579
Hf 12.617463358803938 7.646055369961514 12.78696494800297
Hf 12.179979779644743 7.6605247767884 9.947176603056732
Hf 11.57807335298748 12.922246730096825 7.507344260282222
Hf 10.885980110627392 9.55778474147172 11.579267030751845
Hf 10.145007806401642 8.495098599549696 14.097031400568342
Hf 11.682848091801414 14.570526486697482 9.954841943193825
Hf 10.685649827438814 11.894635906043316 10.018664638925552
Hf 10.042908450813895 6.8546104981746865 11.649356934504711
Hf 9.486990358579895 14.60614994315045 8.244419904583086
Hf 9.442766145170706 11.43245903027044 13.146662327860593
Hf 8.098378685606306 8.84479512789387 12.172213113103078
Hf 9.285461252718664 8.871865379865294 9.338090262302519
Hf 8.628783872381234 11.92585075403581 8.190955077678634
Hf 8.731309897992466 13.67595800084532 10.789330627686393
Hf 7.7771138609204336 11.078917291208183 10.685654487647184
