27
Energy = -228.34798876 eV
Hf 11.886197727499127 11.601211891510461 7.623099399051163
Hf 12.808347627306583 8.935977478559794 8.198438866384736
Hf 10.207704858511635 9.15425458368052 7.3836512473154405
Hf 13.949879327154365 10.951431584730281 9.816673913087806
Hf 8.890905935833771 11.607607926478838 8.126951639861657
Hf 10.450156536824677 13.843227067203175 8.713962884803506
Hf 10.646054005302934 7.4275345018873145 9.760377813922311
Hf 10.925747325519039 10.289977233376149 10.002611465904595
Hf 13.372520436360682 7.978267177095804 10.871109557627635
Hf 12.88957006205065 13.784481655702916 10.003236751968517
Hf 8.259627426111255 9.031665378039113 9.376489234292066
Hf 7.990952793188987 11.408605123771444 11.04567009039196
Hf 15.071390213297027 9.77168565236035 12.240515795248323
Hf 7.972156295929344 14.022031554013951 9.831146398598495
Hf 9.112076331764515 8.895474508827991 12.03638288594785
Hf 11.250752850043463 7.1922370250962775 12.64241965552804
Hf 13.968442721536917 12.409535998364753 12.370663812220705
Hf 10.19166738435881 15.479967357901407 11.117585380850825
Hf 12.579765899625318 14.836536432725813 12.745371933264119
Hf 13.744981721263018 7.8654718351022295 13.742940307745217
Hf 10.685702258243982 12.797102641773968 11.703240688160953
Hf 9.250645914900693 11.601398937273547 13.814453827643455
Hf 7.948079980439708 13.878658754105514 12.579729897447582
Hf 12.005612787111444 10.01962350997928 12.98579109191176
Hf 14.228964117448218 10.565037841624774 14.691646844553828
Hf 12.01003275853167 12.613848288946206 14.533161964888963
Hf 10.084125251388684 14.586454902796282 13.96069421925174
