28
Energy = -238.56697776 eV
Hf 13.534245795979208 15.252916708915478 8.98858101095473
Hf 12.571665211970517 15.99068035239105 11.647551541219775
Hf 10.705247700838976 15.10751197213852 9.523017671954173
Hf 11.896938306204628 13.264766165517353 7.794601412998284
Hf 13.928212184846586 14.402284051771607 13.587277885043685
Hf 14.592497502390167 12.708869377047272 8.63865764793413
Hf 15.253485896099935 13.793060342291938 11.178917616035264
Hf 10.011691027800973 14.6991787216363 12.226142411919287
Hf 11.33513312925155 12.06548151498681 13.567002243814132
Hf 11.518002075706564 15.152105163522654 14.543186122470164
Hf 9.873371977489079 12.040636165269191 9.72080470085191
Hf 12.863882882360707 10.604972761120699 8.38836769158286
Hf 10.536213713582606 9.066450683132421 9.156182643869734
Hf 12.535927187970184 13.196776859021494 10.74800745172967
Hf 8.459513485773051 12.389772036957432 12.22229394832069
Hf 9.00865425444974 9.669986514717165 11.510749160142144
Hf 14.876318372020515 10.6050005614108 10.613756279353803
Hf 11.871689827661728 10.314575463789334 11.346391684811877
Hf 14.615998741151703 11.679675269124836 13.365176368393941
Hf 13.099746615533482 12.837975064044734 15.70069472097538
Hf 13.262709274854913 8.278795142177474 9.91054984585369
Hf 9.158508807606381 13.393087700110886 14.818989166955028
Hf 11.107627712471357 7.567069076508701 11.56137417623331
Hf 8.640730181669221 10.633957825626227 14.293381718035382
Hf 13.671535673269375 8.717921274072928 12.795116381032186
Hf 13.077043221414923 10.11026935811242 15.247825375665899
Hf 10.85754472831684 8.854799112103397 14.10934061769837
Hf 10.664676318404462 11.094002334071275 16.194402531070203
