25
Energy = -209.19042445 eV
Hf 10.363009968532761 11.970665815166036 8.16775785412654
Hf 14.63504512105663 12.937634560129307 9.970184664020563
Hf 12.565445160042804 13.688133562015324 8.113443998114247
Hf 10.234722987885963 9.3544242168422 9.523069539869452
Hf 12.860769133357831 10.88074043405712 8.88848791415295
Hf 9.627406460148274 14.456171665548627 9.31933906740905
Hf 12.901619895055813 8.568173110677495 10.812766994561871
Hf 8.443014671180633 11.897216545352627 10.3367172867623
Hf 13.609084666797017 15.503286421011603 10.11204611193484
Hf 11.595025621854996 12.882415030332641 10.730758397525287
Hf 13.955984014363848 11.041375455576091 12.025911886397733
Hf 9.021834250179502 14.181929107420668 12.011658535212112
Hf 8.286564979475065 9.327135910704229 11.883566796339924
Hf 13.713924537505491 13.958572839639016 12.566529085630522
Hf 10.404435736441101 7.64770610339521 12.040092995362937
Hf 12.526856670160363 8.515829609069947 13.71087698565406
Hf 11.124177228470943 13.108467445148541 13.77607594802515
Hf 11.310696391319071 15.665245595541613 11.668292544153765
Hf 15.479398714723992 12.238507743566542 14.097949287342606
Hf 15.256560059084654 9.483455933593195 13.877428187292479
Hf 10.958214952128072 10.583334344589568 12.057273978979936
Hf 8.428403559734793 11.74534855948875 13.369559344687604
Hf 13.149065700027261 11.030784166878577 14.984290502061931
Hf 13.53352687010637 13.751373556971169 15.361239212567725
Hf 9.837993976472063 9.404853593390264 14.41746420792071
