25
Energy = -211.14944471 eV
Hf 10.628222128267312 9.471713083441784 12.405415552008128
Hf 11.136674235604133 6.667013043185911 12.849991426210076
Hf 12.066249888329118 14.307325684818743 13.167395346748037
Hf 13.246653372223978 8.496052877232701 13.451636976583675
Hf 12.097567402119951 15.831778761644664 10.62631333649818
Hf 9.364844485600882 7.552724122179922 10.716623880007784
Hf 7.921998533284663 10.00223829111476 11.676336460678694
Hf 12.323851755687706 7.985559965058019 10.515066049586375
Hf 8.821861830925238 10.425982098354202 14.485535049968203
Hf 9.553555434830354 12.282304648670548 12.541775133070477
Hf 9.654948080294089 14.814668600301557 11.434760823754383
Hf 10.31952536652255 10.048735433402932 9.478820954060309
Hf 10.442037778337331 14.767502598012916 8.689537387802625
Hf 10.906125764161464 8.493136641935928 15.10309790562521
Hf 10.957147986233075 12.26059759690413 7.738267987056038
Hf 11.998319962337249 11.25682165534433 14.213996835442247
Hf 11.841575464257202 12.854724625044344 10.577376427663486
Hf 13.333091464606582 13.973844278993893 8.452792383903018
Hf 8.585115636217585 7.7530946095571105 13.525901317414178
Hf 13.335539714059225 10.46746543927592 11.566611433201057
Hf 13.081403635038402 10.7766037701103 8.66853252902261
Hf 8.8556997257813 12.552259625830418 9.737812016466377
Hf 14.322803783852436 14.568453169437532 11.247847090751558
Hf 15.026882058963633 12.179156238052796 10.192157046717599
Hf 14.462424995988691 12.564961187769063 13.097658919509504
