26
Energy = -219.1596834 eV
Hf 8.64608493577526 10.242954569369394 9.219843489455123
Hf 10.574374909277477 11.75909708067587 7.59892995824727
Hf 8.229659963547547 11.742606966253863 11.970850526773138
Hf 8.631993735904825 13.214930697280412 9.30974074056925
Hf 10.01192231250236 9.079289331647898 11.832015662195715
Hf 11.603003103648867 9.216006735091716 9.170037927740326
Hf 12.67216496200015 7.5608224129238275 11.595656003411605
Hf 14.655139006246857 9.079634120020245 9.941336943167034
Hf 14.913679119312572 9.056522083207911 12.944854838165579
Hf 12.02242938440339 9.160164040111304 14.2050592795411
Hf 12.904531044332199 10.239763275360183 11.620442030138946
Hf 13.43217107582102 11.754217266872255 8.960471033253551
Hf 10.9050777546813 11.656961569761476 13.26084971399631
Hf 9.100141562071528 10.200704787496791 14.610415806916679
Hf 10.649689100867883 11.698350173896335 10.29856865743227
Hf 9.889506771798978 14.35900944428971 11.873370522764153
Hf 11.53645523776923 14.257553001013356 9.197551790283935
Hf 9.07885154643539 13.191031660221885 14.549996716700274
Hf 12.853669502820539 13.160151895422118 11.62158584876794
Hf 14.566587548678092 14.450248644341995 10.008986556851909
Hf 11.949089534143122 14.254984867154231 14.242148793950513
Hf 12.528461385000922 15.854528157659251 11.67086650908368
Hf 14.807686423009441 14.43274091801993 12.97163329270759
Hf 11.279733118957932 11.706543538771514 15.91784363305772
Hf 13.845528255561396 11.711679176304045 14.123210655680612
Hf 15.393326859019023 11.7690044029056 11.406309091115359
