24
Energy = -200.36223706 eV
Hf 10.856476839256592 7.885040177863973 7.300264781931017
Hf 9.177221230466289 8.235211955792366 9.773840715020214
Hf 8.587930302434911 10.669700594879215 8.055431363144121
Hf 11.352442933116574 10.205441818031241 8.506158658613197
Hf 12.178596179051901 7.624137297019711 9.797454906113009
Hf 13.601663990807904 8.85352557017889 7.642921342078672
Hf 6.7775080460001185 10.06363351578413 10.173141312544468
Hf 9.29302723281094 10.984306144451907 10.860861957397145
Hf 7.510986051924025 12.85778299455552 9.759769367236668
Hf 10.921786757655715 8.59815175069795 12.229093614886438
Hf 8.067635750490014 9.028090063361743 12.572472129483739
Hf 13.70456838277147 8.120287290654995 12.398371657710792
Hf 13.404656081103019 12.180894339997465 8.864374819966882
Hf 7.322960388192595 11.879019371253474 12.602996051941714
Hf 11.9717496215293 11.271230994699572 11.181948870765396
Hf 10.37237708615074 13.069429895631204 8.844126265844588
Hf 14.320069826468847 9.788042556049682 10.32506261772543
Hf 13.198463022550389 10.575836265937756 13.618614761457609
Hf 9.55095983203676 13.894822122450229 11.583948237479587
Hf 9.992313546581057 10.817348531863539 13.864649226598589
Hf 14.407139604817726 12.463477906025132 11.659513383367578
Hf 12.006711930594037 13.238386209570105 13.354596713095997
Hf 12.325503408531635 14.200457389502546 10.704636776173103
Hf 9.228869988788436 13.382721247834453 14.289869340800118
