21
Energy = -173.44911913 eV
Hf 14.7895204900269 10.32076535128327 12.912540389821238
Hf 13.589367715857714 10.34833785308974 10.260128529985652
Hf 12.800476181300509 10.281175231156194 7.253061237356511
Hf 13.306792958539877 12.65073755848754 11.892542778295178
Hf 12.33280559129564 12.639714554546845 9.229102667337258
Hf 12.156463036049757 15.111196910965862 10.758721458898219
Hf 12.143109420189417 10.926416711491258 13.943715381125076
Hf 12.575487974269993 8.550549617372312 12.280262484054983
Hf 11.665947715470367 8.524965105428945 9.213995020587774
Hf 10.508545354770925 8.78829382926554 6.7285674940752225
Hf 10.418028961749004 10.785970377856216 11.279657600987864
Hf 10.211046963151249 8.91401291478222 13.705905010428964
Hf 9.828385866231756 7.669585231880784 11.328935584297676
Hf 8.75507378606983 8.92943946508245 9.189409729852736
Hf 10.675598999641426 13.59424479583208 12.743303328801739
Hf 10.195189473445271 11.206054755109925 8.009276597000687
Hf 9.175724711364461 11.373236151942185 14.100053095613022
Hf 9.747399467153363 13.696405225777477 9.963463411050551
Hf 7.773263801677193 11.408592680989516 9.643457486911517
Hf 7.800568800435537 9.712296092104241 12.091589397503617
Hf 8.128245190197067 12.701487560888141 11.998784393240598
