27
Energy = -229.35220078 eV
Hf 11.570945675811789 9.0257094776612 14.171987676352254
Hf 10.058334045552668 11.503725627609912 14.685190096946215
Hf 13.992436837544663 9.27312144270401 12.51694844649325
Hf 12.788200511884789 11.658100596862244 13.626542939161796
Hf 14.957881901664772 12.102062259748276 11.784465560989561
Hf 11.436058023988751 7.3572923342148195 11.710574596225303
Hf 8.843466698857604 9.016020495851103 13.089726911450576
Hf 11.302071026277126 14.118570234482858 13.770434530978669
Hf 8.58679135330733 14.045629698744433 13.984044114409386
Hf 15.674123894131204 10.029303354596673 10.118069273021522
Hf 7.43107245246425 11.516452694826476 13.538137656427143
Hf 9.783638578505075 12.464376134224395 11.819430539963875
Hf 13.799509926124905 7.9086459519474595 10.062487000168575
Hf 11.45329224831927 8.53010778462876 8.635692509506296
Hf 14.166536692079 9.588146742104286 7.814148588765303
Hf 10.920345062928623 9.959864066623767 11.547746835139483
Hf 7.082161634340523 13.606721602957968 11.683967412694807
Hf 9.006816713635732 8.275962815248949 10.253967640003179
Hf 12.896174148115849 10.90671238823663 10.081610772654335
Hf 9.71910965836507 15.14095006681357 11.349727657116361
Hf 14.538502100163434 12.452892053285115 8.709540830370152
Hf 7.500249514895625 10.757186218157539 10.774451834404083
Hf 12.657798395590067 13.754036481779979 11.33761251470888
Hf 12.026147777162087 11.244156480586865 7.30406403231759
Hf 9.553075164784616 10.713239016479372 8.680898790519795
Hf 8.388369891097176 13.267751783633445 9.317343129119614
Hf 11.186629934239493 13.323255401484197 9.0895778444405
