28
Energy = -237.95028285 eV
Hf 11.166727452211456 8.062589047496324 13.254412904732227
Hf 13.62069868674839 9.66521216393951 13.317519635064478
Hf 9.63131912270154 7.668286185371406 10.84271643299287
Hf 10.9545108162584 10.564793920875363 14.837320689023136
Hf 12.598983739515397 8.423138748224039 10.597535919409685
Hf 13.548738015326283 12.019937598950413 15.235439239161298
Hf 8.575359891835335 9.575183871182215 13.085127805371124
Hf 15.283739117653129 12.070884787151858 13.147198558026767
Hf 8.275586498272126 8.315213040266954 8.209955249522135
Hf 14.38374956021712 10.785105531488671 10.76788732324072
Hf 10.938246954088859 10.45567852865789 11.89581248449713
Hf 7.325857707127237 9.47923979916958 10.45149870239194
Hf 12.439727057193744 12.642016993019826 12.442068423253135
Hf 11.064427534715204 7.723200203982489 8.230139641020044
Hf 12.60185000337358 10.113818947473318 7.790623094192016
Hf 13.660881061575493 14.681322817171749 13.70937994090092
Hf 10.092292257577089 10.331529540369717 9.325808504968823
Hf 12.579765461855235 12.516131866964866 9.444010839909357
Hf 11.260588836197801 13.482142004361755 15.071166141683744
Hf 9.954169967514442 9.774476082846142 6.5587214514629055
Hf 7.921795872732363 11.983188878538709 11.2127958520518
Hf 14.866988286515728 13.758412013579182 11.066031860256578
Hf 7.832291363498929 11.301984583193466 8.187276562872945
Hf 10.590073510302336 15.030698219758667 12.863609287246955
Hf 10.727523613117539 12.331258684832589 7.333290837737789
Hf 9.186740596938764 12.470993838338893 13.610784216464348
Hf 12.49405572654494 15.11788531350378 10.870768900091303
Hf 10.143189704713615 13.401432110657227 10.270890401941505
