21
Energy = -174.12748013 eV
Hf 13.85285426018995 12.403945297796366 9.555357428579482
Hf 13.017261948481076 9.625476223666407 9.187467313275713
Hf 11.417515014478921 11.728805568011332 7.933537825242948
Hf 13.93901367378937 10.640364917645684 11.742396944305547
Hf 11.725751247152992 14.291244948874072 9.528169003625806
Hf 13.19796722040424 13.55950280446592 12.197255142595917
Hf 10.768898392458414 8.728542699704587 7.735977390028002
Hf 13.395120707887132 11.16330839543752 14.283123727594635
Hf 11.442635120620494 7.09868075717378 9.871626893802127
Hf 11.383486329665448 11.871331445848144 10.895179752775158
Hf 11.012583704659717 12.243372335568468 13.848498729016748
Hf 9.723941792984263 6.981626669055951 11.970791070222472
Hf 8.982246885659846 12.975259958964987 9.631454812266293
Hf 10.044816308605336 9.553299585203803 10.459432283536774
Hf 8.392719410740328 7.8117568423278305 9.436945793834637
Hf 10.31266529410262 14.268298693480249 11.994657585507369
Hf 11.34454042343368 9.362330213802224 12.898724319201447
Hf 8.65187040390926 10.465156653087998 7.958437129261244
Hf 8.03806276189213 8.984662602937302 12.506413387227097
Hf 8.597450974504714 11.930255423080313 12.37820498850693
Hf 7.26405788898518 10.557629880079713 10.325302570919378
