28
Energy = -237.6994771 eV
Hf 9.935451985864717 9.613803053778119 15.508857284413125
Hf 10.15204367703744 7.778551285030202 13.319337593734472
Hf 9.149060252431333 12.304188936221687 14.531369462988904
Hf 8.039683145365347 9.759308889703911 13.459069902652528
Hf 11.833833714792254 11.558918881833579 15.540301417081894
Hf 9.198560617387422 9.07965956582477 10.889511422550527
Hf 9.236340970179556 14.631033750007195 12.251747192951509
Hf 8.072294564402371 12.01607587110979 11.680739559509432
Hf 8.512354505773965 11.155351644137918 8.974298657706004
Hf 12.67322980280983 8.888322590733209 14.347324166659616
Hf 11.708654038023646 13.282972670097118 13.268946156694515
Hf 10.823164966988431 10.53297007162412 12.906992878004584
Hf 10.797258012733767 12.31031435971974 10.371442790910534
Hf 11.789462603161795 15.940746743486507 13.211273685219535
Hf 14.800857499480813 9.16340308987129 12.328798378796131
Hf 10.523835643502055 12.235399463984539 7.466310605840398
Hf 12.140228415763993 8.22005837290544 11.3354402085428
Hf 14.101779343817809 11.5582127364552 13.809334598755756
Hf 13.212226056869396 11.105963691764197 10.882065316546633
Hf 11.285181013956384 15.49888349780427 10.604167778847948
Hf 13.827690009651915 14.00918855842251 11.442936760152017
Hf 9.087696460582418 14.097497591577458 9.284555593498421
Hf 15.936463563420187 11.619214038934869 11.521572084439658
Hf 11.057058186371899 9.669612116847329 8.761603470905557
Hf 13.139716050407275 11.340268938854942 7.759000488866513
Hf 15.0178185936165 9.7509123844092 9.424098383522173
Hf 12.445557768266552 14.041949621650813 8.574356268729877
Hf 15.09129504845988 12.65597697114573 9.143938819437642
