28
Energy = -238.83601363 eV
Hf 15.522981008265726 10.260548857278685 9.442597538951324
Hf 14.886124600482894 8.985099729388425 11.818930845118558
Hf 15.143416011262119 11.91769290305081 11.965852101887245
Hf 13.327615283418954 8.211442560406937 9.366497410177871
Hf 13.351305472654461 10.68790552600264 7.686725986663969
Hf 14.402069334396737 12.87801497980256 9.189409913646243
Hf 12.32334465830955 7.59844311124956 12.251242757689377
Hf 12.955491167192324 10.853220667331666 10.56145384150365
Hf 13.152050353174678 10.231921673900386 13.642701090915338
Hf 10.773810339580113 9.464109525149144 8.305236701137714
Hf 10.580892078602332 7.1761363742690305 9.870758998358372
Hf 12.697509887935308 13.706128789733722 11.428263767120823
Hf 10.64205371017574 8.92683627916976 14.225694399370665
Hf 11.36441894437607 12.721410183567997 8.667753193752844
Hf 10.574650914333937 15.278389081118744 10.364632739389881
Hf 13.0270188210337 13.069605412525776 14.02261856435378
Hf 8.131276343781252 8.942494170935083 10.135899580046576
Hf 10.515388404890409 9.70987942887735 11.373700854330641
Hf 8.567929742592918 13.857984854486975 8.97456563021539
Hf 10.430666196782116 14.625939003879406 13.248031065735203
Hf 9.864722408242827 12.579706983905979 11.254513287084611
Hf 9.282545417433766 7.401514879413372 12.320590040964913
Hf 8.70503010368362 11.244803087011345 8.548290856048045
Hf 10.47055398643322 11.755249453867002 14.270888531307731
Hf 7.993968588177753 14.793588981840669 11.518811301760985
Hf 8.171282057083232 10.049710464934805 13.0604477118727
Hf 7.068088402013955 12.004037115123086 10.850782574198316
Hf 8.016881900882582 12.931730971499997 13.530361784922064
