25
Energy = -210.87528668 eV
Hf 13.943922935741723 12.35277019472116 14.623166707200246
Hf 11.136098306464703 11.173094269606866 14.212414673733953
Hf 14.604842188400646 13.856280857562588 12.554449647572186
Hf 11.83156775115876 13.693451684135963 13.238300223174635
Hf 8.979533877162948 12.890195039418023 13.440444860010887
Hf 8.602573963117706 10.041580533231715 13.08987124843294
Hf 11.533429020769868 8.781140901020288 12.610181459157197
Hf 13.286799607681736 11.356570981091918 12.061916825210895
Hf 9.201154220998873 7.516245005427065 11.803927897700067
Hf 10.404387477679204 11.61491515256349 11.25626513904136
Hf 12.314119454918488 13.818501150787574 10.5158155957526
Hf 7.4013629853770615 12.074297450098175 11.37888244094873
Hf 13.3093960043701 8.873327772926809 10.476032582388866
Hf 9.27531394663864 14.176171309270806 10.695304448364777
Hf 12.912589018130193 11.289771654222983 9.00872163312807
Hf 11.422133119730676 6.723104007011111 9.947774998860707
Hf 10.705190531883776 13.04406912997758 8.454148767192107
Hf 10.299945952395724 9.286302976937975 9.569421308514581
Hf 7.3540423209471655 9.349043450196637 10.479633523695949
Hf 12.680047054258207 8.582261513807953 7.891319348562637
Hf 8.481099763949501 6.963123365008971 9.241328693792303
Hf 8.256418125082796 11.83817550682534 8.741798889584498
Hf 10.578522974398703 10.558108327988592 6.992099986134348
Hf 10.243247021076566 7.590394591164352 7.226709731769477
Hf 8.003894528237295 9.26513995104029 7.589069932879816
