22
Energy = -185.96713327 eV
Hf 13.079619799934072 9.082057543684778 12.595942186368651
Hf 14.843338080760478 10.880454883839198 11.012153026571381
Hf 11.805739850853232 7.922451458757788 10.27591282850353
Hf 10.274309235582596 8.233732781375284 12.730003603921148
Hf 13.60509909060393 11.696763527577469 13.540905747629644
Hf 13.002985951140294 9.909682479086246 8.690518208059508
Hf 11.125815839430848 10.673061162123737 14.007015533598896
Hf 12.050169050749554 11.49008727456775 11.088240594093634
Hf 9.143424696307513 7.307214243155448 10.280601828545844
Hf 13.76074142746377 12.584091679351289 8.942762138256663
Hf 10.133799423353338 9.082672253824994 7.988437704822721
Hf 7.469219688769288 8.905815690356832 12.048772120588968
Hf 7.2994697058118065 9.065817817497976 9.14495446790572
Hf 9.57746029256684 10.18109913907084 10.539109502982903
Hf 11.170456602394916 13.479128857096352 12.894605995318615
Hf 13.95742398141714 13.623326026910656 11.576862374450764
Hf 8.679169143511967 11.622873575906041 12.982756326356087
Hf 11.728377029007214 14.241297410413262 10.028462717152426
Hf 11.051230764212645 12.052456648030917 8.140280814788978
Hf 8.288997997431485 11.503837620367504 8.248554918046308
Hf 6.942785371766342 11.417064502197638 10.750101842739353
Hf 9.140122932325676 13.249614121582027 10.539819622911935
