21
Energy = -176.3677731 eV
Hf 12.235458819416216 9.324427273814416 7.493470517088815
Hf 11.374128180661009 12.01536604804261 7.199907925950306
Hf 9.476887301089551 9.733469451320591 7.17687257319454
Hf 8.73916297505749 12.295215137308288 8.12798169948573
Hf 13.092536155761614 8.595756325470527 9.926673707364428
Hf 11.055682603768984 13.513032593050022 9.745787917948727
Hf 13.426794634807157 11.549105495234892 9.245306693538287
Hf 7.895166709247399 9.939257942450254 9.522671023776036
Hf 10.234755956951792 7.938470868805393 9.61242284586728
Hf 10.712455296420906 10.610320503383475 9.569145100680187
Hf 14.04984335004755 10.283476557304379 11.731027483887132
Hf 8.371054254635204 12.400947842601353 10.976732065476458
Hf 11.747332800169481 8.405055571057545 12.450466709124429
Hf 8.840686341142993 9.375101904555516 12.155023880367876
Hf 10.245831720379602 13.978633616656197 12.46333504677785
Hf 11.090796634577377 11.235832424913298 12.253938078872734
Hf 13.141865636243706 13.03107165668862 12.18508893024955
Hf 13.092226691420223 10.53230780832148 14.217867161665156
Hf 8.698074974178466 11.974142836724603 13.830608610002642
Hf 10.375169436975833 9.844312746005336 14.621593403349983
Hf 11.319900904893165 12.640506774136972 14.70989000317787
