27
Energy = -226.53308939 eV
Hf 11.739682680047808 16.108680656705 14.805824103795466
Hf 12.350617937124207 16.22991340936531 12.012980913182814
Hf 10.108259595164942 14.612665423853837 13.158638691745583
Hf 13.125858581303111 13.315787946724049 7.959962762535056
Hf 12.053391455674685 15.553106492173665 8.937830220193035
Hf 11.222498903004377 13.886976506889878 10.799708285201186
Hf 10.26194000565185 12.896612878332995 8.178122156137611
Hf 10.904621786305352 13.209141803001634 15.416329203400132
Hf 9.035168211955973 12.208257640729947 10.826182227541837
Hf 8.623441651000544 11.252428929788898 14.08981501011991
Hf 12.971833038456818 13.924578638307688 13.479842597030986
Hf 9.878867048622629 9.806880623842448 8.833011802238873
Hf 14.128452530811204 14.036214006920085 10.506602730702998
Hf 11.164768302668271 11.572562131598165 12.994305793297144
Hf 13.091938952255992 11.238970965998067 15.2333297496809
Hf 10.448643315590347 10.537322198608734 16.225792756544223
Hf 9.062350000342501 9.689287141580712 11.649034652376422
Hf 12.02541016985591 11.08007141250816 10.148116943820737
Hf 12.047178586454798 10.957543443215165 7.206344169835412
Hf 14.647457779131582 11.173481381757274 8.958142001533364
Hf 14.378581477734514 11.51540066778435 12.175594072263442
Hf 10.210694218855455 8.804669899755897 14.030714382769272
Hf 12.293373432839225 8.556453170085286 16.04603932703642
Hf 11.43141627407261 8.166652144960338 11.036253755153322
Hf 13.132003051502252 9.119837221466106 13.273627645338397
Hf 12.680257415921014 8.717900698501255 8.544267591059402
Hf 14.272900345238783 9.060070463074204 10.754668994233002
