21
Energy = -174.3909324 eV
Hf 15.238518468081425 10.980941613616517 10.703390878238
Hf 14.297863685688759 8.864912222694564 12.7249634612372
Hf 13.729189128044746 8.735705168463799 9.983830965924502
Hf 13.043964824481527 11.270829062318617 8.789319507892214
Hf 12.882273265784601 10.921469310075864 11.883304746804345
Hf 12.734476723635686 13.469635871408281 10.853951539605387
Hf 11.626542535951836 8.063463426498215 11.839169421242005
Hf 11.269302180281299 13.55694843095488 8.694795146454764
Hf 11.088673370268051 8.829045855315304 8.851293789096886
Hf 11.306025338711448 12.94240181161303 13.280394875199976
Hf 10.094777052946185 11.037683556613484 10.715676418961156
Hf 11.276857780654016 10.168179622540839 13.990061731516082
Hf 9.652777562939217 13.95831288202366 11.146923702306438
Hf 9.036994627197615 7.919197071864502 10.475907319052327
Hf 8.122697415779617 10.038229583719291 8.744984990766353
Hf 8.697038141534417 12.917442121633364 8.55736967541639
Hf 9.181996988571768 8.831583731770857 13.186959274502916
Hf 10.450120742606133 11.122954772315893 7.432383365040296
Hf 7.31611307455138 12.27612994090704 10.728157156757579
Hf 8.677583210351298 11.752716001315507 13.243178029913135
Hf 7.302468428278253 9.757481656297738 11.55658718381974
