25
Energy = -212.30022869 eV
Hf 12.82648348502733 13.793308643533418 14.60675862887957
Hf 9.904022171948359 13.604108003538744 14.093033265323983
Hf 11.985527530242312 15.067167239341149 12.058077175700287
Hf 14.566993094452453 11.576228955817408 14.08489987222285
Hf 12.673926234267883 12.36593878008628 12.091725975848249
Hf 9.271051596409274 14.161613960432453 11.315454076057007
Hf 13.226214738841572 9.368791791060348 12.705892939021556
Hf 10.123915842634505 11.464131389139698 12.308014092419343
Hf 14.80785192181861 14.01808121861904 12.598318332903526
Hf 8.763987456501042 10.703696491864601 14.528475351768584
Hf 11.71498436050514 11.127326996788428 14.903632289759717
Hf 13.931462736369353 13.959961591097864 9.95791112815722
Hf 11.939972410912139 8.887314476399615 7.997687927993247
Hf 9.24994356957696 9.152547145112223 8.84575212949797
Hf 10.533626734401773 11.345943992894258 7.513064458706162
Hf 13.885658495353104 8.936307175293477 9.986520623243912
Hf 13.428715197244085 11.526748462875435 8.383205705629605
Hf 8.512640932449083 11.820081733496972 9.692625378992865
Hf 11.118075943447517 7.880596377715479 10.77689004004118
Hf 11.440814368736373 10.5724002076288 10.10247453067928
Hf 15.101049999426497 11.3601811261441 11.1210999574108
Hf 8.382942310285802 9.370483537520204 11.691268250234835
Hf 10.553672141754282 8.779925749732385 13.541116299402681
Hf 11.206060855380972 13.558167129310482 9.314035186384176
Hf 7.537271992342677 12.28581394488696 12.468932504049997
