27
Energy = -228.10072848 eV
Hf 12.859393841249261 15.221751872117162 12.382365990091833
Hf 13.005513478041838 14.93581097468264 9.594457993977635
Hf 13.66497980496133 13.067558972490222 14.093725131557456
Hf 14.973606511267171 13.52213477534487 11.207479810041495
Hf 10.314434010526963 14.94085326222799 11.064529338620485
Hf 8.020757593916256 12.136154532850279 7.894661427333536
Hf 11.001052075529216 13.104991112022432 8.474766180135475
Hf 10.78487589728083 13.621575859909276 13.713898228712695
Hf 12.282645210659547 12.6698795765417 11.123892622618675
Hf 13.786227249256136 12.350390806717863 8.674054087867999
Hf 7.6926532315413825 14.081070852466635 9.702174052492236
Hf 8.086910684221472 13.556825506637042 12.391567739011487
Hf 15.659516219172426 11.38815567044635 12.899779942049584
Hf 9.539014007945353 11.964686547092462 10.437540172031044
Hf 14.429222627256628 10.496595600141738 15.200627854322812
Hf 14.600222764523416 10.214843208669864 10.479639856141011
Hf 15.075222983686565 8.717903820533529 12.942159255282201
Hf 12.609106659784544 10.37579079593453 12.820054910598982
Hf 7.015930884934926 11.315468443379674 10.429746055562287
Hf 8.893513023673924 9.715937982610845 8.602121845503207
Hf 9.394001292725717 11.036790318944453 13.308881843157284
Hf 11.539424716280944 10.90853665772948 15.347137628740793
Hf 11.92542715488467 10.143535353665483 9.282361617479616
Hf 12.637960745588742 7.85915961549139 11.602147391241205
Hf 12.972546178841519 8.201141664100906 14.68017046461312
Hf 10.022201941216856 9.221084092830173 11.196745251665313
Hf 10.462715763012666 8.458116521602546 13.844812508184852
