22
Energy = -181.26326309 eV
Hf 10.564294643133453 11.335136550324341 14.774170052694979
Hf 14.424852210003284 12.408796009847626 13.021123125307472
Hf 10.04171688185012 10.959473463660517 9.50395897479586
Hf 11.989879793909822 8.75384708253235 10.422736507671429
Hf 10.689537281686706 13.835374611201896 16.226186058644593
Hf 11.79833530209775 8.54079608210155 13.354874237993256
Hf 11.504524451133422 13.961007445032314 13.546853344851758
Hf 14.30492002819254 9.616762499194726 12.03861448303951
Hf 14.62232692152515 9.343380600307245 8.854296719211643
Hf 13.551507452191343 10.23413448322988 14.698453537579377
Hf 9.20816777096318 12.467972951248468 11.923014703336023
Hf 12.126420734368761 10.022403867067105 7.804004388683283
Hf 9.382579462536745 15.263835517623122 11.941740672778273
Hf 11.91226214394323 11.155013023751527 12.31249763252443
Hf 9.557402730199502 9.537728071999409 11.956189456143905
Hf 8.689578939283601 13.731243120209111 14.39537564948824
Hf 13.467836292309558 11.564598899402199 9.924791957054302
Hf 14.294003162191514 11.593673486352593 7.244671244926945
Hf 9.112576896670994 13.75407294986413 9.373038603595596
Hf 13.146001024298164 12.76377847261314 15.622226508099926
Hf 11.612202210867952 12.815823750253559 7.936125952809083
Hf 11.56789949338033 13.968154106864617 10.633581848531161
