29
Energy = -244.30491318 eV
Hf 7.9149985694519 9.462445469712522 10.716606653160031
Hf 8.173468632126182 11.483597266141912 12.808025455938045
Hf 7.7007472216569175 11.486642703793606 8.597764489604343
Hf 8.930017781867294 14.007710215233898 8.431202583098962
Hf 10.089960601543709 9.40920474604581 12.769632193137612
Hf 8.48284083944029 13.644855889396155 14.571492763465027
Hf 8.342606315309103 13.769263787979764 11.162311832647395
Hf 9.854176777519378 7.580795330132064 10.531640725296075
Hf 9.467226079881598 9.297450728041047 8.171863189484112
Hf 10.0630263852209 11.471524762828997 10.235174474361965
Hf 10.1747296247092 11.317403664447482 15.042032927856384
Hf 10.134015724152102 11.8895668536733 7.192427581372058
Hf 12.157701742628754 7.545503140731338 12.194147124865403
Hf 10.955353712946629 14.474880062465768 10.269520258429798
Hf 10.672909559172304 13.134805488333424 12.854007430018317
Hf 14.622671974392683 8.849412969962936 11.615109759971528
Hf 12.138555854603059 9.056291142795883 9.79850337504486
Hf 12.771522837424708 9.336105707556527 14.278405563500387
Hf 12.840552334148606 11.136739370772512 12.001724166017866
Hf 13.110462882654028 12.225606547259533 14.98117025465521
Hf 10.95894527168707 13.989628222750087 15.63608421941249
Hf 13.659254417470668 14.053516844842997 11.064843630524177
Hf 12.793574873320114 12.186947752043958 9.052395972943101
Hf 12.309709619355962 10.05718806001133 7.152675370344943
Hf 12.849642741574602 14.929589131367813 13.70772740935645
Hf 14.602772976112034 9.921422783393961 8.841397821224723
Hf 15.254991457933766 10.598088638769898 13.64966210633132
Hf 15.1064529117551 13.34945343733657 13.274148039898453
Hf 15.454421363742316 11.734484449747685 10.902427610909566
