22
Energy = -185.57529159 eV
Hf 8.070311553254605 7.799245030093561 8.53467444835493
Hf 7.264417562495334 11.440796721080272 11.236224019971296
Hf 7.152621868277733 10.41771642997785 8.675665030985565
Hf 7.128169387606903 8.697474560456012 10.985736112020215
Hf 9.033915129291652 12.624265022463335 9.25550250631159
Hf 9.29653239079039 13.059107459173624 12.37956392639429
Hf 9.076216462635722 9.915543798944498 12.897618939196082
Hf 9.700826547280078 10.153452821173111 7.223455637960883
Hf 9.741057949159352 9.657048711307612 9.916911939085258
Hf 10.735901425413315 7.38858772875473 8.232333541152435
Hf 11.102115479420222 14.24492520194827 10.311839718402897
Hf 11.809952613962663 12.273234609583199 8.345587210832358
Hf 11.470014633977078 11.525631803787654 11.249140012453326
Hf 9.67092463406455 7.205974009020886 11.16702089021255
Hf 12.173586272985077 13.804158425763642 12.871571820686038
Hf 12.45070410691046 9.544770674337016 8.115145919489217
Hf 11.126508514807641 11.47884184536079 14.13606254742218
Hf 13.759378322867386 13.09780907580563 10.567158411545082
Hf 12.399124608556933 7.8318236707633355 10.332632788415461
Hf 11.93212005506352 9.021348475722043 12.821499892806413
Hf 13.975616485646592 10.15780542773052 10.485776266293994
Hf 13.744453732790259 11.422657624639998 13.00040757201173
