21
Energy = -174.24761596 eV
Hf 13.784340593214804 6.807806942403922 8.92302857278052
Hf 10.51332757430368 10.559026106829595 14.094237032570202
Hf 9.485670511584122 10.552414052518923 7.825394750118804
Hf 13.693972108183612 9.085000120486285 10.274751343759641
Hf 12.972287152074976 12.395523409611412 10.006411413856473
Hf 11.164001156334534 13.053030341386393 7.98458421831296
Hf 9.924734544145958 11.852441117159831 10.412694703892464
Hf 12.300723471725552 12.221325466775575 12.603954380524275
Hf 8.066622276569733 10.563834455875742 12.446258322386006
Hf 7.245646301246519 10.939258021480969 9.654623627890881
Hf 7.6744225551221765 13.312014222401922 11.254586090665795
Hf 9.67269118492517 13.046592621923644 13.15785829877726
Hf 11.57840528497142 6.9903153739705415 11.062331724850152
Hf 8.832226513035044 8.536672109203366 10.181553724179285
Hf 10.525842042320244 14.435061726906321 10.604205649416402
Hf 12.431248130562674 10.49064971094629 8.052965131358775
Hf 12.623111441569034 8.761697217523517 13.268985846039191
Hf 8.439530866741897 13.30330314086651 8.534281448334323
Hf 11.278119509314088 8.074929501230363 8.575914594203006
Hf 11.261737781380413 9.786502201267991 11.116276047966098
Hf 9.758126159755147 8.160080200202922 12.983594673461639
