25
Energy = -211.35576971 eV
Hf 10.840666261009716 10.918090034534206 7.7665805932288245
Hf 8.96287661101959 10.524387035114048 9.83251864518064
Hf 10.022486181984958 13.145773706037554 9.398083934303033
Hf 13.051806961852705 12.668556604576663 8.459121526533503
Hf 14.510181733884133 13.382713516856604 10.958812745101936
Hf 10.895394081655722 8.534641352293132 9.42279395648055
Hf 9.3018480293648 14.811542121733165 11.916247219124358
Hf 13.243759880464275 9.647564106280933 8.333905682381848
Hf 14.89483400037331 10.825669982444316 10.03303386624697
Hf 9.329457199026466 12.114832438541182 12.149755666858065
Hf 11.942712548269652 11.096142231413165 10.541802516100189
Hf 11.97561087037891 14.763465388423336 10.715781973519094
Hf 13.179370046878626 8.585357062378934 11.172540547344216
Hf 15.271277010188504 13.310487366339846 13.879405294246787
Hf 10.205031775166617 9.13851154159966 12.108603899178318
Hf 12.201527183028466 12.724149713364302 13.248677197252798
Hf 13.797160163914858 15.316163018595761 12.809088735557546
Hf 14.643839567881196 10.593926990710717 12.799723214643544
Hf 12.20999427550872 9.645822231628056 14.082964408439457
Hf 11.292140355442832 15.73525518303022 13.506350672598117
Hf 9.538222988467973 10.808936058878011 14.531786463773098
Hf 13.980713437124352 11.437860133185463 15.35671929176459
Hf 11.459042762523442 11.763556086502595 16.151145131550745
Hf 9.813975181841641 13.707361668246968 14.789293319344779
Hf 12.900466111371426 14.263629645913717 15.499658717869035
