26
Energy = -219.50649433 eV
Hf 8.053400852633395 10.688424098635263 13.51443741998742
Hf 8.874212325445267 8.868227658167298 11.651661103001777
Hf 10.72744801630875 9.86597551902849 13.774939321012171
Hf 7.025355592556904 11.222606964891199 10.702829277435887
Hf 7.441174234383563 13.209801523947343 12.922172872076477
Hf 9.725681092101961 11.967206487784878 11.285337570944197
Hf 11.472040760698077 7.882419464634658 11.665369859118425
Hf 9.156684637808782 9.835343204287133 8.913330187838014
Hf 7.752400509853429 14.124912724362387 10.355588909108555
Hf 10.089047414630798 12.721660113531902 14.162047966318482
Hf 9.577048022676848 14.886152650339795 12.313397584616464
Hf 8.665118646141785 12.48703014047426 8.464466693625372
Hf 9.62308219450641 7.002749867549589 9.556689740342451
Hf 10.635477043514529 14.311159820502677 9.677683586281066
Hf 13.073133224405689 11.630745111236466 14.150288472576369
Hf 13.28749875112197 8.763400985932885 13.50890834684496
Hf 12.180412500169743 13.84265090701435 12.258767956492987
Hf 11.759721466751126 8.864608416545355 8.932392486343604
Hf 12.79955795271326 10.815013319427077 11.293661682019074
Hf 11.36832006923342 11.771158613364038 8.35071686187315
Hf 15.379583612448632 10.278939667392242 12.86301657987082
Hf 14.836085429159306 12.93961276855716 12.25846563845998
Hf 13.606535858662708 13.18831793985705 9.65243637353808
Hf 14.35208044849545 8.495738901934095 10.664048926872072
Hf 13.87853355122866 10.513475292542354 8.439114938753569
Hf 15.679853357098208 11.167548207186183 10.285842855032778
