29
Energy = -244.88656943 eV
Hf 17.42017200392418 12.004592730163687 14.488981752428403
Hf 15.028922518472852 10.780707750149393 14.903007798900175
Hf 15.636035626920885 12.881098801947246 12.529137651000259
Hf 16.265908515699444 10.027901387752943 12.419588174191455
Hf 15.236239017303333 13.651247122207632 15.304148428496447
Hf 14.193659575123768 8.257569564478539 13.40875375623919
Hf 13.75854228477685 14.980858769112215 13.073554853468268
Hf 14.827190898774777 14.762052494736832 10.176295759243121
Hf 14.508230300676631 8.63822404706696 10.567892317560995
Hf 12.678308142250652 12.527185933602365 14.546944818380243
Hf 13.358140563490009 10.635605941801876 12.254762866228278
Hf 11.98186572505766 8.107379756764416 11.55710878967575
Hf 14.934974290329368 11.622458997072725 9.993782391611123
Hf 12.117425650553187 15.102448876456641 15.730757401723245
Hf 12.399122934814407 14.087602300927779 8.452794111223877
Hf 11.070011123318258 9.867377721450653 13.877967691299622
Hf 9.31585418995067 15.82185730598191 15.478183926854248
Hf 10.864748056912136 15.37285803584587 13.182592272671553
Hf 12.395208994009373 16.043731777363227 10.62494615230537
Hf 9.965908069926284 13.156922760218661 15.248007308728683
Hf 10.527207630997474 12.434891573154642 12.373651115809256
Hf 12.659659093051067 13.200622747719608 10.955358746938042
Hf 12.36796870907752 10.319135467837707 9.492774936471335
Hf 9.782227990163166 9.93649029774423 11.088281967136687
Hf 8.233184941256793 14.056491983338953 13.25432611959895
Hf 9.935982646875534 14.665004117517746 10.190672131097523
Hf 8.376292652784679 11.123055452808257 13.45434894377354
Hf 10.203942818595532 12.145073935201086 9.103934710470964
Hf 8.080527108976835 12.315917893204539 10.883577437559504
