29
Energy = -244.00037294 eV
Hf 12.209219924322552 7.80835357276061 9.78461022046298
Hf 14.818359943605229 8.507873900773593 9.884635222042574
Hf 16.01496328733636 10.203177234766997 11.883189001681007
Hf 12.991625042691181 10.019999013968972 8.075678580527576
Hf 13.514744666330598 8.436415289693995 12.430412781184403
Hf 10.160235062212054 9.139230006543167 8.522935422244077
Hf 15.602282307079701 10.980416922278073 8.934077607080326
Hf 10.616578112004268 9.678167871121659 11.287803725025679
Hf 13.38122114955639 10.951056266714989 10.886272221243589
Hf 10.753654816349908 11.939669678060879 9.009583680088545
Hf 15.70839111102395 12.914005972481961 10.856390431125583
Hf 13.58562478344154 13.060379922574974 8.809720427398174
Hf 14.62079306307596 9.884162862593657 14.614343626349484
Hf 11.90403290480128 10.525729227791143 13.900647415324784
Hf 14.515492620572722 12.327065928425863 13.378309227789762
Hf 8.692136564909442 11.054775425049286 13.078843163041688
Hf 13.032575057230414 12.027401283009047 16.011977799015607
Hf 8.316453629230066 10.928381810152388 10.217243063037975
Hf 13.412164610295973 14.48909546327008 11.436939547236987
Hf 11.26868104284584 14.672809371579236 9.63252103407452
Hf 11.03414230022414 12.663415877392161 11.957552217422336
Hf 8.699575055824406 13.851091529468519 10.562087915268053
Hf 10.196741125145653 12.677997284408537 15.388820442246951
Hf 12.412599484794324 14.311370323572483 14.347237736841391
Hf 6.531852296847501 12.338703017023127 11.90299617117358
Hf 10.563186075182806 15.515602073735026 12.262636418699701
Hf 11.684319328805847 14.367562398474782 17.056847061330053
Hf 8.429065731951336 13.91608779355307 13.443021357314736
Hf 10.042430092681093 15.559697783780953 15.324199281660585
