26
Energy = -218.83619139 eV
Hf 9.340131713764691 10.41693971356039 15.28206217097075
Hf 6.907109408611267 11.411120982704974 14.076650200331219
Hf 12.015538532233352 11.876034742243267 15.221023226603831
Hf 11.85161526183298 9.04400477197218 15.527047025767812
Hf 9.314737812489605 12.797293118060304 13.720985836188754
Hf 14.110615134123805 10.154425885999085 14.340640021340148
Hf 11.74189908217819 14.07965020844984 13.304276714722386
Hf 11.326533284489026 10.055189759689876 13.053335787185716
Hf 8.641959639045975 10.134350184119151 12.312804880303103
Hf 7.706846175542357 12.674462953588804 11.35734082820984
Hf 9.968216866073712 14.947794764838884 11.206361978543011
Hf 14.392822795295118 12.987324059744845 13.456990404189984
Hf 10.5496394700584 12.201074718587343 10.87076989579556
Hf 8.91268783340703 13.408238684599445 8.818492825642174
Hf 15.884607276456002 10.702862831019097 12.342064580243012
Hf 10.878059202090691 9.172815551348686 10.202961229994123
Hf 13.812717663957018 8.63456494749145 11.450032555885395
Hf 8.46535337190889 10.667801914247688 9.432626081981907
Hf 11.476557350809461 14.267630332637772 8.748550126346975
Hf 13.133713897530237 14.5092956540672 10.980546994528058
Hf 13.13319158654117 9.650819305246577 8.694201508749176
Hf 15.52781328606719 10.364903610354261 9.653730361045941
Hf 10.946417067514401 11.378863075782132 8.059588954817555
Hf 13.30505790230974 11.396368077012074 11.200335320613526
Hf 13.748456848151989 12.522100763965128 8.526842814560192
Hf 15.644873859725974 13.042901730729804 10.75932912050341
