22
Energy = -185.56943835 eV
Hf 11.987906386926129 8.204736855420782 8.977092156409007
Hf 11.72677114581696 6.921096075908687 11.228751924060074
Hf 13.540404021799004 9.263042479144437 11.248082793681032
Hf 13.035865969721975 10.716041321832849 8.481237439857145
Hf 10.107179677803428 9.675365735563316 7.511977172167926
Hf 9.207851722840276 7.739222302591928 9.848854768277764
Hf 12.049834435032938 8.344316414693385 13.645351386059327
Hf 9.416663864740881 7.387372833100176 12.782522835585837
Hf 13.356693629062672 12.046429255602844 11.079476315502545
Hf 11.097594065226435 12.429939113178344 7.020837143764128
Hf 10.677116160029932 9.607836137238788 11.50347916044188
Hf 12.572110319327809 13.57400063340857 9.141382566064461
Hf 10.515115421616846 11.55993148580351 9.676778062620485
Hf 9.69453230212461 9.779448004305483 14.263464578848158
Hf 12.088241475230443 11.305564190634719 13.41777177387991
Hf 7.795526610678399 9.734710660849798 11.980544915814137
Hf 7.766505105784565 10.054223559364923 9.237195731485317
Hf 8.396769562282357 12.11411741184439 7.7713893208579
Hf 9.83362283112668 14.220455707450412 8.9446402958756
Hf 10.976997633219217 13.668068452476007 11.634734296169187
Hf 9.270038819610928 12.034779257231456 13.071152316358155
Hf 7.9955861410145035 12.615342889429176 10.655546428338642
