25
Energy = -211.47085353 eV
Hf 11.947590172464244 12.678490950059436 8.925201905154642
Hf 9.140081489322776 11.328097194675923 9.592836935487124
Hf 9.7393096720799 14.271923316703685 9.844124375226373
Hf 11.49332599948827 9.783886913651871 8.87834895728392
Hf 12.248976484027123 14.85072095435183 10.964957222242337
Hf 13.973998921818508 10.714404693528857 8.48383583912345
Hf 10.616076340227954 12.283685882261127 11.835275524991015
Hf 10.379054144329038 9.029445107531428 11.28572131030025
Hf 15.905481771328084 10.236003495255053 10.286775918329434
Hf 14.666784208383357 13.024056738378901 10.218622454461805
Hf 9.80247710811476 15.028727202800814 12.664719509302174
Hf 13.665229715187026 8.240327747765898 10.187973733050143
Hf 12.497280857607949 8.348428905876032 13.020156133049571
Hf 15.130855039455943 8.985343717852656 12.68573054979801
Hf 13.195134418876902 10.747028182498797 11.370095819907545
Hf 7.8066113394800905 13.100483918853316 11.498641406444227
Hf 10.634803400312444 10.29330918774166 14.083177381314885
Hf 13.680827431778628 13.46788404323095 13.021490861470154
Hf 11.431786569590008 13.237499452995788 14.757400202566359
Hf 15.76620381535174 11.725203298520412 12.671423350954491
Hf 8.323053089223583 10.494113679936078 12.354521141643197
Hf 13.622183670639153 10.711269105266606 14.379610448673871
Hf 8.792003478274637 12.676910026944093 14.185753145306457
Hf 12.20125388675989 15.895749929232686 13.921672443055146
Hf 9.904171434778334 15.411560812985554 15.446487889763278
