24
Energy = -203.42519326 eV
Hf 12.683636519757133 14.597946003690081 10.366815030768693
Hf 15.820386744369387 12.200593383665142 13.890334301806016
Hf 13.777131348295823 12.138590541453446 9.114051528523532
Hf 11.595750711988558 11.595718570253789 11.07954379509637
Hf 11.305537501943851 10.821569272729375 14.768988588537137
Hf 10.519386941424887 8.900897883009076 10.407309380892158
Hf 15.24208537769606 14.750211672450135 14.478054878785674
Hf 14.006815308766573 10.322086655155065 14.506260291506278
Hf 12.291114217954963 9.035618466161358 12.612549424630915
Hf 9.490718603211239 10.019484088747845 12.67174501356909
Hf 9.250350503894005 12.780320293753356 12.943082533278654
Hf 15.312301174044183 13.89460818068626 11.593345199206015
Hf 12.612181240218337 15.420267671884838 15.212239134299688
Hf 11.366447269742858 10.544003975126104 8.28522818718835
Hf 14.783362593026492 10.96605960486014 11.667063871756032
Hf 13.599608660438841 16.04949160762499 12.635315736549542
Hf 13.00427750319555 13.15829420815602 13.318280323635198
Hf 10.69102409653135 13.480706102840704 15.332745363518917
Hf 13.571208039937211 12.769256409959576 16.03457301870093
Hf 10.825950223141852 15.269208373486526 12.998846182894118
Hf 13.269974391476623 9.333353101602963 9.913973053364382
Hf 9.02470799788385 11.402763072392444 9.982566849781831
Hf 11.122997288033861 13.193556517490718 8.567969554102852
Hf 9.703657765108783 14.176887273898975 10.604482240717562
