27
Energy = -227.12670899 eV
Hf 16.06138182332041 13.891906291864231 11.608788276111431
Hf 15.642561588548304 10.993004306774894 11.589228770649358
Hf 15.426814334390134 12.674298634935921 9.133340695407357
Hf 14.627753592505487 12.877941715468836 13.875163759941593
Hf 13.856065889918787 8.770883800588145 11.437010746306527
Hf 13.76063905175454 10.365265862168727 9.042632088345893
Hf 13.831847171970939 15.309727529034875 12.608851635088742
Hf 14.262142835410096 15.201935667747126 9.757336550834674
Hf 13.495125233941708 10.358754040259276 13.593717027375453
Hf 13.422856835354203 12.772312073795813 11.18253938806112
Hf 11.028169513098346 10.889939126636905 14.584211474723338
Hf 12.685686194586545 13.107728154494135 8.35011955250232
Hf 11.263822637393984 8.341577420434657 12.80363585702246
Hf 11.799443458483157 8.344141844801362 9.781807531140915
Hf 11.206829275134632 10.806417093204338 11.296544896098228
Hf 11.656480559240327 13.60693543119158 13.594211856435503
Hf 8.241975605913282 7.375771573415524 13.089829356964145
Hf 8.708088584208614 10.182790175320807 13.226507777531205
Hf 8.807517421316271 12.70035994857393 14.806556236998183
Hf 9.137548181235074 8.575601524046123 10.711851179688045
Hf 10.088641642749433 13.170735271599472 9.506037267762633
Hf 11.583827525476389 15.075933239038937 10.906674707326635
Hf 10.779810206059583 10.663169399623591 8.426617796397048
Hf 8.20540352138285 11.229672783371004 10.371424915536299
Hf 9.128098721255128 13.35263183055387 12.146840927329446
Hf 6.510750944741648 9.189140546394128 11.905533893024499
Hf 6.739331519149513 12.085158409310774 12.814420351584475
