28
Energy = -237.05886692 eV
Hf 7.5548639983751285 12.523213376334017 12.40300315387812
Hf 9.255645993321293 9.780237223004423 12.294402900578081
Hf 10.711391285554557 9.459442971225489 14.787080412499394
Hf 7.755788562767404 15.07944867368435 11.06877277774158
Hf 11.209089279706673 7.443588269150129 12.600006272259627
Hf 7.854621917012764 10.316898802262168 9.69379599450146
Hf 13.127179311485849 11.271815142701447 14.990198177820417
Hf 12.509241470074768 14.078416380959043 13.885173705634712
Hf 9.723072023922855 8.122495325285508 10.115616251772176
Hf 10.603078375741513 12.08044564214929 13.404853719805883
Hf 9.672614884286594 14.599234250093504 13.001398923900085
Hf 6.883933015262947 13.12870963637788 9.407111916610793
Hf 13.248043488399421 8.250503768812782 14.649909073930518
Hf 12.541617953801119 9.95881557686106 12.552358289578367
Hf 9.477443873796108 12.664017156593754 10.487281482791737
Hf 14.155375589083357 7.6113416539009195 12.040393270306243
Hf 8.701269946587487 12.161429611430489 7.5741479571364065
Hf 11.670341699979197 10.844375360011348 10.138159848554514
Hf 15.243772560782862 9.906088428536531 13.42173777443394
Hf 12.527996409167843 8.078029483844327 9.720057002712204
Hf 10.320172358178915 9.826527233779583 7.862245886718813
Hf 14.288227678557845 12.431539533502987 12.339183930832883
Hf 11.976357311660568 13.949485309351513 11.04254097884186
Hf 9.197296396287486 14.762343057532533 8.613840048018826
Hf 14.8008184213429 9.991048754333223 10.439304843748294
Hf 11.477397577674562 12.770133043238918 7.9626451870770465
Hf 13.24383639105366 10.339363050374976 7.903229363069599
Hf 14.00138579284483 12.592840003174585 9.479265059188869
