28
Energy = -237.64960526 eV
Hf 9.30738501548314 12.1492469609692 7.432992264380987
Hf 8.334714107493099 13.331344283304007 10.093064607562187
Hf 10.616600626674986 15.11848662450181 10.624400893178136
Hf 10.416109962613671 9.350669043635957 7.611047121279666
Hf 8.779934567826126 14.590745650933915 12.775542948955854
Hf 12.116054975821154 14.216800012989495 8.035415685570541
Hf 12.086048796743585 11.627031319278998 6.808182366320984
Hf 13.176043080132223 14.094727739635525 10.76082516370831
Hf 11.154491457478938 12.17313919611929 9.473256058815481
Hf 7.6808450805551995 11.79459154240688 12.614298190642936
Hf 11.717545093638908 14.427309445931778 13.33554137243022
Hf 8.532680690228162 10.448065380604767 9.845549404877579
Hf 9.531727809200289 12.817207911236533 14.709135986295905
Hf 10.461908003108302 12.497381523339776 12.024654215256772
Hf 13.437584899056759 9.434153245640308 7.7263053481354325
Hf 11.946150019744323 9.543774874082992 10.175117567234455
Hf 10.393023108234118 9.79324933022658 12.328390278907913
Hf 9.48705669309076 7.732326808217609 9.827108049296807
Hf 13.499398570165702 11.552313199031596 12.056541577615363
Hf 12.230669897978176 7.164594307121015 8.977987396197912
Hf 8.43832884786448 8.021804657732005 12.599660216843052
Hf 8.926113520296639 10.12463841477199 14.756478905790939
Hf 14.110520008972216 11.980461937278003 9.024479351091996
Hf 11.806064660071547 10.90242160961394 14.65989043290132
Hf 14.68432911444535 9.327171819759366 10.334227349619892
Hf 13.168189181086316 8.822218548484413 12.944829862952457
Hf 11.147063107593151 6.95124971993354 11.895140617504403
Hf 10.733078812991671 8.09171738487438 14.513078562343964
