28
Energy = -234.76123289 eV
Hf 7.297037924031445 10.441165211935855 14.945781180998745
Hf 6.980551413497256 12.304952648677078 12.629570471369306
Hf 10.275079000062583 9.865995146283417 14.89469671488667
Hf 9.065551878073286 12.496695101858368 14.599118101216904
Hf 8.45746540863896 9.453928749800788 12.666039964849325
Hf 8.761344772932786 14.477296328987254 12.643724581365731
Hf 13.300677648374567 9.7481341604759 14.424915689781761
Hf 11.80008012798448 11.886051881039633 13.28209751070317
Hf 11.176013960912242 14.671906913466119 14.04857761328507
Hf 7.2130414995290755 10.744271939928362 10.362134069459584
Hf 11.369186850597375 8.924620235697613 12.381924300244233
Hf 9.649225949785762 9.138049041864516 9.828528347389291
Hf 9.690097777927457 11.852571666729986 11.327169960625652
Hf 13.633857866631358 14.124623257711905 13.093426668443769
Hf 15.393425909435 7.800621316033563 9.354576335575905
Hf 8.89903394925703 11.491389933936116 8.348220864010395
Hf 12.514962964161969 8.090797533053317 9.530785581486157
Hf 14.24805236378009 8.776193606131033 11.768139834134706
Hf 12.445417507273568 10.970328528958394 10.291660053448284
Hf 11.331739220792864 14.577025145228573 11.23523810964378
Hf 14.764255005044582 11.48182774966675 12.464018873964234
Hf 8.210420469452195 13.727976394559667 9.950365530306973
Hf 15.359047920706413 10.75022564463846 9.744391936034488
Hf 11.35878918340516 10.281507391352847 7.665311664872053
Hf 11.14034965178771 13.18924752798206 8.667855443039665
Hf 14.132786693146793 9.339934872928827 7.527988442524585
Hf 14.002985783645475 13.421206763216555 10.344065900616279
Hf 13.655852413766423 12.06552151403789 7.815999912367573
