20
Energy = -164.91363256 eV
Hf 11.926126195209063 11.194898632993638 7.995261263368594
Hf 9.334232356983396 11.839341468326673 7.715683114667057
Hf 11.285935766896936 13.87437726101669 8.71104704150628
Hf 14.036450759121426 12.533882729727416 9.136308884961341
Hf 10.255000270446436 9.546701533359373 9.542743792115976
Hf 13.218555115252428 14.573783094559735 10.796252031251951
Hf 9.103738116962708 12.295659308458797 10.32732020488374
Hf 13.280377169788611 9.627981598130537 9.773025014026617
Hf 11.846399886580672 11.900587794865658 11.1164401052277
Hf 11.795462711799212 7.991982867307857 11.556973652626082
Hf 10.04130555148574 9.870747077298192 12.643416845916828
Hf 9.698536701274001 12.565524494025718 13.328017781411926
Hf 14.529780770999478 12.337742907374135 12.084474048047054
Hf 12.417510591829835 14.029614073462138 13.37356041044681
Hf 10.451404009810663 14.625621238162724 11.38074343759577
Hf 13.788979290419372 9.58233847101988 12.586740230023436
Hf 11.858672566529135 8.529260114530137 14.363748835884325
Hf 9.945804137027466 10.589157390311843 15.459162551287646
Hf 12.431512394125509 11.34786419847174 14.392868332105518
Hf 10.806087475957447 13.194805585095713 15.768084261144741
