28
Energy = -238.58372132 eV
Hf 11.477761779560634 7.820845057188098 8.259684433571152
Hf 9.51126376063405 7.107448122207779 10.261797684636248
Hf 9.07697174154755 9.466839113996691 8.564527470151795
Hf 12.322020199807191 6.767086510310826 10.749910487216242
Hf 11.53184772424166 10.956458396679848 8.055728217939265
Hf 8.178748126680919 9.894281207187163 11.239278524811294
Hf 13.87683943263605 8.956756605932698 9.60946186785304
Hf 11.152479622482428 9.411619376690645 10.665853497330236
Hf 8.979342958028008 12.097626538837119 7.156928564740127
Hf 6.92264228291113 11.442906320931641 9.105460931187645
Hf 9.556426167454173 10.278356937923219 13.763656836002705
Hf 13.635911598443096 8.43807470762602 12.6443784868777
Hf 9.696346047740166 12.16610755567745 10.078295482457607
Hf 10.713941906293421 7.603952036771276 12.953857362689378
Hf 12.028493418923182 9.382880224738157 14.767378276261303
Hf 13.752436706254946 11.945847715294729 9.585850738624291
Hf 7.786830778059189 14.095787004494643 8.746770389900783
Hf 10.698871456472716 14.11615743048162 8.19947846195639
Hf 7.266652060540617 12.995977488236855 11.435987232771055
Hf 15.175925143492433 10.58071593683607 11.644262868243228
Hf 12.281469529462772 11.412437541660418 12.38937279701457
Hf 9.788768117574053 13.059166393878455 12.981416661403616
Hf 12.106093800714573 13.999869345151874 10.76277952437408
Hf 11.380179337796898 11.991596476686812 15.17429292738128
Hf 14.217899933132657 11.384709758739094 14.370162593170473
Hf 9.392667283562476 14.975478624964781 10.789578522351674
Hf 14.591680762845472 13.219064182668228 12.027231955825323
Hf 12.553872661779028 13.98897253556829 13.713490598713502
