25
Energy = -210.80541546 eV
Hf 13.948199561658413 10.168323459094989 8.523776418794673
Hf 11.268231025364399 10.018984295369409 8.391119480676892
Hf 9.786179518987186 12.212658039411698 9.01980721718154
Hf 11.071674349960157 14.46770194718137 10.26167021716372
Hf 12.465064107790088 12.720532397735816 8.256475686678579
Hf 15.258789587084523 11.657776545371444 10.582475314803292
Hf 15.477492797120338 8.84409723611129 10.600738614509424
Hf 13.829487117170265 14.134197281416105 10.493631323295466
Hf 12.46533531894534 8.544025645032008 10.522836205944296
Hf 9.610780926738537 9.924885512213985 10.851839609461104
Hf 8.660426971268132 12.778419701025667 11.525109107885033
Hf 12.147346591755808 11.460610918218524 10.815372422164039
Hf 16.629955810975932 10.453938843364867 12.638587038980692
Hf 9.66238285849366 15.422566852194503 12.48250159099498
Hf 11.296337738440933 9.15116169779643 13.000640561776352
Hf 11.122490260015063 12.90328841891833 13.231099741192843
Hf 14.011912898702722 9.90448118831366 12.87167889283741
Hf 9.218326258785067 10.826498531565669 13.929078248665663
Hf 8.434560870454177 13.620838901400704 14.2332434780591
Hf 12.608636630558767 15.349841795514338 12.809567513629673
Hf 14.453301466008037 12.89775714428486 13.00374563744088
Hf 13.00034693655312 13.558934655088928 15.377848669208026
Hf 12.095020393691884 10.746284773135702 15.073139743493575
Hf 10.720595552611378 15.21130447005156 15.03663300689525
Hf 10.335137059941308 12.598902359263858 16.04539686734281
