26
Energy = -218.91447558 eV
Hf 11.34209248292873 7.607924795701899 9.598980790682766
Hf 9.808183185899617 8.18043386821143 11.967196317764241
Hf 10.172255836590354 9.747980227953551 14.346454808664733
Hf 12.44898819506306 8.832869652112263 12.430732057394469
Hf 12.887960513001776 10.571608529968618 14.797830718995085
Hf 13.971950693768882 9.548859266870931 9.997035990104338
Hf 14.651602083768903 10.658351375485537 12.571001147259475
Hf 11.076982684096023 12.56440119454908 15.569651055726656
Hf 12.54424213987176 9.325661057284425 7.516644619493697
Hf 9.793892160927607 9.059398026337082 7.445306634421451
Hf 8.445308977640419 8.69739923869564 9.707495004954485
Hf 8.347925445321156 10.640378869228224 11.78983529681186
Hf 15.748481965397298 11.769908582469743 10.180484677916137
Hf 10.969946529079955 10.421220019872095 9.812033150661135
Hf 8.590063478708881 12.180675888929434 14.138697207732225
Hf 11.155573118388107 11.802407743134436 12.712795819380212
Hf 13.372618438866283 11.909837994701514 8.217077227382244
Hf 13.227632144555557 12.631205237973315 10.880277132876747
Hf 13.551639261653232 13.25503867595811 13.810785275420196
Hf 12.175839006472197 15.35504537109821 14.948851262866341
Hf 8.505584407393817 11.510790610541221 8.812486883091639
Hf 10.750953079435401 11.586151702178524 6.9818901099013235
Hf 9.13505665069975 13.458320469705802 11.37480974352985
Hf 9.810569824864015 14.568265074037239 13.905928007376568
Hf 10.956093782903531 13.365235008690618 9.162768223504454
Hf 11.7926827415799 14.89721178841454 11.998690485704737
