20
Energy = -165.42158478 eV
Hf 11.047803877078604 13.884330422579461 9.230088725855373
Hf 11.164630525149127 11.343151743971754 8.02732201292715
Hf 13.592223204585633 12.346932079130431 8.985808652551556
Hf 10.378111771307774 8.720898717636084 12.317056051772893
Hf 8.883746805619396 12.191145087750352 9.31648347454485
Hf 12.383744096959486 14.610204851115999 11.595699307911763
Hf 9.698217661878672 9.592686788447361 9.714755511709317
Hf 12.628168961397096 9.337198149036556 9.238100138070926
Hf 15.045708883928338 10.302402937972946 10.485797829186229
Hf 11.566051101989625 11.533895521721952 11.125564154022468
Hf 13.178350055440466 8.95765276856564 12.035516981949794
Hf 14.470194367367549 12.714521297664202 11.691477888482321
Hf 8.566489705460379 10.924855992163963 11.97499862651109
Hf 10.817748808825419 15.139852968400062 13.980418828716788
Hf 9.556776461076113 13.957626172653018 11.62942816222315
Hf 11.902226106852003 10.235855169389406 14.20746175118096
Hf 12.81181271819587 12.968020026206386 13.933981505461922
Hf 14.862443077560396 10.628427693487332 13.402611379922282
Hf 9.013114695050039 9.76697276072208 14.622370390984317
Hf 9.989497968772572 12.40042970587908 14.042119480509003
