21
Energy = -174.89236756 eV
Hf 10.418882813319556 11.296183940152964 8.00616931097322
Hf 8.143278595891065 11.793879663897574 12.768968537492675
Hf 9.606435549958066 9.231680100031427 12.538295588130875
Hf 10.9543584578626 8.934496631719684 9.707673556057316
Hf 12.148822580421971 7.708564482562243 12.156248883358014
Hf 13.920477079804574 8.969555322992644 10.218064096226325
Hf 14.389703929814203 9.291781393039109 13.05807270042465
Hf 11.88025779436462 9.418172314024766 14.499309984134442
Hf 12.0860311394594 10.41543912738118 11.842233946239421
Hf 12.95405483366858 11.412856334301386 8.93825103854172
Hf 10.476623735287488 11.95435073253851 14.128629258857528
Hf 9.4406058666917 11.554742354180014 10.462097365730074
Hf 9.575181080211411 14.266681076934253 11.996933286695523
Hf 10.92369572821035 13.972248139994024 9.166131429013285
Hf 12.07044834789492 12.993330330423662 11.565577444892247
Hf 13.888761222013835 14.083813086183886 9.669138957095754
Hf 11.84787171198192 14.529179770317159 13.950336029472012
Hf 12.0987813459894 15.705328004458291 11.297328183642927
Hf 14.357669941977782 14.378083087206722 12.512332898758437
Hf 13.545454941055285 11.968788193439474 14.081216462903006
Hf 14.857910586829608 11.681029763014921 11.325085488102424
