29
Energy = -246.57873555 eV
Hf 12.545007834975847 9.99010379013424 8.55242139638544
Hf 13.568531913889553 8.788793726174442 11.132749596829301
Hf 10.53573837309314 9.110853479140452 10.371746760995183
Hf 10.369885179013878 11.651902552200985 12.068848262273333
Hf 15.61568298920232 12.97482414824356 13.799567215234209
Hf 12.991652512408878 11.624683459577588 11.038033000897853
Hf 8.915081854687482 9.909600269270417 14.108722149734614
Hf 13.524791645156311 10.810805184835619 14.061394964456458
Hf 11.469255208531676 8.795776754860976 13.232522758511857
Hf 7.919507761993435 10.428161205397826 11.34529396106842
Hf 15.625728360182368 10.631508614109398 12.112438718505665
Hf 15.212524419457953 15.606065766536517 12.349475823072634
Hf 11.592465712817713 15.081884130148692 15.276826185214865
Hf 9.962126944504188 14.584770053082558 12.942746295404786
Hf 13.501201079240776 13.021893332438779 15.846681744745363
Hf 13.533840157402425 15.25047526401033 10.28932352627851
Hf 10.871601422516674 12.229875320807892 14.821332670327006
Hf 14.323037376210483 15.556155031185918 14.904842773406067
Hf 8.99367630071561 7.720641803749904 12.30386714584347
Hf 12.456525544009407 16.542080554890326 12.777179012452892
Hf 8.018686568082035 12.392205325311611 13.48569759600612
Hf 8.383635550803538 13.300430326384737 10.814684089330488
Hf 10.983736196881342 14.287787377706355 10.208555509201702
Hf 12.902300160225739 13.779113368055025 13.053262988601217
Hf 15.562128468237276 13.236471488339626 10.696640523035164
Hf 10.308654988872929 11.808706211206331 8.997979931357898
Hf 11.451478896328405 6.682100196187993 11.443103953913601
Hf 15.068338773708199 10.703160472317178 9.371531728632243
Hf 13.165526971137076 12.892380334147191 8.531540145703342
