27
Energy = -227.48744897 eV
Hf 14.313154313014836 8.791981212547263 12.22262456388111
Hf 12.907186073770196 10.836904273753039 14.029188139368262
Hf 14.142236232782624 7.570096632286578 9.608495633881214
Hf 12.250029519358556 10.254739753446538 11.034236367259318
Hf 11.531169970427468 7.36843226182244 10.87920515408946
Hf 11.665443764541033 8.375182888437536 13.409695384226804
Hf 11.434894624780743 12.930305792330573 15.121855319821206
Hf 9.405487614513353 9.479944916711398 11.778945486180993
Hf 14.86642938572708 10.354678258955992 9.622987635497564
Hf 14.78688195624555 11.652100403195327 12.09673154904649
Hf 14.453445276949266 8.90700171397787 7.204109006086242
Hf 11.891360034990461 8.638144691496986 8.31364955021848
Hf 9.879351304903974 10.614786982574254 14.449216346125153
Hf 9.091454393357688 8.26490574974281 9.252547764620207
Hf 13.036526987121292 13.798370771685386 12.853665068824771
Hf 13.277128106465394 13.077626192645358 9.999963282869517
Hf 10.417784773427378 12.545908046251665 12.160229939394474
Hf 12.704715676991556 11.30581942350251 7.819801519262176
Hf 10.060419529764639 10.975683156920688 9.12682513198826
Hf 8.755140122837279 13.282226702715915 14.628772394115716
Hf 7.568596141675031 11.781266215042539 12.480030982727941
Hf 10.635393828175994 15.146221492053376 13.686563801549473
Hf 7.380041922429198 10.410383864519517 9.897814592436571
Hf 10.962474353615129 15.080807354343143 10.862998795369446
Hf 8.370475721986073 13.245102269166205 9.882934359714147
Hf 10.866355171189355 13.565173426662206 8.490231683166378
Hf 8.287402821869927 14.616648122831444 12.207304892332036
