24
Energy = -202.80710531 eV
Hf 9.576157861865587 10.998790967179804 13.321600757739677
Hf 8.660983767748311 8.615204490428379 12.04256612891188
Hf 9.135398707586104 8.913565279567761 9.212755908346272
Hf 13.495676225179784 13.704475002944221 13.42682881961651
Hf 8.294312072255428 13.41621320563695 12.501830980188618
Hf 12.285329071748574 11.143544512931589 13.810651461230508
Hf 10.348819115523067 6.929702567219917 10.675666835244362
Hf 12.294833585045936 15.696406700949579 11.962913596176996
Hf 11.20111508792381 12.906784566708238 11.471127326200342
Hf 8.78152254642388 13.714212809560951 9.674652101393143
Hf 11.149358009934218 7.9946342594413435 13.392643512811404
Hf 11.94970639730812 8.505725690427862 8.646751942528569
Hf 10.339329135608349 11.47491843264464 8.831046537719415
Hf 14.338393819911298 9.225279618340934 10.118919137717535
Hf 11.494861666429388 14.634462770661973 9.23965584304203
Hf 8.07517633205281 11.127297294660572 10.744539704578166
Hf 13.051342034448243 11.639816085532804 9.29530997464267
Hf 9.70445165458636 15.550933058634417 11.500030508852022
Hf 12.941727532402751 7.082710684294816 11.124995130780949
Hf 14.548433035278487 11.50108926572722 11.884237440266384
Hf 11.441405308777531 9.72269920126134 11.161436222294954
Hf 10.682993137416654 14.124002218685868 13.983507564712028
Hf 13.859279315536229 8.916634955002808 12.954733084614206
Hf 13.978689521741556 14.011999940946447 10.591966907168676
