24
Energy = -198.73454457 eV
Hf 13.725406435790022 11.619870867995568 9.432509099050096
Hf 12.568148868870235 10.786066988937346 14.878129573015
Hf 8.856681355659232 11.653042512351796 8.377635149054907
Hf 10.271666098878649 12.34416242102011 15.405257608394455
Hf 11.195736620300114 13.370093657740668 8.78006126267084
Hf 11.561730368913638 14.715988847348093 14.527908442189648
Hf 10.059250393809762 11.537686728618764 10.75040797863137
Hf 12.587114999995938 9.926687351425322 11.81970829988349
Hf 15.341285473040822 9.792067157945954 10.970405810057763
Hf 12.157441520217722 12.739328072112041 12.474123099979758
Hf 13.59297614059764 14.358931602051051 10.236058853632354
Hf 10.309878371953113 8.754940107988809 10.164452724973245
Hf 13.748966190319088 15.205282869373484 12.765326653078516
Hf 10.103073884703049 10.550701867462225 13.287933798083206
Hf 11.087649154002925 15.192406327102876 11.411555657904977
Hf 14.733049738210607 11.245560196275445 16.63313963180297
Hf 13.158910485201359 8.708736484818594 9.41679254513141
Hf 8.710751377643641 13.93168105140904 10.087490464817073
Hf 14.51609782806658 13.184958154137957 14.70917774666023
Hf 11.41723573496958 10.509266485076953 8.181690652984116
Hf 15.272658162360392 10.494007819213927 13.882039799118093
Hf 15.114463963219933 12.539011229480142 11.881800508910557
Hf 12.595907150422478 13.02117749909781 16.828871169103582
Hf 9.271245131061184 13.49523263779487 13.023198439315124
