26
Energy = -219.22205039 eV
Hf 10.514762834044017 13.287069943019661 15.937389122079303
Hf 11.870065239978471 10.660545970850569 15.619519241992009
Hf 13.159426932548921 13.399153483679404 15.15156073175914
Hf 8.98106859816349 11.12256011858604 15.03102613134737
Hf 8.616515680975787 13.629694719306524 13.86046874746811
Hf 14.147428165060111 11.462963517545838 13.409416380199803
Hf 15.988553269450945 9.562212760634088 12.998336144625046
Hf 13.20588022657033 8.740466388734706 13.583973525432704
Hf 10.027172484807807 9.03005088895498 13.635533634874443
Hf 13.940723563838135 14.24140467969991 12.472364599463766
Hf 11.129539016954414 12.205555973783559 13.331988595468781
Hf 11.179702837367016 15.074106494180459 13.619268156229253
Hf 8.51492211468099 11.176846111973797 12.14138387444326
Hf 9.593223847410558 14.015220478883801 11.208368841133618
Hf 12.40209710163635 12.439453240091998 10.528169281134755
Hf 11.507652802132565 9.898934068375608 11.51440890385903
Hf 14.225456615381074 9.443771880476877 10.926669706315836
Hf 9.72370248667043 11.556859014432476 9.334454842561675
Hf 15.462082499648355 12.14414382251861 10.966074947941266
Hf 12.050754773038824 15.48630143106479 10.840632116306562
Hf 13.916298240970303 14.07662185963748 8.964983058132791
Hf 14.392881692794361 11.147738597884828 8.6343203124319
Hf 9.326893519066388 8.828768049895922 10.559798567567329
Hf 10.935356686884521 14.283707312968103 8.673396586113318
Hf 11.788339636383006 9.613835879041236 8.710733506109525
Hf 12.07605538823756 12.155442922140836 7.56525890633448
