20
Energy = -167.32598833 eV
Hf 10.035760921276522 13.864613460783216 11.495872406047562
Hf 12.393970076307177 12.038638478863906 11.741082537283134
Hf 11.675643091465345 13.519043241644392 9.125233635731982
Hf 9.530063283183889 11.325807679326484 13.047316869644733
Hf 8.755533106045851 13.750427763480598 8.927427772670837
Hf 7.503999022514519 12.435414030834668 11.158167145725747
Hf 9.920283890473984 11.470179519817052 9.911906775223075
Hf 12.921880808089835 10.811878872567515 9.102096171749585
Hf 13.737460040838348 9.328821902551189 11.40465985561942
Hf 12.014646131016434 9.74815956253107 13.711599272359914
Hf 7.442574902741971 11.160599138991316 8.571119402439567
Hf 10.922382354431582 9.43653452482596 11.10620091986654
Hf 11.570335137133979 9.46223498607144 7.1598172203599955
Hf 7.843915914467104 9.468384445614213 11.068599237365701
Hf 9.982400405705562 11.830477739799074 7.1311187530575175
Hf 9.492739303557368 8.33394795544576 13.306711110289998
Hf 11.975296475184988 7.208430696502557 12.314001896134682
Hf 12.212346690915659 7.670749676629589 9.365502107165893
Hf 9.240143280533186 8.808125122672998 8.46822885428533
Hf 9.556188446128159 6.987437829050903 10.738765900616968
