29
Energy = -241.70957079 eV
Hf 13.381852158113224 15.573918468689277 12.629431896309375
Hf 12.088837905685775 16.536645473922153 9.720045791234638
Hf 14.425616780474487 15.17934847104771 10.102077923555061
Hf 11.677160848238756 13.988356970947617 10.764860971907988
Hf 13.863959895143527 13.549300555848163 14.832908715380931
Hf 12.687261738341787 14.160051474216091 8.061471490697683
Hf 15.237036633617763 10.980831145813166 13.841627847392035
Hf 11.262721474800212 14.145647396931825 13.827843728886137
Hf 15.342840778245472 12.75249889691619 9.035237283509055
Hf 14.204781953840971 12.777058471520352 11.970088460485371
Hf 9.957841464328094 14.983191996664251 8.690453006229477
Hf 15.710229717913302 10.567394353874393 10.704601917850614
Hf 11.26310660819274 12.518096176830177 16.08495210543679
Hf 12.332327065627698 11.1965679512152 13.981013757786743
Hf 10.883515640736794 11.302364630438758 11.47819418115084
Hf 13.500331324579768 9.415696129644127 11.947949437993765
Hf 9.16564772104708 11.991504280628902 13.79798677008439
Hf 8.694355833750766 13.298946567258781 11.030950546997213
Hf 10.258891386046866 12.210879132238121 8.821827860154825
Hf 12.984878081029153 11.287268349655308 9.46006602667399
Hf 12.356017008482384 8.116505252517982 14.243050489601261
Hf 6.494735873269285 12.049123553099319 12.71269251141234
Hf 10.129865775080715 9.736034997560495 15.278306359074131
Hf 10.080472440208977 8.603453080371441 12.632717132622057
Hf 12.316127778025736 6.894258963196015 11.571214544094946
Hf 13.947404395760532 8.469916295755183 9.385289148585438
Hf 8.180280212792905 10.474977293499403 11.215171513010574
Hf 11.211986104735699 8.943116298332924 9.867775017861883
Hf 7.472492900800905 9.685813226621967 13.88712460235549
