22
Energy = -184.91139554 eV
Hf 10.751066062507947 11.184315267927595 6.872546820006266
Hf 8.152711070032488 11.14460321185904 7.710968094646227
Hf 9.82535428482293 8.715602233311333 8.195773342260944
Hf 12.697327331889516 9.703218595392045 8.563945890234294
Hf 9.692980793564754 13.742733583122344 8.291927762126463
Hf 12.549869892937831 12.658760528604168 8.285375101801167
Hf 7.671914339609829 9.546031176380984 10.164959218482288
Hf 10.215320127971653 11.595997969955759 9.81012299022549
Hf 7.4022447345169216 12.519354618424096 9.924281954039724
Hf 11.83644042586654 7.102563238879981 9.686810107923934
Hf 9.250599499088638 7.0265648505496765 10.55688688579985
Hf 11.36796670112575 7.315826657959616 12.767386382367256
Hf 8.50952312276174 8.38574490681756 12.77544901843843
Hf 13.652706036988317 8.542086396785917 11.130380871092441
Hf 11.804911943724292 14.024997415952784 10.500343003041321
Hf 13.38484812775996 11.511565251547463 10.897178827122577
Hf 9.21732370227453 13.954542161634823 11.363994365667585
Hf 8.362499020366572 11.350336972671876 12.493746545359796
Hf 10.839598890692178 9.456575540658894 11.247343613706947
Hf 11.226381212158284 12.338437894047516 12.862632343507123
Hf 10.303890329972162 9.862438903500605 14.184814502084361
Hf 12.897675251402196 9.914244409161496 13.347902088017422
