25
Energy = -211.12844287 eV
Hf 11.33721309065129 11.989394375583608 7.451513524055332
Hf 9.43575497884591 10.00926365492256 7.674081187518336
Hf 12.27134735133266 9.225252922205996 7.826071126483312
Hf 13.747065805793056 11.70068164626406 8.655144498580832
Hf 11.790605061390128 13.548502172657207 9.816040379048927
Hf 8.227298506678004 9.994687843187544 10.358745626042474
Hf 9.13694416875048 12.611844372009681 9.07957752322001
Hf 12.588304801990935 7.923754042453162 10.507557541940155
Hf 14.262599796326041 10.191258553384552 10.951013566898883
Hf 11.092942991576335 10.509883347590703 10.079194548981306
Hf 10.078688583214467 7.900167395866044 9.323199264094358
Hf 14.371435893106831 13.094677489380814 11.288704962811815
Hf 9.841976105797873 15.308256055567877 10.843039715373582
Hf 12.617410669235078 15.360871100497699 11.768502336627227
Hf 8.817430191989244 12.803867589714953 11.949836138554907
Hf 14.646774914740368 11.361466625159823 13.455339718910194
Hf 8.566762340088392 10.352020370942572 13.19101074106277
Hf 10.155168430946913 8.279504885260337 12.120931595504567
Hf 11.726155730971053 11.755420770673753 12.671543773052163
Hf 13.33949662819956 13.830369438029411 14.034351674174507
Hf 10.535348272604994 14.639418865170473 13.426990071631426
Hf 12.958813601811249 8.9918545201351 13.22870840876174
Hf 12.589776242960635 11.356011363150841 15.396723100925445
Hf 9.790896543949843 12.2769286101912 14.773352973539124
Hf 10.640304766615271 9.551157459567298 14.695341471772963
