22
Energy = -182.40643347 eV
Hf 14.094055073633646 11.781220780471136 12.063191545068767
Hf 12.153459118233375 9.625702405286404 10.947933061411511
Hf 15.03516648978355 9.730319051133483 10.263409516617804
Hf 11.322423687934908 7.915324960150433 13.093862750377806
Hf 9.272131367926091 14.446628059444445 11.77312310547206
Hf 12.263976402536315 8.386359255308914 15.532796037695638
Hf 9.263593227971192 9.515800066941125 11.880998534015239
Hf 9.837013874910092 12.1484477816201 13.351295052378669
Hf 12.069754869155199 10.650395201107981 13.917117828368257
Hf 7.3673960545663695 10.995922045516599 13.22022969565472
Hf 10.436537435451498 11.077845078575537 8.595549467872537
Hf 15.03315559037451 12.44509513805475 9.432453937108576
Hf 11.45899183701292 12.573292807754145 10.830746933617341
Hf 13.163597303566386 10.71440751618743 8.49710753694177
Hf 9.538051879285407 9.48749572065098 14.729377028562043
Hf 11.467413073506455 15.523577557964426 10.358255253923915
Hf 14.012484322041235 8.901439817801645 13.164959391285375
Hf 11.909955323337787 14.348868714494907 13.051657387965204
Hf 12.494878420835594 13.615713278312542 8.342379507213506
Hf 8.432091007635263 11.929209506604044 10.633619115192596
Hf 13.857114290402691 14.474450961698487 10.962065167099166
Hf 9.657831835925549 13.822948499014288 8.913610480163017
