25
Energy = -211.56871297 eV
Hf 6.487611014455797 10.623711073283818 9.313865596942634
Hf 7.396592075931287 9.092836941080504 11.57498698793911
Hf 7.445317398087523 11.96771163499949 11.44133055354969
Hf 9.195466515040096 10.824358955969869 13.272676103707267
Hf 11.194053996526524 12.694577368350805 13.903892146439171
Hf 8.1362636647639 8.182656297891675 8.615005626405217
Hf 7.90391348116282 10.64706234413092 7.047264376026377
Hf 9.535888482796384 7.4637751736747715 10.977806357414126
Hf 8.263741621045384 13.029568560734832 8.800357859679679
Hf 9.477241037949415 10.52061502975758 9.548304276167203
Hf 9.687892039873534 8.190338132219642 13.583198904674799
Hf 9.744811566526007 13.469528800358162 11.407204717463369
Hf 11.997442386181644 9.91377176371868 14.252589667945687
Hf 11.300953930943631 7.931360884352712 9.001250946758248
Hf 13.84380653740824 12.081891274063711 13.281281161506916
Hf 12.171433745280908 7.794675640479956 12.010170023378173
Hf 11.801439747596431 10.82701174600092 11.473659480712588
Hf 12.483917847899097 13.817669856165052 11.671884169916304
Hf 10.23399681744086 9.21549824767246 6.770355843744477
Hf 10.305858563399793 12.00266632548187 6.975901298461938
Hf 11.591084070641958 13.184000947481078 9.138565705055443
Hf 13.760784577600326 9.021515926946037 9.799524120439223
Hf 14.287576931300494 9.55531367203911 12.415632613500737
Hf 14.237641826212188 11.863735946498457 10.337953286016207
Hf 12.520335316295826 10.66560640031158 8.012451822983802
