29
Energy = -246.56068153 eV
Hf 15.289186021818299 10.76803049682352 9.194140521092667
Hf 15.11045335330098 11.777203682491258 11.677611350319072
Hf 14.879087247190675 13.080975789160767 14.133231696690576
Hf 13.743511811891635 10.214699498873621 13.95329111747289
Hf 13.998109486055032 8.898546708968013 11.13377943481917
Hf 13.675930481297936 8.812885243693726 8.179915785858862
Hf 12.977994652796875 12.357692764279058 15.835647644385974
Hf 13.575732629285431 11.481378074447749 7.1601513562323955
Hf 13.887832397564209 13.394237054575902 9.317355623290828
Hf 14.185855996773874 14.554551598711187 11.885530802704752
Hf 11.319858678055706 9.949476227595062 7.3058703067316415
Hf 12.379993339974572 10.95800969454878 9.922246504327203
Hf 12.317055492290752 12.423113177741522 12.935180959471687
Hf 11.311665842183972 8.242421057476243 9.746954209142201
Hf 11.388850536966972 8.800438708988821 12.62884832286903
Hf 12.51851404124032 14.962188230387438 14.107837527408584
Hf 8.846288872865145 8.509469340406094 11.119584360112553
Hf 11.475312472605737 14.364132604401545 10.681313457997408
Hf 9.703902636917771 11.300542205925161 11.926782381826353
Hf 10.603846776589577 13.45555250225879 15.415493550478027
Hf 11.098765503660793 12.816215970165556 8.128421043658735
Hf 9.242689565751327 10.427620103179077 8.943228842005995
Hf 10.867956931103583 10.508681881025177 14.991777321221454
Hf 7.992442816232301 9.728135558145807 13.492677308065847
Hf 9.483976382043249 14.290750239754558 12.886289816208327
Hf 8.711339069554706 13.226421981641952 10.118489960450335
Hf 7.126423936377858 10.653298506925454 10.746192152270245
Hf 7.107426027846924 12.617100222964734 12.525611890313632
Hf 8.49481524765902 12.146753627713014 14.736051535596657
