28
Energy = -232.48402625 eV
Hf 8.380409385150209 13.051086199520418 15.121387035572702
Hf 10.597933666697887 10.916727159738532 15.512824612139983
Hf 12.832207933064572 9.187756541031765 15.68012501904076
Hf 11.065517833285615 8.777260888703106 13.590695355875285
Hf 8.841496481649822 10.844664659823511 13.16842473145329
Hf 7.012492898760344 13.040067698698863 12.760875597129317
Hf 9.136917581976219 8.914939665158801 10.67712934771824
Hf 7.385476414792025 11.088279805447158 10.586156036670157
Hf 7.644560319643674 9.10614298915282 8.36087949409616
Hf 8.61008170141132 15.210744702095447 13.222420353728811
Hf 13.930182841236562 8.49248326504817 13.16885561351617
Hf 10.65495158315166 13.259201806012454 13.443924374186189
Hf 12.826434694039458 11.091216223405182 13.701735003632677
Hf 12.239284828465863 8.381330879166219 10.776993952578765
Hf 15.180624152056007 8.114057574430207 10.35784063666734
Hf 11.102820525668248 15.574691119799452 11.408170706663203
Hf 9.114738641465364 13.49173416576501 10.845044532090869
Hf 9.388494787522841 11.225313536173834 8.636696303562921
Hf 10.609815744102955 8.726068019680037 8.30774824017117
Hf 11.043947502397584 11.157175854824914 11.095836595999064
Hf 14.192225676695415 10.696240876331876 10.976568183300248
Hf 13.527925965679273 8.300158340028256 8.191531039908357
Hf 12.53099401230536 10.99440331236545 8.454297511276364
Hf 13.09996779943883 13.509517250811228 11.585208245978299
Hf 13.530075972715169 15.673073822888142 9.953370891171586
Hf 15.416356383873055 10.262557216787824 8.454685833369178
Hf 11.618427259187506 13.86376390871866 9.104324492501139
Hf 14.438085451730345 13.142036266632816 9.068058341250238
