27
Energy = -228.81224303 eV
Hf 7.312080144836689 11.448864059248967 13.0902568772999
Hf 9.845334710639584 10.514770654953827 14.372133471223318
Hf 9.428080492667545 13.373585638302876 13.733774954239264
Hf 8.259394169956003 8.825364688768845 12.195265022351416
Hf 10.523144745512166 7.699030883958355 13.752590182714686
Hf 12.164272611954585 12.33741620141195 13.219594733998148
Hf 7.720685371750037 13.726193421082453 11.389413940385104
Hf 7.213705199435538 10.932081546156397 10.17997811226176
Hf 9.627688571715188 11.741526346628024 11.465903132082664
Hf 11.302133502098222 9.533891619010415 11.785767070915963
Hf 10.72202286613849 14.411217536253707 11.310116386659466
Hf 12.696363236668004 9.620947206087676 14.230950670942084
Hf 8.025789706836175 7.975458277620379 9.366833468069665
Hf 13.537367815902734 13.399918076713655 10.82068261105483
Hf 10.439828343339483 6.896067737176882 10.896692524923303
Hf 9.072959770546005 13.066843925886506 8.865036880760318
Hf 13.056610365130071 7.482625310804391 12.332723631639919
Hf 11.80388565075308 14.105822644225059 8.615196173755907
Hf 9.924940586197712 9.99773399656113 9.113485881108224
Hf 8.998270609633792 9.536696733751892 6.750726118958527
Hf 14.017600911715375 10.33644415143357 11.689117014279304
Hf 10.52443370822633 7.413930046214474 8.023903856597224
Hf 12.023073492588669 11.402060653891208 9.606891904860797
Hf 12.853908075648162 8.280495189855381 9.553177783045761
Hf 10.986389930169137 12.069711909521827 6.815975425808588
Hf 13.789875373267552 12.165566007160251 7.863887441221973
Hf 12.01862397910399 9.583854157999287 6.942826390302584
