21
Energy = -175.52394412 eV
Hf 10.8775104141568 7.337578083449772 5.86909032928533
Hf 8.570141604240417 9.234920616307868 5.986284799234365
Hf 11.292739836651792 10.064071930407367 6.126083176578699
Hf 10.090265728289888 8.762212192130148 8.352306858081636
Hf 12.808643327014947 8.085107686509689 7.694511198463389
Hf 7.477311552572545 12.543448846882965 9.512300197384246
Hf 10.879877246671512 6.08936444094159 8.543138993592489
Hf 9.397221768582412 11.687930361281321 7.533394223928632
Hf 12.09131934996119 10.874261032676591 8.790479828015503
Hf 6.911420600397374 10.352660054092318 7.958924629252729
Hf 9.004768127601904 10.120082147922455 10.604303803646197
Hf 6.010495186005849 10.31801054076309 10.63998577236756
Hf 10.220587584647113 12.64728821347891 10.63993411372552
Hf 7.255653673838731 7.964750083176505 9.529197039854967
Hf 9.377781028480946 7.031638402264216 10.960702158286823
Hf 7.575134824211443 12.03651869492428 12.207905592024828
Hf 12.082147801718271 7.750539720114742 10.49330387173859
Hf 11.947698390176123 10.454491069932544 11.54783833574542
Hf 7.674413570691332 9.010404968104654 12.75753499425669
Hf 10.54501571293492 8.469585027568975 12.974574095195168
Hf 9.885617009329145 11.140900225245737 13.253970327516074
