32
Energy = -273.21247793 eV
Hf 15.27660678572893 13.55581375041901 10.814026202514192
Hf 13.174550483944031 14.510454287610642 8.916888717645604
Hf 16.699444058556672 12.111974436058661 12.842658698576876
Hf 16.126120858000203 10.772397696064454 10.564194556851033
Hf 14.824646508862994 14.077736279868175 13.77167290484672
Hf 12.656107663336044 14.5857656709317 11.770440904060225
Hf 14.002450977723297 11.698241714364892 8.840125476443312
Hf 11.647567571196925 12.674783984685657 7.381255179400671
Hf 15.426009253416424 11.558050086966816 15.15272248986126
Hf 15.656873910015097 9.363182095152528 13.120199448475889
Hf 13.947123535481259 9.13013645079486 10.446976806798913
Hf 13.76812844357937 11.412790462937972 12.491024367916246
Hf 10.520736344240653 15.064205018996038 9.682182251138126
Hf 13.037998365623707 12.937314407210165 15.836559164309211
Hf 11.72585527851528 9.933348337035305 8.303861320266448
Hf 9.577662523213093 11.048422789998076 6.578583967756837
Hf 11.486259484748262 12.376125547528925 10.31806222671532
Hf 13.279369789095187 9.796916889178707 15.142125355013583
Hf 12.146125724866565 15.174310786098937 14.475768856410179
Hf 12.987290507936693 8.243878996998069 12.866270801517883
Hf 8.861349335540085 13.301350121955197 8.089994534094563
Hf 11.137605312106576 9.720168063674548 11.3190852002867
Hf 10.934588761197807 12.280541564404762 13.555248631258575
Hf 8.614399330577225 13.14699320133327 10.947166319065099
Hf 9.109074228283083 10.730920550633018 9.290501776480983
Hf 9.922991718654345 15.083713369264917 12.755117252556063
Hf 8.54768430803232 10.672025744372295 12.477327587377847
Hf 11.088378711360711 11.068827337711502 16.47910330395215
Hf 10.536689185660668 9.247505974969615 14.232731713686851
Hf 8.029603564585605 13.237384193118956 13.727385348575778
Hf 10.016071394059228 13.759100829486131 15.827560556671038
Hf 8.674687180322803 11.157056313760826 15.295944119771265
