35
Energy = -299.02054071 eV
Hf 15.061099253354845 10.516096782923539 15.34937171048067
Hf 14.178682719149629 13.136038783547997 15.285145582793483
Hf 12.941336837685787 15.659527233686 15.356396321595643
Hf 16.219734189580205 12.314735399860554 13.144691083094882
Hf 16.147883275375005 9.371152386205011 13.16384719484286
Hf 14.679073208643462 15.11629238269517 13.030504188520949
Hf 10.17503485859494 15.892476382672958 14.689156065259146
Hf 13.381854976803796 8.475988820958868 14.194027223905199
Hf 12.229695728825046 10.800737939807233 15.673899578372815
Hf 12.270047404916912 16.90826224560825 12.991414075666007
Hf 11.148761795900132 13.525983494194252 16.10665592063715
Hf 14.342386199039321 8.217368076196262 11.413656915212552
Hf 10.37500302124257 8.938934650733051 14.4515523803218
Hf 13.753795496078455 10.96789775312872 12.702868931329391
Hf 12.043262505450079 13.956953102080293 13.196570024779032
Hf 15.802821153348427 10.639901310494174 10.632388831503103
Hf 14.954639754617041 13.428367094296133 10.475465033906032
Hf 12.061013235025603 12.79623590452714 10.268673030956526
Hf 9.303082940683625 11.354269252030779 15.332734022918013
Hf 10.839969385833282 11.309204152706455 12.737554981147527
Hf 13.224859430380679 14.361941619742911 8.118198206214112
Hf 13.956278079975858 11.80078963471673 7.9239255883387445
Hf 12.947407267292345 9.882541815937758 9.740073891982178
Hf 11.096105755540357 7.811023233764134 9.088825943917572
Hf 11.381711417202611 8.487865589317858 11.83504901213161
Hf 8.41798543256996 14.064777008249957 16.20339233687301
Hf 12.902338842312696 15.762143037744785 10.601879778099551
Hf 11.7424726829722 9.772335429482563 7.281602765732034
Hf 8.735857356340814 13.541028110593414 13.460232038602935
Hf 10.005831952789993 15.553912725821931 11.675719473698916
Hf 10.59521721567202 14.975591423704556 8.969667597845753
Hf 9.065921458797833 12.937182888526916 10.654150370397799
Hf 11.090249373845483 12.533749480643769 7.563564038521927
Hf 8.351182385904442 10.538325487157312 12.623509144701599
Hf 10.077684461872401 10.38004021363651 9.795342510799038
