34
Energy = -291.56563424 eV
Hf 11.432149710349963 16.337694304633445 9.441350849318457
Hf 13.33382502443485 14.911533365857457 7.806830290921056
Hf 14.2083566250212 16.21655604379076 10.064782384464115
Hf 10.643751417908158 14.026414964704287 8.101092301630588
Hf 12.100056911584474 16.260885036360722 12.225368659794054
Hf 15.271058614002921 13.578228674959878 9.638709228248336
Hf 12.879858816639334 12.083119353350144 8.060294930765478
Hf 14.749969762022584 14.723586483894676 12.384695249968726
Hf 10.372729459885655 11.600509396719236 9.502533036672608
Hf 12.444047894994648 13.746844845025207 10.405233524603464
Hf 12.86587015554285 15.217365355052236 14.9891411327422
Hf 9.641646674843567 14.7606917561794 11.116102676360502
Hf 14.24017170803969 11.032688921396732 10.509436834036265
Hf 16.27613293575469 12.187134145341002 12.60910435530871
Hf 15.399628051022223 13.657863862128412 14.981771450425232
Hf 11.650375452147152 9.170153528234213 9.084952021855718
Hf 10.017915840675263 15.88074176160314 14.187776635103274
Hf 13.594165792359874 12.054773761250393 13.360968239652209
Hf 15.346768375369487 10.925733658703164 15.310999304707966
Hf 9.332699591065191 11.7484409125438 12.039429429533207
Hf 10.50443279158041 13.870394572147587 16.08527442686598
Hf 11.890031495930092 9.903572396316044 11.91289001869142
Hf 9.121777069671836 9.11279399051878 10.872768325937477
Hf 8.447790227846918 13.26573579019769 14.233933115313485
Hf 13.022854265112905 12.471605437790979 16.242325080224944
Hf 11.172438555889975 13.5451046401638 13.27630160280399
Hf 14.89443260539132 9.433584259122528 12.836121277332635
Hf 13.76492687442969 8.01776802604729 10.578413692314966
Hf 10.262078210352037 11.109244487415555 14.959816274987505
Hf 12.75176877825851 9.605539603429126 15.10382954526788
Hf 7.838210832012887 10.152186273134472 13.564899514338972
Hf 10.088042116314398 8.348083720794973 13.675342635444073
Hf 12.88216413228967 7.421292019782936 13.253220573856657
Hf 11.073185885848593 7.191013964563921 11.141161256425868
