37
Energy = -319.04466077 eV
Hf 11.36866337840171 11.316298134484711 16.76425322291597
Hf 10.12522352861254 10.506705771774744 14.469004502570675
Hf 8.496175100492234 9.189364108545305 12.531186603923379
Hf 9.907471359969968 8.246044139051907 10.236860796847319
Hf 11.235936280387678 8.24837811453715 13.071510442671505
Hf 13.185527697184444 9.829455907943071 14.91785066446509
Hf 12.647261666150913 7.26062602193119 10.929217574271432
Hf 14.13416951316681 11.939327367201727 16.665897814638885
Hf 9.802414841022866 13.430173732083894 15.288543249988086
Hf 8.117295104189843 11.968845788408522 13.146201538844021
Hf 12.121007062103457 13.980820838669969 16.96319133058717
Hf 7.91668429357631 10.920312984342365 10.304826764126313
Hf 14.607042913316088 7.954792505562406 12.939333413883803
Hf 12.456163381621922 12.581605458540254 14.292671268914216
Hf 10.64344202833701 10.818093384672604 11.168677350870679
Hf 9.867561277521087 10.369693153431596 8.31467137730243
Hf 9.155135170581534 15.728292195340934 13.051682813080626
Hf 7.753095925894266 13.83152568640171 11.10328509499022
Hf 9.540296214577557 15.722111749146807 10.24071442708607
Hf 14.527716532926876 14.408848914421041 15.566568524865609
Hf 13.395205963431136 10.206203770273136 11.936825372431594
Hf 12.436821111618753 9.228550843181333 8.894891032696192
Hf 9.582732150215838 13.130706625814517 8.961366863655092
Hf 10.521411850238067 13.646481149845897 12.137338652558071
Hf 15.208825529899006 11.994190278079415 13.819838218289767
Hf 14.980711918449563 8.319827798249007 10.162555364314533
Hf 11.81083852824735 15.5305162482175 14.544133064196098
Hf 13.118847721587873 13.049405420740998 10.836821436406742
Hf 12.205607052373699 12.048251263343307 8.101618771391779
Hf 16.319930679188275 10.208539783855484 11.673134696283837
Hf 14.282659758426677 14.919760954532872 12.932530739371586
Hf 14.947156857239426 11.020160721536145 9.206502053486508
Hf 12.00350052073586 14.998450166136264 8.879912368520854
Hf 15.99318373701994 13.162622669947611 11.013495049461321
Hf 11.93604249620145 16.294692384763028 11.647366334881758
Hf 14.62289162097172 13.67855976318492 8.425144109606672
Hf 14.440790888419462 15.642546375977739 10.258375337519652
