33
Energy = -280.0750631 eV
Hf 14.167890121961353 10.370686539098317 7.902317764141534
Hf 12.873260777666534 9.435955125568373 10.197452207972475
Hf 11.359993612687923 10.905026183288726 7.939198457397116
Hf 15.214972180638169 11.231367186909207 10.381460898645484
Hf 11.179261400972868 8.474930672292812 12.56792123812991
Hf 12.917334293639703 7.731794573667533 14.591170186035685
Hf 9.996980375758376 10.367259289000394 10.515337790880503
Hf 13.084674472201929 11.87124194984017 5.8535383695208845
Hf 14.23833080780368 13.2360444244239 8.128597991334463
Hf 13.527221260083223 10.493901357455293 12.874990858961583
Hf 11.473303747712567 9.9236027343713 15.254575227089518
Hf 12.572546048295997 12.345429280227386 10.506601636494375
Hf 10.001261884283238 7.67018578661084 14.976710238542926
Hf 8.608869046715645 9.320654087716608 12.850699177617548
Hf 11.535581357678561 13.659294375021588 7.242143463754964
Hf 15.916298999032552 12.430844752547923 13.162408539977308
Hf 9.866868056545671 13.032043906925784 9.495931689578617
Hf 10.859849991263394 11.820990781823328 13.070347604886413
Hf 8.733090160078369 11.033149058932358 15.002251892995881
Hf 8.178378326196961 12.089928942644569 12.19465546586541
Hf 14.000415144629109 11.588254716904492 15.624419863426253
Hf 12.260611087981124 15.070274093411834 9.557863615723962
Hf 14.84808360472581 14.189845032785962 10.859618056952723
Hf 13.376099284840183 13.648581064327782 13.638627206474311
Hf 15.719056285388858 13.987531295494222 15.568352198753878
Hf 11.029700867863909 12.720386758163293 16.04706445530041
Hf 10.597290679082707 14.467172421061766 11.95686796255801
Hf 8.92146496506201 13.780945543431164 14.336338373859432
Hf 13.22080675941412 14.213273186639833 16.696947651604223
Hf 13.021761083596571 16.21498504722078 12.35951784654305
Hf 15.745583237500028 15.352634206844773 13.129868825856944
Hf 11.270631268384285 15.412454068866888 14.746549826209712
Hf 14.046072592874554 16.289336842869425 15.075054508406696
