30
Energy = -254.96524472 eV
Hf 13.41975063589406 11.256915065007291 7.095369726633657
Hf 12.567072487376095 13.999360968326387 7.3751860463596906
Hf 10.969343792993907 11.865117457688177 8.18793798152788
Hf 12.207321231261806 9.600699564405932 9.241420556324405
Hf 10.228292466494251 14.467309739453842 9.119646639314894
Hf 14.82937723094972 9.565274158008654 10.073068549702063
Hf 13.703427098720669 12.439215729459399 9.59161308263534
Hf 12.719306647643675 16.219135780431113 12.754367424405334
Hf 10.427951459102935 11.218364377081047 10.991969931341977
Hf 12.840560348506111 15.683866036079133 9.861159472758875
Hf 11.723840144738372 13.766110113647784 11.564357294121326
Hf 9.811574677319046 8.566854536862627 10.888120573408662
Hf 13.392810211189165 11.05252975313169 12.060045827314584
Hf 8.113935668759433 10.481222695677472 12.27268756188224
Hf 16.153573580850562 11.619404480786674 11.489515907195122
Hf 10.311570582963284 16.16212798709963 11.330863523300202
Hf 14.65417217661474 13.98091360587654 12.240897395927256
Hf 15.363427977544593 9.233939155979016 12.89670157089375
Hf 10.331769006933447 9.174351818113438 13.6562026735726
Hf 8.83309304536294 13.497829393195063 11.953993724116064
Hf 12.60471999641833 8.275550484144004 11.925244797971343
Hf 10.364728128710693 14.909102692281447 14.06604237327418
Hf 11.549281075698259 12.013947454747226 13.977099032678119
Hf 15.120523505035115 11.8183535390942 14.295757044445205
Hf 13.134406761779767 9.426158213331624 14.753765652037242
Hf 8.820039352125908 12.117863183853315 14.650438651227278
Hf 10.687549808756135 10.489033896690714 16.226006787535983
Hf 10.919842432492526 13.354774537541218 16.394641892968945
Hf 13.266672161144221 14.27457214060077 14.862493858251302
Hf 13.198854259944675 11.738889394727991 16.47217240019894
