37
Energy = -317.4239327 eV
Hf 15.726924536643422 12.47104366830057 9.262176404273559
Hf 13.642281432022347 14.543792264667486 10.98258087476716
Hf 16.425532809567077 13.936233840962869 12.170199450769058
Hf 14.503785455492054 15.814051604627787 13.464151062389917
Hf 16.30905785728244 14.353122811138327 15.073321631028152
Hf 17.012666366824938 11.890147405289103 14.209738851832284
Hf 11.197439679911838 16.276186348390066 11.603870350481479
Hf 13.65480627123335 14.684086677394287 16.068907583836513
Hf 11.795936304483513 14.730390966266373 13.876052370567031
Hf 15.984858490083253 11.008193222128998 11.718836568277647
Hf 15.128926667201089 9.614861484413304 9.344275021353857
Hf 13.498046378397142 13.704090194979525 8.081466431978862
Hf 11.107507365099615 14.846753618278663 8.992903113350097
Hf 8.728385638597501 15.955126091128818 10.283867938371364
Hf 13.213077680921572 11.67088260084359 10.390743793715426
Hf 15.001928441111145 12.032210208094764 16.33240233992527
Hf 14.19057156793913 12.84692684435736 13.671589879103108
Hf 10.855162348351309 13.356617200951542 11.47590042986851
Hf 8.8954256829821 15.052195451807009 13.050054806288639
Hf 15.044868418286773 9.755859895273469 14.247292437419802
Hf 8.643844337954807 13.277224455900281 9.42627735505293
Hf 11.924923765964586 12.36528618032848 16.08601307318645
Hf 11.131227216215514 11.938433534502431 8.215226644359745
Hf 13.742264851912946 11.031717240491561 7.50775642055487
Hf 13.70953439848363 8.739956238352905 11.709896739129984
Hf 10.315149707393136 14.684969142110566 16.110677149886477
Hf 11.947115723555898 10.64847347476811 13.361295714015341
Hf 6.5120499296877075 14.66849592092093 11.038623797680236
Hf 9.634178298265232 12.435822852178648 14.340382321295113
Hf 10.076552471816006 10.621726939799546 10.76722895838976
Hf 13.045292581027839 9.805404693695497 16.235812621946675
Hf 12.203287244848758 9.23085063727761 9.219239012025206
Hf 7.895501399065201 12.448564828819388 12.056572365938997
Hf 12.777310674692473 7.902763981794301 14.30092444691587
Hf 10.409423728363825 9.219985301417873 15.280408204039803
Hf 10.804727814805153 8.14884384825553 12.370133069417177
Hf 8.776945130612724 9.877894038833922 13.16222698108277
