30
Energy = -257.36748761 eV
Hf 15.10476307994817 9.94425602414699 9.766840265728538
Hf 13.213048646169158 11.513484120518198 8.031585303866953
Hf 10.857381876077257 13.198061010874243 7.182532437385141
Hf 14.590924736297792 12.865337763821442 10.484761633734323
Hf 12.600424958147892 8.60080452028159 8.7781197622176
Hf 12.955150004204649 14.393920327311141 8.614995908769561
Hf 15.166248881438289 10.634526881983927 12.513906483486506
Hf 10.294507391119826 10.454837113647292 7.815753281667419
Hf 9.71191207926046 7.749462882430957 8.579056980735277
Hf 13.595199327879094 8.1264825738659 11.69995534537381
Hf 10.275609335550085 15.198469399398249 9.142799702164632
Hf 12.841270677429714 10.737750170935554 11.009347393520708
Hf 8.458839891890989 12.79964587051929 8.868012390902418
Hf 11.328874176309238 6.657157396540399 10.597420011705461
Hf 11.05054092442152 12.602491095319772 9.961677140649629
Hf 10.723155476829033 7.852034746819938 13.187394809924484
Hf 12.195672456564218 14.86034281704496 11.391810545391525
Hf 7.81788103850863 9.75464538368431 9.648757688055078
Hf 10.383948512824348 9.436881117107456 10.773187224101697
Hf 8.608957118349814 7.269742270989007 11.174614307461681
Hf 13.403185315762112 12.818318633208753 13.391757799991257
Hf 10.399621063019678 11.686612809330802 12.709453126084584
Hf 12.802004112082841 9.955681984148324 14.125301858693716
Hf 9.068791525051237 14.342113736953058 11.629577110196625
Hf 7.582506835901015 11.970628485927051 11.508069092116154
Hf 9.903275319375329 9.884836423428364 15.015759253742514
Hf 8.06375302171171 9.562090221904803 12.854775025691174
Hf 10.848607233752599 14.384346449262475 13.862929122107412
Hf 11.358897173322871 12.16722759398785 15.372876787733569
Hf 8.541207732925736 12.503397071824715 14.374632456089785
