33
Energy = -279.62898096 eV
Hf 10.758902314741881 12.948570426952035 7.515684273145932
Hf 13.731935994617565 12.37770234356366 7.188941992303295
Hf 9.778933477982745 8.926828265277717 15.380010641044695
Hf 15.450019787436075 10.801249999963613 14.373178155046714
Hf 8.099467266585998 11.127361332967137 11.035963581575258
Hf 8.264471349034219 13.216945667740003 9.116473545020705
Hf 10.160429206588894 15.244890238579922 9.57521591239466
Hf 10.814576328759008 11.781130763544597 15.981707324113097
Hf 11.713336827810418 14.499425986936908 16.41739561609611
Hf 12.23110403130494 10.36654910646365 8.43798903527221
Hf 10.34363369622802 16.163228958304913 12.308180956026137
Hf 12.730346823632216 14.626005309458574 8.540376887014894
Hf 10.714847546048041 12.51210402023069 10.486505786335984
Hf 13.802518358438606 12.382853765549598 10.097759443860564
Hf 8.617546612029283 8.47843957049924 12.784018533988558
Hf 12.768069184058465 15.073384290059764 11.285144458265696
Hf 12.893567100802334 10.96852359774947 12.803416071297258
Hf 8.57872469627551 13.958528396906795 11.944207901880079
Hf 12.759379758950109 9.60915753177744 15.426985813992637
Hf 9.61951903896297 15.178861051477007 14.801241785794016
Hf 15.250758756049727 10.221595990755855 8.757720557040635
Hf 10.636888184423274 9.552768063147644 10.877149245084114
Hf 16.438877323260627 8.415706545571018 11.013684899225877
Hf 9.330175116989736 10.63929787302921 8.546449630638284
Hf 15.701683008435799 10.970016203504922 11.54276992679292
Hf 9.701967553938731 10.967735501427072 13.395559847387519
Hf 14.54246012090653 13.391515949636938 13.044349453190717
Hf 11.420021619278225 8.23271155549585 13.20183742961164
Hf 12.39033139593846 16.017672105440504 14.185086776276775
Hf 11.452334224752363 13.461278449845445 13.584859119019642
Hf 14.445097106019352 8.501195494600644 13.151598530914987
Hf 13.68438690392342 8.77652284905148 10.557742780184535
Hf 13.52400826756601 12.443517986578044 15.584173962194162
