39
Energy = -337.67520386 eV
Hf 17.45139019588123 13.32413483276445 13.907894582018773
Hf 17.470720064503883 11.645431361149639 11.650517262290421
Hf 15.898589666265782 10.842059494482868 14.035647777494365
Hf 17.288848870460605 14.405763338167056 11.231907578382328
Hf 13.916886675398253 8.631077666541573 13.292379607246948
Hf 14.93739903458754 13.581250378160714 15.26268541066289
Hf 15.382260332292615 9.962761394043543 11.061555551360655
Hf 15.872329002560633 15.613206430767208 13.388472857557154
Hf 12.018141924753152 8.987947179687524 15.373547023997782
Hf 14.916430050699796 13.016279267845222 12.370972034541607
Hf 15.618471062970254 12.686515932088492 9.557522151246902
Hf 13.043738111426492 8.18560988460733 10.62355751295681
Hf 11.14794179604111 7.589266170583033 12.905869534445948
Hf 9.331625051630981 8.388102961121904 15.212927535954684
Hf 12.702432982828384 10.792852878635335 11.748011992213597
Hf 11.315456448588609 13.890521030904416 15.509461709610406
Hf 12.959314065046339 11.592918626293558 14.657572007525449
Hf 10.122636082840994 11.154799241748652 16.070593897035316
Hf 13.079172768632024 15.27604505853847 13.501557020850068
Hf 10.285993279008071 10.372970749045221 13.316463142782794
Hf 13.130031252488564 10.684381619437396 8.964948892186785
Hf 11.19052461480589 13.208306730672966 12.586154990590687
Hf 10.233908776859582 8.9363328169004 10.444241484130684
Hf 7.644438308271401 10.478234995324673 14.560758454190692
Hf 12.752208278777584 13.552197220775845 9.812567644783847
Hf 8.212835248676647 8.558052310289321 12.50545903020597
Hf 8.71692675768501 13.186020461852141 14.352725247208763
Hf 14.653537209653935 15.46522839403598 10.737011829056542
Hf 10.181953965546079 15.657787511922058 13.687393895560644
Hf 11.308424733524413 15.816700405027852 11.087580770971368
Hf 10.200684933348455 11.931782387168937 9.834058230934344
Hf 11.667574384208752 12.542937414881248 7.332452003661535
Hf 10.550949648245036 9.930627608237737 7.673692644313015
Hf 7.872035526865141 11.474296040172712 11.829563518572856
Hf 8.681520682610818 14.498924103647646 11.462008757740609
Hf 7.978783765716247 10.170518322765492 9.094823191664721
Hf 9.88009761176599 14.550547602432902 8.707749252829332
Hf 8.886967040025368 12.209687890654838 7.161040957512831
Hf 7.444501314535196 12.956572938505197 9.375102019503135
