36
Energy = -305.64463277 eV
Hf 12.790005962806914 17.271216034496575 15.45265071299468
Hf 10.126736994985711 16.43546662914327 10.320746927748157
Hf 11.400194912589987 16.50323211701105 13.207335490199881
Hf 10.907264953470323 14.666695487902652 15.372294034696758
Hf 8.35266326871392 13.98818385697601 9.580692571610616
Hf 13.666851618113874 14.89325464136322 14.451066405002448
Hf 14.14213565732622 17.202828898438288 12.949116793058442
Hf 9.975133064661781 14.231471157322988 12.019948161710548
Hf 12.707693352465446 15.32369413468495 11.013248646969823
Hf 11.05114686532553 14.317177801324343 8.644753393901485
Hf 12.484374085693977 12.694534818840241 12.881162112739094
Hf 9.658718120891601 12.306376462634976 14.449147928384056
Hf 9.815221703487534 12.539178426008592 17.187049285985275
Hf 7.062158973758034 11.355790266147212 9.034264729520116
Hf 8.145362655630338 11.841151757931923 11.521698123154634
Hf 10.929953107343701 11.845291260182119 10.385190388564906
Hf 9.539787003810693 11.931748006244659 7.876820404167349
Hf 12.220538312186468 12.191153909965946 15.928625161006154
Hf 13.726730857893534 12.781517864733287 10.021826658106757
Hf 10.296733848646067 10.047243014130343 12.76445830939995
Hf 15.158989139741893 14.226996770660016 12.144877086327758
Hf 8.962989518125019 9.498867675538287 10.12780577927091
Hf 10.355575614666638 9.910500202290404 15.793285568759568
Hf 12.375150108493584 11.894742370826071 7.653226097459315
Hf 12.911080256860776 9.913072509095093 14.382165067430773
Hf 14.512194545336703 10.15799985612205 8.71757382546824
Hf 15.095537583227806 12.000286998626313 13.990501121051281
Hf 11.203068671512929 7.619340465635969 13.91224302883738
Hf 13.289208101310745 9.907900220563084 11.43210830690344
Hf 15.991842982767336 11.313654184991222 11.29612470972494
Hf 11.179305993174577 7.5969228413031 11.03802266155168
Hf 11.575936822329137 9.375959568978056 8.610974107470982
Hf 15.59658484794331 9.30757853391215 13.381344277018762
Hf 13.739893318951081 7.1817448348019735 12.386535294548077
Hf 15.836043738402829 8.486048637318884 10.780545843856531
Hf 13.557196408270956 7.572247465659786 9.545814094672355
