38
Energy = -328.10974801 eV
Hf 11.294820756848678 10.423262649723123 8.009531079466745
Hf 8.131904406244898 11.67257319075986 8.030581881879344
Hf 9.031339693990125 9.036485003004461 9.01465897311907
Hf 13.312117970222394 14.845954750388342 7.622546941663222
Hf 13.813471699336473 12.079024018158256 7.989329457645103
Hf 10.779031859148994 13.269009965552677 7.316245502737773
Hf 14.806820599515236 14.060533794526295 10.076988986575241
Hf 6.896258148395533 10.139600566833867 10.33396280540247
Hf 13.862434632356551 9.318301413718657 8.906211169767166
Hf 11.45858956425534 8.4545435452631 10.403382650763842
Hf 9.47759682089186 11.678915132675831 10.42913976853083
Hf 10.851544704859332 16.01262682861202 8.25887048738618
Hf 8.699629957930691 14.4793545642537 9.220746940471601
Hf 11.82600479743003 13.951409540760656 9.983912732979208
Hf 15.548864060249038 11.14345549374518 10.360085769408112
Hf 13.137634373777084 16.551248202657675 9.812687955778435
Hf 12.738261011181544 11.258947198304073 10.622761302570622
Hf 6.804855230220209 12.811357107430322 10.526115080715394
Hf 8.866530196743474 8.692592485081947 11.858220219360021
Hf 14.190061615877571 8.90045425345611 11.763033961360595
Hf 10.589105274574333 16.14029455745065 11.280367368537805
Hf 14.28811623450048 12.635720772684962 12.79165500239463
Hf 11.268820384262417 13.525008081700284 12.888792170811843
Hf 15.884190101803355 10.190400730773241 13.791904567401842
Hf 13.331318057973833 15.377088948084142 12.331040506027959
Hf 8.573773178135 14.130279811143906 12.180302281156576
Hf 10.756975844306625 10.641720265536877 12.72099920316324
Hf 12.71411869384868 13.474241662371506 15.285766124601341
Hf 7.862230067521216 11.369136932989113 12.911545375308842
Hf 14.508294454788844 7.764466945437978 14.430836210855935
Hf 13.000472970679471 10.43128300260281 14.441904661037261
Hf 15.070499972844189 12.206867231659176 15.65321887014856
Hf 11.684713870323389 7.838871330459069 13.371366820058158
Hf 10.14564011168137 12.25794728712783 15.25809525765752
Hf 14.874662111978196 9.55431662718277 16.51980328141016
Hf 10.144434332526012 9.502555962937654 15.216956851464856
Hf 12.391457989310009 8.187868014602165 16.235288142255953
Hf 12.31892088022294 11.076738572025953 17.054300481062924
