36
Energy = -306.93537367 eV
Hf 11.735159024717042 8.932504276944735 15.556874811556014
Hf 13.883791288837273 9.32213127437285 13.60065446329652
Hf 13.56835197340219 11.429671923613014 15.73603982328791
Hf 15.485944697118281 9.498485751903372 10.990163369461262
Hf 13.297133945761201 6.693753618066985 13.44217984982842
Hf 15.33807497274394 11.919450314327051 13.188083940075717
Hf 14.891491841386443 13.891811205859224 15.299806660784878
Hf 12.762921058636755 8.276992800239777 11.032073081901034
Hf 16.3927207841118 10.491572471512264 8.328531612760573
Hf 10.701147197689126 11.464027438823173 16.407433451545394
Hf 15.858422196557184 12.426316473125654 10.357976732483547
Hf 15.408140530458827 14.943829398414287 12.703928725973238
Hf 13.847168823007383 9.439071259781192 8.583215466961331
Hf 11.950023114042777 13.986138445049917 15.908143294374831
Hf 11.532179426512405 11.097818829532505 13.65464925800164
Hf 13.122559041827799 11.26543705997722 10.947650734169773
Hf 10.807145025435945 8.041879154088313 13.13285952800486
Hf 13.454510669267217 16.15119724778243 14.628602844083657
Hf 8.98059718609787 10.048536298287328 14.457863318656862
Hf 14.004490594143787 12.23017839421654 8.13153826597644
Hf 13.489227176276119 14.171637462939534 10.288770111881025
Hf 13.070399085714463 16.50241388913635 11.974062723512931
Hf 10.687481069551398 15.71091703953597 13.545560309474839
Hf 12.887145070887808 13.726317521336545 13.11914780600602
Hf 10.249973671767385 10.046651570236985 11.195719149534513
Hf 10.53512858167931 12.953120212090546 11.185364220958562
Hf 9.345548054620116 13.121301541007862 14.427699683735703
Hf 7.8810362839547805 8.99844285720364 11.85080730723531
Hf 11.221108007457772 11.176395278135919 8.701274853043252
Hf 11.429666222582114 14.247836947476408 8.235612369813095
Hf 10.63666322992703 15.834694646683312 10.550100325856286
Hf 8.350733984201922 11.321960367987126 9.586292623682082
Hf 7.817825231468943 11.758915518476938 12.434381116807876
Hf 8.353663245555952 14.609674996613593 11.996543560597292
Hf 9.429576879969678 12.591566579813646 7.010686326721729
Hf 8.742044203751306 14.269478337834942 9.120650777517097
