30
Energy = -255.35562453 eV
Hf 13.15492194865969 12.068782635699261 8.104698697969145
Hf 10.843144952421202 13.53863267214778 7.800386771584189
Hf 12.798516458465137 9.17933797308467 7.87705190077353
Hf 10.23883775524429 10.664341386320668 7.753058264536209
Hf 12.853115042127513 15.066165397646136 9.301731191002657
Hf 9.913330245480147 15.204438150028254 9.721495754939028
Hf 10.453483046076274 7.937052568813356 8.977461739723624
Hf 14.737252200457325 12.986973147367324 10.16183239116901
Hf 11.588981070640344 13.12161503276687 10.828546442034291
Hf 14.532694380792314 10.079738834591287 10.039610464876464
Hf 8.768131204145458 12.540849974343717 9.639909185674588
Hf 8.636413349995488 9.65009865495784 9.922163010865921
Hf 12.842321744511953 7.645713795337435 10.269326428022207
Hf 11.579494673754319 10.251985824789966 10.305694222962146
Hf 13.278076226874175 15.965050553008682 14.635228263711817
Hf 10.353790960154727 8.289587984154345 12.078396912637979
Hf 9.060275493685017 14.022739505679244 12.247037329088906
Hf 11.454271103640428 15.879414715995194 11.954560723419
Hf 8.633650994084082 11.053093415385954 12.286242313663093
Hf 13.856379886076422 14.32118960231554 12.505614887382965
Hf 13.641206718769286 8.820374648709347 12.664863513246267
Hf 11.640403406251664 11.148442532380864 13.4194623221946
Hf 14.68684958160101 11.568223130951138 12.669051590698805
Hf 9.358903627729774 9.647822844772534 14.644222824692699
Hf 11.246539137242092 14.253853570768927 14.171802527486502
Hf 9.188070579697259 12.382907439724717 14.76395109626662
Hf 13.66723256601323 13.009847605064634 15.090366276771567
Hf 13.905590028966945 10.201579325940681 15.118092317159908
Hf 11.761171705992501 8.478317340711534 14.883798654311494
Hf 11.391052404559046 11.085932230651188 16.228444475244153
