32
Energy = -273.30460393 eV
Hf 7.396549741519491 9.121260695989207 13.42478711058702
Hf 10.265087581352775 7.755860687845969 13.341795680800985
Hf 11.904047996745806 7.196457483345729 10.80437927545265
Hf 9.086974418336286 9.484351592169276 11.300454694688638
Hf 10.377225227509017 8.413757367983049 8.755711873563646
Hf 13.147961023598706 8.320402247853147 8.426989114212388
Hf 13.234179191363836 7.354426450347249 13.316393432410463
Hf 12.024045274586134 9.053527911284435 15.191692338002385
Hf 9.108415828096271 10.841354916346727 8.571438063247843
Hf 9.709476035439426 10.554360019032645 14.072773845814284
Hf 7.765958776336945 11.952786299691736 12.371504366006459
Hf 11.441525124257074 10.314825808351037 6.934204244275805
Hf 12.07908661536796 9.85599609691506 12.343444376485468
Hf 14.473074116263799 8.554512362965943 11.099527965465878
Hf 10.363099380753036 12.337543859211138 11.157457345221161
Hf 12.195201420374161 10.708932758367276 9.50942578557695
Hf 8.214354541443978 13.448290390209099 9.677485227405786
Hf 10.177112483331017 13.499019000522162 14.205052880107699
Hf 14.547705331755216 9.91133613215725 13.78552611811643
Hf 8.748128377106358 14.676447969766869 12.120640781284509
Hf 10.610304452515736 13.019638705700425 8.109365539212206
Hf 12.541091555689396 11.835115185510682 14.722996383504947
Hf 12.7458682987011 13.663790717586478 12.184983864281437
Hf 14.590913649227247 11.51248353082548 11.263679962595749
Hf 15.048042272250658 13.220512766579978 13.838258898981298
Hf 10.525335954580411 15.25427071076291 9.99424807818742
Hf 12.732163223505824 14.653064943740969 14.988302911424187
Hf 11.236861822306066 16.052817841600824 12.821990441990954
Hf 13.283427644239223 13.463031831479496 9.201458167415524
Hf 15.359295780201013 14.293078416701492 11.101041962409532
Hf 13.218463948003903 16.058686278671168 10.483867486453597
Hf 14.230768503364443 15.977791655856 13.078739939448381
