39
Energy = -337.30102919 eV
Hf 11.402864617695371 8.589829689457238 14.433419161349791
Hf 9.749577152121006 8.626867033367422 11.51807608224578
Hf 12.177429054721173 10.44450046939288 12.16185989788455
Hf 13.677340940799295 8.416513519737038 11.30006151647448
Hf 11.646781120851124 9.730772246011592 9.300564035537832
Hf 14.268460629575241 9.42576007844894 13.951992931044897
Hf 14.637359507222133 10.242671091566574 9.282092493634188
Hf 8.584843902394383 10.07084214611343 9.125366087415443
Hf 16.495945012311616 9.627896699356597 11.76394085193515
Hf 13.050513974003657 9.986967097724088 16.51093281786958
Hf 8.981047495148069 10.166302610052144 13.952997559891749
Hf 7.298336512868264 10.330582209408798 11.617648355041474
Hf 10.200414631232695 10.103396541638842 16.632616489210733
Hf 16.546318569433843 11.13593297290077 14.488298557592634
Hf 11.552357007615997 11.601704410455083 14.6240580168573
Hf 12.946788337355066 11.609627147040523 7.372057554937828
Hf 9.869611024623206 11.42888388555003 11.158491914782688
Hf 14.9020658934633 11.90238523885524 12.199832608874669
Hf 16.879147847808127 11.827499985704772 9.8304801072536
Hf 14.971562295518858 13.452229400195009 8.439977842565847
Hf 12.72865525167278 12.673938411057549 10.087832246195921
Hf 16.036627979990417 14.411078326738085 11.016003256929057
Hf 10.230759181154589 12.352835362952897 8.292474414633203
Hf 7.713459712132307 12.829018920504359 10.120493227297022
Hf 16.128920323561086 13.980282086038665 13.887142225840437
Hf 17.777564157330065 12.360775493073561 12.266647016600949
Hf 11.807143357200028 12.41373000277277 17.300224524408463
Hf 14.106952791674209 12.566657133372075 15.236540989594252
Hf 7.538961312230366 12.837113240341697 13.181442532877739
Hf 12.323331107537006 14.356840051248474 7.793648323648073
Hf 10.434994517368 13.58896130452073 12.83475487822262
Hf 9.267716791057133 12.860146839146903 15.893507612035853
Hf 13.363404679521352 14.480784976551563 12.88555924961316
Hf 10.507629168652088 14.822447391387932 9.975942708724633
Hf 13.379227194734826 15.581226493626236 10.101378191953275
Hf 11.589456983673939 14.72884190664038 15.316706917802728
Hf 8.808400554950401 15.290016851088952 14.452995746445241
Hf 8.328975066525478 15.258842785869206 11.757589773697067
Hf 10.961144137072854 16.28889335271439 12.633775295273065
