35
Energy = -299.35593629 eV
Hf 11.416231027282048 12.484160391832807 7.621784679203269
Hf 13.293587522989508 10.511019721731566 7.228862791725291
Hf 14.176032082760127 13.06368983506917 8.216220169318351
Hf 14.429928467362586 15.675339189778406 10.354821807113263
Hf 11.932686717697568 14.348024553982633 9.605890691463996
Hf 13.185257886483868 8.349897604855297 9.030209407844161
Hf 11.799642309725735 16.525037520732326 11.393373848431219
Hf 15.442070487265461 10.402771848396858 9.05897337367896
Hf 9.754556320771199 12.149364495074744 10.073433128949262
Hf 15.4858742719908 12.936908343200795 10.782527825859153
Hf 12.729376853438824 11.224417368807583 10.10883856812639
Hf 10.660048139349351 9.922304453685237 8.32641092190172
Hf 10.183563948589258 14.232722140479096 12.07077198396237
Hf 15.63053467445854 8.007028140586499 10.565398202972242
Hf 13.181388280587383 14.06208728254137 12.472738813239557
Hf 16.006006628517646 14.936137016733264 12.72984901615172
Hf 14.04756218856873 16.98439382677834 12.899543083348057
Hf 12.648243177403144 10.956810702287026 13.377451928789284
Hf 11.600617794502048 15.92954945771282 14.18992827744854
Hf 14.301284596296535 15.20961629109203 15.010404814416717
Hf 8.022340347820782 10.004902083272889 10.654675550576474
Hf 13.255321208451383 8.478022543938554 11.94272569656084
Hf 15.258822770296677 10.473956331343144 12.081464514888768
Hf 10.732858956024765 8.851391861467732 10.908449748762505
Hf 9.640751822034815 10.823661434886157 13.042383565868205
Hf 15.002167323249141 12.563324674299661 14.235805864235898
Hf 12.2721487578905 13.24951974688327 15.24248237152538
Hf 7.5887675622343265 12.603457562973304 12.265770555633155
Hf 9.523454369962653 13.461222935106091 14.648969553762482
Hf 6.73038912654895 9.946501127839937 13.116721017991575
Hf 11.143072502358526 8.532419038856895 14.208423663356717
Hf 8.680086463016904 7.935074413125514 12.587447509644448
Hf 10.411829414903083 10.899119229843967 15.87841307545086
Hf 7.631279283237786 11.576389704878949 15.168436136580237
Hf 8.496564145844683 8.912642578330296 15.160429577721372
