38
Energy = -326.63088837 eV
Hf 10.921517003602922 10.24072007089133 16.937137154535186
Hf 12.44734603478767 12.534619285175308 15.949498282319096
Hf 13.300581275940086 9.854830132256055 15.398717051307685
Hf 12.216321243498813 15.087840270151958 14.83741511879166
Hf 9.324077145356876 12.662173000028224 15.99856276721828
Hf 10.768666301328162 8.08101151530749 14.964053925436898
Hf 8.457638543614614 9.783691172087984 15.675446258425035
Hf 14.64359945571185 13.966744513483455 14.047028930748887
Hf 13.193068412166022 11.692839516102074 13.129691488991373
Hf 10.625127274654638 10.816165159864848 14.156006667298957
Hf 9.984078153924017 13.559099300593058 13.207631582311805
Hf 13.632836719724398 16.42820414499931 12.58275355054186
Hf 14.284251199993909 8.341990369780403 13.109661186904347
Hf 16.02450368467377 10.872859415950256 12.766467993286613
Hf 7.650983398608199 14.778696488973193 13.695967900718832
Hf 12.258216166225804 14.192773797164426 11.881765472452733
Hf 10.65743905042001 16.608190730094268 13.245731094733314
Hf 7.697537843450634 11.781121462168986 13.743157932316926
Hf 8.772294551219462 8.934462674375277 12.954093396128945
Hf 8.828320730431955 15.820488537813796 11.329349279553586
Hf 11.555014069657146 8.764815381827386 12.085163706688913
Hf 15.068498378374777 13.28966508799993 11.202456147586167
Hf 16.198258872041247 8.527786578146412 10.92140410864717
Hf 13.957937671823622 10.211234009222082 10.905517757500675
Hf 7.850604074374597 13.228195699792314 11.202633106084962
Hf 10.04628262998895 11.104497606486813 11.077725931914932
Hf 16.564104210880075 11.097140873472414 9.893333031225305
Hf 11.452658877203334 16.713632678139696 10.527407499755352
Hf 13.584369361736933 7.425706683391588 10.42895585975909
Hf 12.377640453224844 12.077482795680917 9.548316416058913
Hf 10.289568598658152 14.124184801736229 9.495895908066988
Hf 13.334234069074562 14.878707380072312 9.3369799108101
Hf 11.510845776517884 9.068489045704764 9.08905674672548
Hf 14.683110813157649 9.331173114768117 8.342258806465532
Hf 14.7457370636818 12.393407267767342 7.983783582593447
Hf 10.029428591092007 11.461534579236364 8.07840926662312
Hf 12.02863892658122 13.429324476406864 7.1191345047243235
Hf 12.57197490753627 10.687305220875135 6.944359186205736
