37
Energy = -319.31531933 eV
Hf 8.953655031281164 12.821916691009356 15.223865243047245
Hf 12.797684472086155 9.61559544913088 15.834679433525514
Hf 11.860949163290565 10.903903527714638 10.619542774533697
Hf 9.906196094491229 12.349668343888911 8.989212991565424
Hf 16.469071087724927 10.270909573634679 9.60389423860635
Hf 10.087740395311458 10.308651955655087 16.23632075774566
Hf 14.406071868493092 15.157345949295465 9.624579395218769
Hf 11.91090473750732 13.949026229887854 10.605779172459938
Hf 8.186597723469198 14.936366674605193 13.431339594899638
Hf 11.38531237711746 10.774801943165288 13.64992485263715
Hf 13.223655559490705 13.057401336075372 13.089368510625476
Hf 9.980042355146944 16.08252541324112 11.552639998334152
Hf 10.177663454870643 8.828086173812666 11.720522150232583
Hf 17.613129309665684 10.45718270790369 12.176986788779155
Hf 14.497791888176039 11.839164542188255 15.593262321472679
Hf 13.001205277617627 16.16430079182348 12.332228750562408
Hf 8.246716924663287 10.900778971492898 10.901995900970086
Hf 12.306055912156017 14.167063120867585 7.85290209945569
Hf 13.019700060577236 8.610772676675024 12.61749469653028
Hf 12.026275770028235 16.614798334711306 9.461260601399472
Hf 10.65271751474434 8.177493648674476 14.439741013389781
Hf 14.707510130930535 10.94048780600751 11.833296003991435
Hf 14.178916026769924 12.171053593547036 9.193198468882775
Hf 15.808175862497452 8.329309490936973 11.669226800541567
Hf 11.020770569020765 14.926394930095798 14.226501610406753
Hf 16.418503987578863 12.69601600652499 13.77778598656993
Hf 9.823036220097093 12.772611577360403 12.433203850153156
Hf 13.85446433501843 9.102771672523755 9.70267339089587
Hf 15.46172741223329 14.848168475167629 12.233026020355036
Hf 14.153125202770454 14.707038461853351 14.922789532453523
Hf 7.93607584715409 13.907533728560953 10.615416104113832
Hf 7.009325310881394 12.446809592392212 12.96938832706727
Hf 16.790035929084578 12.855607760424373 10.773936615852715
Hf 11.878885254076812 12.645296982967054 16.005363468434293
Hf 9.834629773991363 15.141232428582388 8.763240220877888
Hf 8.431959133197944 10.030238983499352 13.777436060893812
Hf 15.733421776990289 9.66008017471238 14.253570256737516
