31
Energy = -265.33353035 eV
Hf 8.002125365215806 11.683049926469845 13.85308611678463
Hf 9.351781523896696 11.807520153111376 16.23023423592732
Hf 8.772451234729376 9.807260064056571 11.652037960327714
Hf 8.549191168208019 11.401274346186906 8.9200304045228
Hf 9.64490274801369 9.265566450827407 14.554151432912201
Hf 9.239029375060333 14.28823178222004 9.386101794970827
Hf 10.497068139967942 8.820510522997635 9.450401562473292
Hf 9.647925682761633 14.146124668888682 14.328786772824829
Hf 9.261650275556057 12.69388174623856 11.628337333128298
Hf 11.047208167595613 11.74357346060069 13.903977088306853
Hf 10.101568785296866 13.182940946475615 7.032454010263861
Hf 11.792224739379105 13.22134856149744 16.266506511151658
Hf 11.747881038460257 10.370616160255318 16.388735731659168
Hf 10.622527762623958 7.6825007569517805 12.253129512575578
Hf 11.896156767390037 10.07836046389957 11.596264959656398
Hf 11.257659754676022 12.030195092071716 9.392754403985382
Hf 11.080778599554746 14.991190905708637 11.591128139431369
Hf 10.717117071009673 10.432520840482082 7.037374741828662
Hf 12.592923927447941 8.726820637809436 14.142644356114628
Hf 12.871695853426269 14.42358355793519 13.85401420078198
Hf 13.87281053104577 11.778206606591997 14.86836663439547
Hf 12.783353440400871 12.393354623386097 6.929998274880405
Hf 13.019276269537919 12.505410989982657 11.729430501521682
Hf 12.144418218481984 14.717296819571713 8.721093931289104
Hf 13.437931519202897 8.011148682761293 11.113287479779162
Hf 14.839372487990884 9.930696201480899 12.960674937559263
Hf 13.91850338786367 15.068556171729329 11.071402173228648
Hf 13.149212885776054 9.894619316535055 8.488116472702789
Hf 15.559899180122454 12.77543943923127 12.26619373280693
Hf 15.105454097893785 10.437744303216304 10.441106537919422
Hf 14.527299042149984 12.89445740180741 9.2065939447738
