34
Energy = -289.66501737 eV
Hf 15.229206741529511 12.706036131215884 12.89564186907915
Hf 12.14967206010142 11.424673567918852 14.020745634762951
Hf 14.682498649917376 15.416920976842443 12.361895674116873
Hf 14.150834863983592 13.418372041566682 10.350030033476527
Hf 14.672652469601916 15.517938711809549 8.896571170522396
Hf 15.326149957238421 10.734631004801587 9.886886619060308
Hf 12.083627088273445 13.789065106368303 12.40565519221551
Hf 12.38433418944253 11.234930211736758 10.322390841937755
Hf 13.610881828044509 13.961075816086879 15.0292202598468
Hf 15.204946559219557 9.386695032758386 7.572880900027462
Hf 13.934744947833172 12.202109437519452 7.691812577602884
Hf 12.370978530231291 16.325223548631115 13.69833476273326
Hf 12.141720567742166 14.380290793730639 8.375459329219762
Hf 12.347421623760118 16.140148785752746 10.72127930809069
Hf 14.807304356495235 11.312625867200198 15.226464720330437
Hf 14.14932642904487 9.959773557218243 12.434020727952564
Hf 13.608494219942838 8.391623113068752 9.968510360386512
Hf 9.960240688798539 15.820573065652626 12.467020343688556
Hf 12.537881349103976 9.67289515373668 7.6340414470343125
Hf 10.070509990003888 13.791834969905366 10.193722507935217
Hf 13.335074382090733 9.032707402463389 15.118410077943038
Hf 10.818173851511053 11.826327355057352 7.937158957168788
Hf 10.640275687875711 14.19072086056729 14.889768394260162
Hf 12.240124739283276 11.446389488142447 16.64984076528023
Hf 11.444057921229486 8.267256456097343 12.732322991186003
Hf 10.072264465360456 10.781991338712787 12.237630630469807
Hf 10.64666841083357 9.053496829423299 9.549551356598426
Hf 8.719770961148575 13.335606370622616 12.777633793338074
Hf 8.50250137038602 11.229485947668499 9.919020837824238
Hf 10.710480022899851 9.246476183803216 15.566398591386905
Hf 9.029845636521433 11.512907824740775 15.037746083309473
Hf 8.519701874292732 8.615732450026274 11.250022404649195
Hf 7.275000185030592 10.829687311347424 12.633592280674552
Hf 8.647931568110499 8.761753722936872 13.940733886167159
