36
Energy = -308.36935657 eV
Hf 16.08504854868157 16.7541105263695 12.78461537369577
Hf 15.023789649579307 14.498249906336245 14.35002132294703
Hf 16.16647301329293 14.21683045559591 11.610066234023677
Hf 13.72377060915025 12.086929939016784 15.83573944631583
Hf 15.5895100055138 11.833763182619991 13.459086508840201
Hf 15.027191263062317 9.646383019230075 15.111717153083292
Hf 14.723323797498885 16.40535888243382 10.402892337111536
Hf 13.200944017692334 7.729011429426526 14.239002607337525
Hf 13.285343999084771 16.295723131196436 12.813987439791866
Hf 15.434302219859337 11.262024286213995 10.539495258142562
Hf 12.047898898341865 14.125137652603204 14.664549301154233
Hf 14.829754530361921 8.930149068162029 12.222554274146345
Hf 13.356433794146117 13.435981474692559 12.023781334471854
Hf 10.657163699460547 11.589782320396301 15.635992235027691
Hf 14.580789525124269 13.755886541325955 9.265568344402885
Hf 12.700336812449844 10.60207161273987 13.487906082042018
Hf 13.679359637368526 8.79521022323835 9.324409413279538
Hf 12.459464004817505 9.511051991129156 16.261300883956874
Hf 10.43549161245758 15.528443343706913 12.714172593754686
Hf 14.20317067608366 11.314269835992324 8.050817184589205
Hf 11.934217314594752 15.45551909571777 10.295744588601057
Hf 10.410224027399826 12.512738825296909 12.445815158059414
Hf 12.22474201299998 11.020747352912911 10.347696683570224
Hf 10.461403678190642 8.857642712558542 14.310317933601514
Hf 12.014383924641841 8.015082514211466 11.733799575633064
Hf 8.904023160713846 13.934545328476421 14.50186137515464
Hf 7.74012186153034 14.856924622767314 12.071599126959752
Hf 9.446870611325595 13.940040535939183 9.941327817413471
Hf 11.75646701317434 10.310324041603904 7.527174627331451
Hf 8.333924999661633 10.986992699881245 14.024178685807675
Hf 9.413900483119889 9.553776171758637 11.660090781458122
Hf 11.814748438814954 13.143684282702012 8.290575099512676
Hf 10.706626880013406 8.608108661061499 9.323890320555813
Hf 7.694400599519446 12.086404611469279 11.352114736351643
Hf 6.343586652391491 13.065750414687878 13.68482471241005
Hf 9.521797147621085 11.256515617492111 9.028313069814182
