30
Energy = -256.20693387 eV
Hf 8.827690206618396 7.737401659947787 10.516608529186094
Hf 11.51329025740415 7.413237140954119 9.735223000891907
Hf 9.67987698682624 8.950081118615687 8.00646949549161
Hf 7.551321216218097 10.08797242843017 9.951471596238065
Hf 10.884145026913387 7.902330759393801 12.513154991754405
Hf 8.43640052348158 9.83153810324963 12.64463357165599
Hf 12.688806617419562 9.656858128924288 8.412932101254237
Hf 10.59038152105941 10.054245780468943 10.454461939822846
Hf 8.434883994676452 12.382825083639096 8.65701282853783
Hf 13.414751668838607 8.99585293820046 11.25053327017692
Hf 13.544526019440026 9.281642817106995 14.318016430066542
Hf 10.950981637492164 11.563830207319358 7.5451222100581266
Hf 11.006626578614648 10.500913508268253 13.71598641579746
Hf 7.220629467384261 12.582044219270278 11.560756593254872
Hf 15.801372690875048 9.844338672134867 12.592287243305075
Hf 10.033551143866962 12.714061473942444 11.309461410426843
Hf 13.528572769098657 11.706702948396304 12.664882032212471
Hf 8.91450133364229 14.851201467961246 12.783390209369285
Hf 12.750907522640988 11.921852493253525 15.49625510856441
Hf 15.500174004667537 11.410115764993693 14.948300920421362
Hf 8.881111282875972 12.420407075480624 14.079053520960619
Hf 8.415878758351127 14.855494704398534 10.059514782710925
Hf 12.538655454981257 12.431190610188239 9.78332582472372
Hf 10.624087828631287 14.223622808964546 8.494083312218349
Hf 15.144644522444299 11.422622794203507 10.19253413147649
Hf 16.292302036204166 12.670799884381092 12.544577060858362
Hf 11.530918196564235 13.862600872827059 13.61073802583042
Hf 11.249629924136405 15.337098515607805 11.027356095548878
Hf 14.425474017015922 13.98076618159329 14.292812017948036
Hf 14.239356921928712 14.196284778341914 11.308009737688778
