35
Energy = -301.3442095 eV
Hf 13.961841932169943 12.687079861345751 8.291264541362544
Hf 16.186674778629513 12.488310545796914 10.334987854568325
Hf 14.678969042694963 10.165169049101065 9.039899072459013
Hf 13.579947559820944 14.82081491078365 9.978191989442903
Hf 15.091714849054574 14.531277500604721 12.714561859089537
Hf 13.011060129447147 16.58090132300297 12.182235470293717
Hf 11.333096228569378 12.786347367474715 10.392836907270365
Hf 11.806305390096773 10.760907179028152 8.39689576251162
Hf 15.755761946274095 9.74656535965112 11.524994202816142
Hf 13.762733150314956 11.833407653911815 11.401020321080297
Hf 10.84459695195246 15.734955226523594 10.640333380817742
Hf 16.046880287402825 11.8623160127002 13.219869027645267
Hf 13.335171413002719 15.617420745192298 14.776201165142083
Hf 11.377397200314318 13.918359193831712 8.025231935854364
Hf 12.999827192707315 8.855848483586371 11.185553037441185
Hf 11.967266988825939 13.943099947696153 12.882510608158647
Hf 14.00151892365593 12.776998877436181 14.950043542752452
Hf 8.967876516077379 14.091730967365251 11.838561664525518
Hf 11.446070147183821 13.969896155516064 15.869918839891245
Hf 13.896765566276505 9.96300128115085 13.919917075005117
Hf 11.466454722404656 7.778971224601194 8.810833258463054
Hf 8.820982695460469 12.030472543992353 9.296030926802487
Hf 10.898552642104942 11.216467126452404 12.887462571648356
Hf 10.484999708945988 16.001568920067175 13.824454028453061
Hf 10.114878948580182 9.574896943926042 10.543628057373711
Hf 9.181861770023446 9.369649015092156 7.845713197802351
Hf 10.85559799805794 6.859502521414301 11.44344092510598
Hf 11.609385220478142 11.065535789965864 15.599045650700498
Hf 7.944652025917136 11.376649356140266 12.205141694101952
Hf 9.19065239557051 13.072694649512238 14.468086927114062
Hf 11.165526054198931 8.504516110220475 13.851007962487559
Hf 8.725916835322113 7.225394629750017 9.67515684726604
Hf 7.286982179039468 9.66498781186286 9.993549749810922
Hf 8.966883759100378 10.17052299518575 14.701637128975369
Hf 8.424213309096121 8.301348103320798 12.478093286106349
