32
Energy = -272.28077702 eV
Hf 11.683314605871558 15.830609907617921 10.649048343613893
Hf 9.926534317660215 15.83402723598163 12.993385579740368
Hf 9.156148101176449 14.776815582969277 10.32365611807137
Hf 11.465041530690085 13.909329854563504 8.76040370743603
Hf 9.91111342693992 12.034422609137719 7.492615653902409
Hf 12.985238603454231 15.639739971015926 13.125268315612406
Hf 13.677966482398302 13.661122855620963 10.454402179589147
Hf 11.389028906385915 9.502631211849726 7.362449184013331
Hf 11.093506841503954 13.322284969592827 12.254036205439249
Hf 7.974553433627263 13.672217373151042 12.607326934855655
Hf 13.040376833318831 11.665641178873184 8.233650953206343
Hf 14.218335319700888 14.644523145552602 15.566201683123131
Hf 8.14938285631679 12.031805350454038 9.983152792303674
Hf 8.708312393208084 9.683410270760948 8.23040380718763
Hf 14.228763623685191 12.99139074892555 13.153804565158115
Hf 11.415503419919478 15.275698247703115 15.420258526080682
Hf 10.814180583534682 10.78639304922747 10.009246945329217
Hf 8.231428989602325 9.269031186993944 10.852330244415583
Hf 9.216148609229439 11.07640358806401 12.723017382163167
Hf 9.503534285085973 13.195217073438155 14.83358282384317
Hf 12.258786515564793 12.661542210137595 15.201243263724892
Hf 15.12741114914329 10.962786176040632 10.17470383016778
Hf 10.507918977458697 7.849230398717968 9.610692640154664
Hf 16.123263240856748 11.12857285330667 12.697483132916723
Hf 13.462469079670319 8.870050010148901 9.277676697445717
Hf 12.880796412108156 10.388636885598281 12.144255945244051
Hf 10.371917584492 8.311496391053982 12.578249892149506
Hf 11.179422499130641 10.184807254194098 14.683410616438737
Hf 14.252314190057993 10.426312534693082 14.754420433222416
Hf 12.698155801286168 7.254580706396192 11.398084168636766
Hf 15.11346093374915 8.594619621778312 12.04052707525166
Hf 12.912747204546838 8.051748133963077 13.9986658480519
