38
Energy = -328.74214132 eV
Hf 16.184801884814636 12.954313720072458 14.089990663277273
Hf 15.162701539116789 14.908335491666394 12.090622170064188
Hf 16.683084980221135 12.549045866655902 11.325421975135477
Hf 15.97300721229777 10.178624558270805 13.197015666479514
Hf 13.90752581014311 14.588220894103845 14.74143675795423
Hf 14.259509953911955 13.252798342746784 9.550207051817997
Hf 12.945415125852874 16.606126705391727 12.764036455981651
Hf 14.00094971170184 11.08012243138735 15.128598439281763
Hf 12.228733723672207 15.383453221733285 10.052149324051962
Hf 14.086831320597355 12.221279843564565 12.389509242889474
Hf 15.301231284456767 10.44549644492286 10.028720225318521
Hf 11.204489014932014 15.683445471883534 14.801664648067556
Hf 13.962637365802722 7.9094376807856674 14.288458514390713
Hf 11.627087352813481 13.271191680697287 7.9527810962376915
Hf 15.20331224295565 8.009953795438843 11.48298210845841
Hf 10.173570117559684 16.15968613118012 11.929196999956474
Hf 12.91740863358381 9.520600828665566 12.552796347650379
Hf 11.948621580611205 13.991181493811736 12.65807960629331
Hf 11.484836325539506 12.662503645431961 15.336903347329653
Hf 11.99786748696261 11.312247976183295 10.169598912984922
Hf 9.910962898876562 13.254278823253127 10.65522719340842
Hf 13.486897873641077 10.973272558890729 7.797756293726843
Hf 11.318045469368517 9.618225072410446 15.320482957117672
Hf 8.861123838704373 11.274980245622537 15.118713264614131
Hf 9.065097303856898 13.994501799408363 14.053738006195399
Hf 10.548641781175776 11.141890827816226 12.861314012208366
Hf 9.002769969445607 12.286146884960683 7.979905497857324
Hf 9.119340169701253 15.136217121520982 9.061206360678558
Hf 12.8385365474256 6.710726881750075 11.758013543783619
Hf 7.648052208630406 14.795360344947708 11.731441125438801
Hf 10.716600311002438 9.988205056259426 8.139211978437553
Hf 11.022791151822089 7.452967500117374 13.582270692960556
Hf 7.574451817692289 11.949771483195775 12.55331253246385
Hf 13.14948882443612 8.53569898869835 9.420132818248995
Hf 7.141535923816892 12.971444874777365 9.78301387399389
Hf 8.724187329842767 9.115810777495458 13.091052422926913
Hf 8.55320072303606 10.393003929647168 10.229354570704714
Hf 10.523401527659077 8.308437919970247 10.786956931930115
