35
Energy = -301.89323251 eV
Hf 8.058409648558094 13.155372814987533 12.346022784235721
Hf 12.893954488571397 15.549514989683637 12.710050490418801
Hf 11.676952333754656 14.69224825856499 15.052831654143194
Hf 14.634521846369427 11.154988607894193 8.729730840003912
Hf 9.468668460956044 7.290041440351427 10.170309904412179
Hf 6.810079428354168 10.538433359588108 12.20332677698801
Hf 8.082945243341566 8.192177722705518 12.384117113248466
Hf 11.312513554137247 12.318365943076486 9.618077557420492
Hf 9.455642755944902 10.358861606959898 13.997234506807727
Hf 13.900479520271675 13.29373734878815 11.001785392769419
Hf 9.834540497666906 15.506512813465548 12.880343978233716
Hf 11.224099841988318 13.211651546305902 12.52328886352159
Hf 12.510109357959456 9.766587680832727 10.325204805886731
Hf 9.473789985535852 10.373217053370833 11.007651732369222
Hf 9.08969068756149 11.559885673442219 7.817441323822634
Hf 14.943801770838077 8.483362154799433 9.973421796728458
Hf 12.30332232078151 7.056428649519476 9.70794334008414
Hf 9.079428067246807 14.261225558474468 9.921559403634243
Hf 11.933512897565203 8.81924225660411 15.043850784836238
Hf 13.843484475180032 8.244284736573332 12.758589576240636
Hf 10.972579258045002 7.808242896074964 12.49782803552429
Hf 7.448675928368469 9.186334079560577 9.52607497317409
Hf 13.97460752921922 13.183377824619061 14.031941971214302
Hf 13.392384699304325 13.688669073447958 8.079131445478263
Hf 11.785565527266657 11.736695721784821 15.615964848351851
Hf 13.334033993316075 8.777354525532916 7.7106941421308575
Hf 12.235318996862341 10.6818143912764 12.96257447038904
Hf 10.431800038059325 8.980019658729713 8.112117724570053
Hf 9.366773087991016 13.208524221023193 14.823798547527224
Hf 15.056028187983076 10.734919291014284 11.856640569709638
Hf 12.096574638681604 11.301096650090061 7.004648541137495
Hf 10.685103684110025 13.948207393100407 7.427704350990899
Hf 7.2309916949127775 12.053220631817894 9.882535766577236
Hf 14.312707359873794 10.358860970802947 14.749069181634695
Hf 11.780256222266287 15.115637590530628 10.075314075423677
