37
Energy = -318.7312131 eV
Hf 13.717856565848672 7.979144237613034 14.643869224231262
Hf 15.788537759183866 9.719030315991796 9.286398686724914
Hf 14.848639733339501 10.684461853411964 14.412610690699177
Hf 14.338844029474219 9.106904835976309 11.882201359817138
Hf 15.946562103445432 11.77113976304866 11.27027144382288
Hf 12.787479335099176 9.958241868368487 16.433956738062168
Hf 12.020072191770513 7.201637366904107 12.617768147272095
Hf 10.745264734469535 8.216788330534463 15.27966847733282
Hf 13.348867956188858 8.275508937877131 8.946933266950646
Hf 15.465259425696347 12.460356140752543 8.428420350056683
Hf 12.069422060254972 10.014945768572296 13.615701219728559
Hf 13.268677223620415 12.263733742317392 12.440059607222029
Hf 14.438627376812509 14.240174608372753 10.408919703745498
Hf 14.003963031648734 10.452343552712515 7.134776594162627
Hf 13.336501397192109 11.109598466756017 9.813260698767332
Hf 12.905885181842683 12.585315958627517 15.392323817839737
Hf 13.438248540628315 15.020457515993362 13.257290201775042
Hf 11.218474273086752 9.094852420169154 10.703703657485422
Hf 10.816640353717856 13.643473254323409 13.842255449927956
Hf 9.140912240305902 8.119879402088387 12.704262826866067
Hf 13.014884422827391 16.918209772869368 11.094814596389034
Hf 10.157515093573789 11.973228544094274 9.749098328453487
Hf 11.67582080331805 14.360621117886048 10.82031245960957
Hf 12.381832358630097 13.02474960653218 7.953543640112568
Hf 9.54698822632742 11.182457962256619 12.504608858965472
Hf 11.27388008608722 10.014436062233044 7.915485648882469
Hf 12.453235514168002 15.878279822614685 8.513793356547112
Hf 8.444859109502206 9.63333177994487 10.19569720559362
Hf 8.24835793063477 9.808013400286457 14.899640615160523
Hf 10.879955766779162 16.376149145635843 12.935893475434597
Hf 10.319588588947836 11.375802602212065 15.808389041591264
Hf 9.818095102199962 14.561301192765866 8.582194357483813
Hf 8.931985890073683 14.39946466701289 11.596862101005454
Hf 6.883390281253405 10.038713682032375 12.600430643901083
Hf 10.29106106477694 16.84500278843702 10.203323855039699
Hf 7.3367129289839434 12.187483208879398 10.866536096060665
Hf 7.643742911857842 12.613161261052024 13.87075708966224
