38
Energy = -327.24438055 eV
Hf 9.829467018364232 14.661273225085381 15.875087763018877
Hf 12.506374222382892 16.00630044287177 15.367728135397696
Hf 14.430041102600384 15.716626140905909 13.12792113754685
Hf 9.247626049657168 14.705866187785768 12.86383717849436
Hf 12.098941728428597 13.809389205998093 17.168870597604876
Hf 16.612004717178678 14.83268337631555 11.127282672581806
Hf 9.33265882643056 12.318783131654376 17.46993792721453
Hf 14.513721992350666 13.763497627998538 15.321120487795014
Hf 11.587208714125982 16.26958309444586 11.825900266214289
Hf 16.93560549718452 14.184526423313 13.812876831121658
Hf 13.904844934539021 15.062868138702974 10.258366994389716
Hf 12.014316408311602 13.805339431645567 13.753323454977316
Hf 13.93750753439757 10.884453870409814 15.963061818504723
Hf 9.182784509065604 15.55389707031045 10.126034042850067
Hf 14.726527552416425 12.946588759385232 12.293432553944134
Hf 11.12196656110459 11.641506464227215 15.598812845811446
Hf 16.357455348337133 11.316062776938997 14.272689154111026
Hf 8.187658359690868 12.635972098417698 14.862796366908801
Hf 11.60605374736734 15.615158535323898 8.805537341549998
Hf 8.215666989068884 12.987674510049212 10.769923389223825
Hf 12.907180796635188 10.814577912723163 13.283810304385938
Hf 17.49452590779426 12.223665294171228 11.793658538972462
Hf 11.170836380659946 13.605244309594214 10.87501729365061
Hf 9.931074855277545 13.224016395952287 8.311976142604243
Hf 13.079125870870316 13.064955378916554 8.205315721849475
Hf 9.884273324823761 11.631174607475591 12.811091370365675
Hf 15.625853247466411 10.037228516126214 11.44910912405643
Hf 15.722502494481285 12.41427400018321 9.550783100014565
Hf 12.041762274730816 8.73698733791918 14.767938601564383
Hf 14.914954480986683 8.887788408456839 14.106561653995817
Hf 9.006902533333982 9.972925676283385 15.10262232297751
Hf 9.57599746045258 10.587535711686348 9.833412476544131
Hf 13.228218631367005 8.102242714938527 12.02579251190385
Hf 11.52689804501438 10.757095518392237 7.810392749835375
Hf 12.637272296297684 11.08263118784098 10.569885025159047
Hf 10.576770534523318 8.912537383891218 12.150803941237683
Hf 14.17485396463172 10.099053499240247 8.543756295009365
Hf 11.709839484074276 8.574306099791519 9.519476782079414
