33
Energy = -282.92304798 eV
Hf 12.473256423337716 17.51728696070653 10.788843981123753
Hf 10.62553116678636 15.678026170791671 12.107627306580016
Hf 13.617345387628294 15.653778115343355 12.617691438048942
Hf 11.583701542596257 15.27257592420465 9.27097287666426
Hf 8.51841091313462 13.865638971190654 13.591235567895538
Hf 11.583043897326657 14.048167180403775 14.313785218077076
Hf 14.339080191108907 15.712474179270139 9.861197226491525
Hf 9.328498054922587 13.59981100229453 10.54169764583558
Hf 13.603794898845615 13.199053577414867 8.651381005050165
Hf 12.388546132680451 13.36524299940551 11.317564692539708
Hf 14.590622751134246 13.142865721257488 14.29803006034682
Hf 9.75489881650305 12.36593859569943 15.721718557715038
Hf 10.829605397612616 12.408034728217155 8.05434543594471
Hf 7.393705093228831 11.91662094750924 11.783411775963556
Hf 10.168214162307697 11.698170449947899 12.84935631175858
Hf 12.461110369637376 11.473938231181059 15.806908347485113
Hf 15.312774409047577 13.519317287722645 11.46568724572713
Hf 15.0615958070041 10.357794695050515 15.091350903753403
Hf 7.780837668766621 11.053843230628807 14.352023805982439
Hf 13.149093731902711 10.945070092409745 13.010297113743976
Hf 8.680400798436867 10.737903735203641 9.521738736436244
Hf 16.10014328775123 11.14721711619865 12.718685038467765
Hf 11.502223808858375 10.63647393154931 10.283503669871259
Hf 10.660052392110687 9.492628073292508 7.764891480683144
Hf 13.136986152179988 10.578846525494697 7.796529816947526
Hf 14.644785907814882 10.669999537943177 10.264679873846285
Hf 10.240898665204988 9.525514684815043 14.86159543689277
Hf 12.945985219749543 8.639447676534484 14.881936165611515
Hf 8.656653163476317 9.227019114461543 12.227504730147722
Hf 11.617048952681609 8.204178098918206 12.3758577212507
Hf 10.008488547215098 8.071309149606597 10.003498310845247
Hf 14.65718056377804 8.606238006505809 12.549029266593953
Hf 12.864909241621772 8.264187884327567 9.575303476227745
