30
Energy = -256.7967967 eV
Hf 7.206602549456481 8.624350241124027 10.450427261828485
Hf 7.871961884162198 9.054140415861703 13.266816236450287
Hf 7.136534027185483 11.327109191074703 11.602199294217638
Hf 9.503631349506389 11.479680450227777 13.60179156711238
Hf 9.289977917700547 7.105159796262797 11.729412682481144
Hf 11.31782780342266 13.286008087480756 14.982209179134507
Hf 9.328525503408441 14.419229131961457 13.15708392454056
Hf 12.386838123382798 10.499502711958627 12.092958275720049
Hf 8.268972412938329 10.903822305040563 8.712287322435296
Hf 12.94060086264266 10.794646383598849 14.806263020303708
Hf 9.737559572240707 8.073065587277707 8.921650156514039
Hf 10.810271073068021 8.622534771844517 13.806195549045157
Hf 9.555084279844076 9.934034288897248 11.20261480490463
Hf 11.99599968505259 15.588361694269247 13.619639365088448
Hf 9.2140568065725 13.081128747604344 10.446992226011396
Hf 10.769299681316104 15.716664281124565 10.972463300442271
Hf 10.595130578408531 10.135349951637762 6.97356310032713
Hf 13.765473290486948 8.40450788654752 13.167675522143966
Hf 11.671270215226926 13.233907565100683 12.054918258323054
Hf 14.044040067764357 13.38829370180592 13.689170651517914
Hf 12.02343754589976 7.669656919899419 10.938607356243436
Hf 15.146994867566363 10.844773894143502 12.841302210189228
Hf 13.623217890784169 15.208540106242085 11.32920399274365
Hf 10.304269308031735 12.8394331055299 7.66181641932678
Hf 13.227671799936012 11.465849309509856 7.574279026960377
Hf 11.540876858840887 11.09208809856747 9.522066553145747
Hf 12.542565509549638 8.614518897559423 8.283234189837689
Hf 14.423126021174225 9.492338381957136 10.32538303917354
Hf 14.46293633355347 12.498987410151136 10.531701910696105
Hf 12.451529700099119 14.017692963631465 9.088773180353547
