39
Energy = -336.42246717 eV
Hf 10.64805519834662 9.020014610998741 7.525721691088016
Hf 13.33369086935696 10.156384374845306 7.922212447068064
Hf 10.795236121180134 11.997128685651653 7.907276106608443
Hf 8.487578307531567 10.267567036191856 8.992724182635081
Hf 12.3398920096571 7.527069563764414 9.314118158553407
Hf 11.72267687611866 15.396806703719276 9.676520833264998
Hf 13.403410513878432 13.008638922949734 8.5531025386325
Hf 11.32838131073484 10.129489413041972 10.03265826233851
Hf 9.61832151180334 7.8394256957289 10.041335445903664
Hf 14.824391557967154 8.687158506402483 9.907638238927948
Hf 8.854186662800126 12.791959080757977 10.067860892422143
Hf 13.838883275092735 16.88398170171582 11.204970840900799
Hf 14.400738493552288 14.02858742801959 11.032594343977912
Hf 6.900558968123894 11.563263345419086 11.661970531488477
Hf 11.100802930523498 17.549180315827027 11.601317142547023
Hf 11.640662755987242 8.123403733022064 12.261036661163782
Hf 9.309216522904345 15.520957159000924 11.37898121787786
Hf 11.583695511351454 12.848985032513381 10.909056806729522
Hf 15.63333212979654 11.513992167338428 9.689087248291365
Hf 9.154219590548633 10.166037755787297 11.99128370797071
Hf 13.844636901968055 10.81757572474817 11.87448919620815
Hf 16.488438658973745 9.704715551290974 11.858947210215986
Hf 12.034745141913959 15.012421385079422 12.762228242140601
Hf 9.808094776287502 8.659416457768875 14.47105633469298
Hf 14.510206324671472 7.987799576224676 12.772376255697775
Hf 9.125172882224735 13.20726886330369 12.877253506914629
Hf 16.254379998986174 12.436731878901558 12.564757632311055
Hf 12.757348582710074 17.67569844819405 13.786567861979346
Hf 14.885452619350001 15.743338485300518 13.57549286421966
Hf 8.562108207364005 11.197500217071774 14.718270113148252
Hf 11.387803566874409 11.062106944590377 13.702335053018286
Hf 10.110681522561773 16.27806036492067 14.221416376209184
Hf 13.904485782351491 13.10681123806163 14.113709351923328
Hf 12.748092195504665 8.81331852074328 15.044603870141211
Hf 15.274958437798517 10.368392195488234 14.437853788957531
Hf 10.849167357324081 13.348666365062583 15.379486359410917
Hf 10.684309216695969 10.478400009821069 16.47759470819429
Hf 12.805160132821852 15.48363192378628 15.571541041244677
Hf 13.13367861507614 11.513921897431663 16.192115398525555
