33
Energy = -281.60449228 eV
Hf 13.733226054166725 16.193916560382224 13.360480928486007
Hf 15.992871088164545 14.967638031319742 11.927547610175036
Hf 10.992178462069266 16.606815637088715 11.455757043813591
Hf 13.551678370847814 15.289925807228244 10.50319674462853
Hf 11.333435928810262 15.627368645170913 8.70601591670356
Hf 16.559098384264864 12.275774153701473 12.983745890937588
Hf 15.258054264380311 12.863541938315992 10.278139569017645
Hf 8.636927648149873 15.227135109530472 12.41299409434674
Hf 15.870757750114244 14.578923562446743 14.649809500398261
Hf 12.834001936906384 13.3279025539101 8.364343605728813
Hf 9.883650400676641 13.112106036988127 8.380272082306158
Hf 14.9539849230849 12.114822697860076 15.54638763363436
Hf 13.724993604454943 13.282274372187313 12.98098511402005
Hf 11.09291822696511 14.879485373449363 13.904740275605425
Hf 10.898480660630142 13.752282902794722 10.992357570621996
Hf 8.796943437642124 15.389487459120184 9.691770624276193
Hf 15.418715473189476 9.993492262231696 11.364087947626377
Hf 13.27937309059947 14.519643157111926 15.68079385399431
Hf 10.926111169970573 11.073929790277697 12.566048915856456
Hf 16.19623907166063 9.616385883439916 14.139753506649027
Hf 11.731407827089056 12.106381353685624 15.15333337082716
Hf 12.799123194095158 11.43579564304966 10.457455290111126
Hf 8.923549851701537 12.732464196687818 13.824859825680239
Hf 13.654780064808563 10.33650193182309 13.64533127669735
Hf 8.108857312473974 12.79113901877231 10.783736542347546
Hf 9.876950515171115 10.534997029483401 9.962703638547179
Hf 12.637996630543746 8.68843807115285 11.119807009608852
Hf 14.580845861701565 7.540784134604969 12.7439278845478
Hf 9.604264008586116 9.849667469786677 14.646418579668575
Hf 9.852821514849706 8.251213326928902 12.198077911286465
Hf 8.053811590642031 10.40916499785763 12.324577049724144
Hf 11.94659950458616 8.090217282069656 14.091318775626606
Hf 12.062544298844143 6.211946491648284 12.151234817647893
