39
Energy = -336.83710169 eV
Hf 13.912088433586064 7.294740134233253 10.823824854111306
Hf 15.813338040055694 10.075872380550807 12.569008033209828
Hf 14.963161623636493 10.70286632202461 9.116656277067177
Hf 12.981363056725447 8.706225889669097 8.348019235407108
Hf 16.148847291097276 12.57262108421897 13.966050267990887
Hf 15.12059855516596 10.340480986013704 15.605345265679569
Hf 13.998815955698742 8.225761501732736 13.671331392544984
Hf 14.358449162002579 13.430076863285763 8.30527250526157
Hf 15.147870385025602 12.733032921442716 11.236256709134905
Hf 12.44305741255217 11.30089156599399 7.228518011095545
Hf 11.13880593086396 7.4199173837466095 9.82304549570455
Hf 13.134876329717455 9.799458419790803 11.275265521064696
Hf 13.449298256909803 11.476147903454114 13.808570720694727
Hf 14.348844345195467 13.198017544386508 15.958852388325607
Hf 12.577135695957786 12.26502123228776 9.964238567956057
Hf 13.907106658992136 14.550900013347876 13.36109335290647
Hf 10.460856853122404 10.412578139152984 9.816817455326621
Hf 11.48768789913549 14.13362605999421 7.922173137552792
Hf 13.039891368219857 15.135747688606969 10.469214377989267
Hf 10.16818931653142 9.120409766201192 7.52707728738452
Hf 9.594588738013591 12.061886876339031 7.4512900078090105
Hf 10.431892851383106 16.02626313191877 9.773514474409616
Hf 12.384018363704227 11.38678880518964 16.60851731203463
Hf 11.327446196209813 7.401642374724061 12.692645647107879
Hf 11.54063791589228 13.136925929741533 12.477093167094615
Hf 10.782832999487614 10.333435799606807 12.751099806535338
Hf 9.56265148599233 13.224738554789436 10.557578144663715
Hf 10.86025967660236 15.801034137470182 12.643362329741677
Hf 11.728315731020402 8.97425589041172 15.245369675473205
Hf 8.792910683747634 8.48939747286123 11.275606382178323
Hf 11.55612503745895 13.90573347852231 15.22512788872237
Hf 7.623544530320053 11.334025048991888 9.340295347127313
Hf 8.040404911006702 14.385201819385923 8.655410276230105
Hf 8.21130500306591 15.699539581956587 11.340246803199351
Hf 9.867534603073015 11.412629042593018 15.273137106294744
Hf 9.032059381180854 8.761455894762198 14.137513833929301
Hf 7.9861398134225325 11.050368929731771 12.337633632952135
Hf 8.795893381262719 13.730984672451635 13.522038745697797
Hf 6.756549854816691 13.380761573437043 11.180712665892719
