31
Energy = -262.17797164 eV
Hf 14.404777187123088 11.32655465745503 14.805137212634753
Hf 13.47964784433309 14.098029170943649 15.113954936564857
Hf 12.28025288901238 9.404284067403204 15.436920591062414
Hf 11.367262293276003 12.230048004184955 15.605551901373413
Hf 15.353956695000816 10.596555217412694 12.125970346602013
Hf 10.858421207369028 15.05082049489516 15.014255214041185
Hf 9.436828528780213 11.460489504441377 12.29483333689123
Hf 12.474791351159604 10.720140668201063 12.807749253859962
Hf 14.746103558471516 13.511387392118317 12.60348687400884
Hf 9.692224764218548 10.009714290726677 14.625236312663986
Hf 13.136088810771696 15.936924522822192 13.143203471563455
Hf 11.268859689192432 8.030334068077385 13.031959195112805
Hf 14.175201060554361 8.554286619462559 13.552180737486557
Hf 11.644916446895976 13.567832223206436 12.752635186245445
Hf 8.866042867366575 13.061197026186973 14.413541966763095
Hf 10.64203544071226 7.116887675647835 10.297441677942132
Hf 13.40149415053896 8.86555310087425 10.690276329197125
Hf 8.68458936420901 8.671170881377357 11.810273402832586
Hf 13.715201898185304 11.899523147245437 10.252674605840049
Hf 8.941858413658723 13.996141508119994 11.324015775947382
Hf 12.89623036044701 14.85307650272463 10.527859257020365
Hf 10.867829297517414 9.935034416733345 10.176700838349023
Hf 8.658146757436674 8.597868103237172 8.907103386806327
Hf 10.997729881671074 12.819041902934883 9.617581144958976
Hf 8.01959890361624 11.362209254933811 9.918039277675977
Hf 11.298459857434848 8.413539375118388 7.874616483257048
Hf 12.577899557208957 11.054910442763168 7.575285188338416
Hf 13.589833219558418 13.630718766037857 8.010868935732452
Hf 8.661844088659134 13.609465138103898 8.310917289578361
Hf 9.62298165041782 10.934406364641545 7.426197481789195
Hf 11.078717725603603 13.360031249203576 6.7445304796665635
