33
Energy = -284.14428417 eV
Hf 6.973192305984191 13.503486217460678 13.427867083253053
Hf 7.757971861915116 10.780392756670047 13.146133241662916
Hf 7.643254616905171 9.664712752538962 10.5139370691324
Hf 7.169711029969253 12.507205182471653 10.713608554669184
Hf 8.562373431202273 12.423215123366269 15.517799852864174
Hf 10.000655556588807 8.722507989348179 9.233981928145061
Hf 11.649292775213903 9.731034649655061 6.817703426963472
Hf 8.555565770972692 11.10897790955018 8.184573706663318
Hf 8.86947891453048 15.126272969709166 14.673236472009055
Hf 9.869199899271633 8.81700951077476 12.298724415874926
Hf 8.677327268218338 15.166112884124303 11.607784962033914
Hf 10.7070732604968 10.613611723058261 14.64435721941149
Hf 9.876957471818633 12.99838753450468 13.017396736942374
Hf 9.05986190836404 13.845195230112347 9.017570128490739
Hf 9.948552538777532 11.490441861386731 10.592341673724961
Hf 12.310226057659463 7.207899650470333 8.23384471646078
Hf 11.159321542417048 15.597756534377675 13.202112078006055
Hf 12.285259091361894 7.387998059892136 11.224344891668032
Hf 11.360641635762544 12.361535360086853 8.157014957046004
Hf 11.379307127900695 14.401514395214427 10.545963696580234
Hf 12.801545304417875 9.799251533467299 9.394734643541454
Hf 11.302462478713373 13.555683240640185 15.393091789126945
Hf 12.35020340332777 8.411839378357003 13.896065347903896
Hf 12.397239854515556 10.717840759156568 12.069669778377879
Hf 14.4526209490125 8.807115551501711 7.257230141496774
Hf 14.701366538172056 7.53111929322374 9.726149299032347
Hf 13.98467833271015 11.52549392121135 7.382053885091225
Hf 13.804679269903039 12.79154488097166 10.007351049533932
Hf 13.032872304319444 13.445223565201493 12.985264065247756
Hf 14.710324722932556 8.878741389810974 12.293132887561347
Hf 13.675692536474802 10.889346836268093 14.566270883246183
Hf 15.579632813826807 10.396159007424192 9.633435394117212
Hf 15.194131700974156 11.710472902759802 12.227667135705236
