37
Energy = -319.27035535 eV
Hf 11.489980961191021 6.973191517556073 9.772705443792589
Hf 14.037058830582076 7.9664766927711534 10.817675572147772
Hf 11.909990740851276 7.4951078749053615 12.67890743172697
Hf 15.107261300413867 8.29811252576669 14.032476960855819
Hf 16.13020941328465 9.694971751607659 11.575680549107426
Hf 12.858736447191372 8.818617989195113 8.150798576773543
Hf 9.241850221463123 8.193338357052774 11.075920778626653
Hf 14.510288276145067 10.758164122482725 9.510575570422112
Hf 10.054013005886 9.072718826858734 8.393135362092485
Hf 12.350676467222623 8.767748670959422 15.387891068079968
Hf 11.693775926030511 9.72970153353163 10.683219690786112
Hf 16.278987557926495 11.002410749357622 13.941732003344669
Hf 13.449853517920202 10.198999474915421 13.101479051165443
Hf 11.721386399993936 11.685652686495509 8.385561260611745
Hf 14.040004382480387 13.671743064636674 9.082545133556618
Hf 10.19571531529463 9.56912519339811 13.484176409793463
Hf 14.373882059324822 10.608117137489032 15.848513432414968
Hf 15.796539704709277 12.618142306541419 11.576068422554702
Hf 12.984187860021592 12.502790492665664 11.573477947713117
Hf 7.592088299954421 10.808882624574792 12.719092051364601
Hf 11.458645623240317 14.469422626885514 7.589470576556968
Hf 14.394830206466652 13.200688558437223 14.193514579606745
Hf 9.088370938831739 11.072275644007028 10.234073989661146
Hf 9.064904224594951 13.251653896359892 8.256449760647376
Hf 10.006194368585383 12.49166445343756 12.910141497235049
Hf 10.85186104967375 13.943296926594451 10.448723310002226
Hf 11.837327045682144 11.806663085305892 15.19475468363668
Hf 14.051042448991435 15.158949851557 11.703905917775824
Hf 8.837984369422163 11.318150355517338 15.305912934347523
Hf 12.640649100408206 16.164061892541508 9.372782848420139
Hf 7.834478588748554 13.475849916859506 11.032634920027798
Hf 7.3950959423705305 13.391121570736718 13.952701901642346
Hf 11.96095972686471 14.832302998949276 13.845062624978643
Hf 9.69561870074539 16.09474637278492 9.391746975850003
Hf 9.71292874487485 14.01177200723685 15.410692261757676
Hf 11.475802654746259 16.672190606323774 11.755060185593875
Hf 9.165637090548808 15.335836271741952 12.757798405448057
