36
Energy = -310.64241375 eV
Hf 7.648108103493385 10.545205021829933 13.759486097136788
Hf 7.440393208215561 9.819340228432429 10.978896857166452
Hf 9.920771667475313 9.060150962436136 14.846415213930223
Hf 8.377062920558382 7.9408294709758 12.701862775882041
Hf 8.458840065520075 14.337014679071046 14.02999840732074
Hf 10.22267770265768 12.063400852405428 14.468379724346098
Hf 7.967894132262874 12.563683342927604 11.590549847080919
Hf 11.598455005103549 14.614230421385567 14.735566087397087
Hf 10.059135507585191 10.270418451117864 12.218759456798146
Hf 11.155682158264625 7.572570656872013 12.748983504287738
Hf 12.655975614634245 9.76049247431074 13.919357279169622
Hf 9.869468997135176 8.38868210297089 10.101875946147434
Hf 10.42637027483933 14.036525664978802 11.991801796029474
Hf 9.472234649255457 14.157460703557257 9.1329410491978
Hf 14.995097285950592 8.433617958703998 12.791691811933148
Hf 12.819985883061994 9.002599165389961 10.85183850393299
Hf 9.141089439776861 11.109741020428439 9.023547241299704
Hf 8.07613543624595 15.523379884319656 11.447268722226484
Hf 14.733732115128186 11.101979390792335 11.7927237820978
Hf 15.453907544377936 10.96909877152362 14.593474499302756
Hf 11.725980104422867 9.857845000495063 8.339149981600022
Hf 10.5554122769031 16.493708555610304 10.450105678336366
Hf 12.948742927092722 12.05904639394968 15.704424873792968
Hf 10.079996697202555 16.618658834365558 13.184891222847783
Hf 15.721823036377193 9.148213398654718 10.05628833869822
Hf 11.451635990465133 12.542198339792133 7.716531800286628
Hf 17.296794876053504 10.08191128102675 12.329283420873224
Hf 11.679530879796852 11.828856731399725 10.392400583135226
Hf 12.716900173692425 12.630254635314326 12.93216639997533
Hf 14.09192576248803 11.61840799626389 8.999555883172302
Hf 12.390428265108877 14.668908164745558 9.445142488717012
Hf 16.870750351695214 12.82655817952283 12.769530344116253
Hf 16.81922000726505 11.872477643143228 10.098871093699893
Hf 12.819421749213522 15.743438858785286 12.337404909878472
Hf 14.848115536119463 13.994195454310889 10.980597270267333
Hf 14.738895774143751 13.957492464359477 14.202165112716402
