37
Energy = -316.03151157 eV
Hf 17.081723541429106 14.776887850813898 14.472360708404436
Hf 17.171417318909185 12.118460099903771 15.42769069968839
Hf 14.946967270680341 13.87985532473002 16.228211448932555
Hf 14.526586501611574 15.895635133256329 13.739589735203554
Hf 12.438369303495323 15.675737409978774 15.643922778818608
Hf 17.96584464338307 12.64986072176618 12.855714712948608
Hf 14.757161646308587 10.867588584476461 15.791675203747774
Hf 16.43507585600897 14.804621441817622 11.627719930720113
Hf 11.649313080030186 16.80333301446522 12.949514663101079
Hf 12.186972344057853 12.097367746416744 15.566037634245923
Hf 15.05708141714728 12.85790346280534 13.600913849446908
Hf 9.99578714665003 16.930023810315394 15.364331990527672
Hf 16.22902383539594 10.254636317043603 13.1215512117154
Hf 10.015408919418354 14.077294446717156 16.11752963249339
Hf 12.23879952641128 9.339168039911414 16.25680071923221
Hf 13.690132586012863 15.637294117711711 10.792232360497522
Hf 12.101047529809975 13.98188499572249 13.348545195730049
Hf 16.649260464330077 11.779851394609828 10.501946736340747
Hf 13.837948476008773 12.638488962072046 10.937016704898516
Hf 9.355784645739613 15.053305645963189 13.452930664725352
Hf 9.87238549738826 10.928862189535987 16.692667997626316
Hf 13.157273334481939 10.23779746648897 13.405121511751263
Hf 14.410724731233923 9.737739355285624 10.646486466199269
Hf 9.321888110179861 12.215441612543831 14.076591359659007
Hf 10.883387694360236 14.544273376239971 10.785831065769207
Hf 14.701660889687792 11.578501341186827 8.393268816693197
Hf 11.005131695425765 11.672363597578782 11.641460344765935
Hf 15.500313719857427 14.150442677219903 9.03551032842235
Hf 10.389878830956288 9.545717732759714 14.223598699737106
Hf 12.714042970688936 13.827992283995503 8.582304761387753
Hf 12.076032706496223 10.800224188692487 9.020840708496408
Hf 11.327029486726762 8.86440307127664 11.382399590070422
Hf 8.315208784200125 12.882573403183242 11.312711571768272
Hf 8.368855456413039 10.086626590936563 12.06073197168422
Hf 9.671618990997164 12.639882433805994 8.778219540621272
Hf 9.517359522353019 9.904984020665138 9.512805318068233
Hf 7.151787148893692 11.201677980906485 9.518017090696127
