38
Energy = -327.97995771 eV
Hf 9.822807836527854 8.422872664722865 9.464406025489652
Hf 11.886109886568349 8.229201982195555 7.333264430059297
Hf 12.704575483598692 7.340199747779644 9.836555797835338
Hf 11.293778938840028 8.345118211142509 12.110672234354215
Hf 10.168145943593366 10.428412275291322 7.27472672039293
Hf 14.518751696822541 9.1013220326657 8.40493779813184
Hf 13.327403783439452 8.384439483701264 14.232276209999762
Hf 9.091072311376276 11.555568025208624 9.5374704946708
Hf 12.048309608963956 10.193068548117889 9.5511329604531
Hf 12.90380021850512 10.80676210577214 6.732379252501768
Hf 12.584981280457743 10.724324418668528 13.27937233510672
Hf 10.389560052743347 9.301140998502307 14.958306886523506
Hf 9.125952107189663 10.19065280329977 12.198325701927853
Hf 10.488014613792018 12.149063823104735 14.248971718858183
Hf 11.099869557052934 12.452287307145392 11.171195839951753
Hf 8.245662830109321 12.963311392615598 12.345065534647278
Hf 9.796789135424149 11.571537659594656 16.82481639345633
Hf 14.303119544230869 9.25730628335802 11.414752260910472
Hf 7.917244823341573 11.124745685533048 14.69027128131698
Hf 16.412928959490856 11.270929924073432 10.827001052307061
Hf 11.46307080348308 12.922479230796412 8.285360864869027
Hf 14.387802187110184 12.08413725340784 8.830933325664835
Hf 12.58249689940042 10.920566423404953 16.132617701469073
Hf 15.499884493029993 10.693835587834133 13.673876023101327
Hf 14.093781364715175 12.587103634979526 11.767773090349927
Hf 8.600789883473315 13.956367391631566 15.316271045937281
Hf 10.043265260222613 15.01190076820874 10.40826948870504
Hf 11.733202651455175 14.422409621216836 13.037421424906302
Hf 15.91144619378695 14.13149040053091 10.254305304767927
Hf 12.891390384110128 14.986266724907775 10.162750410845685
Hf 11.696805405047602 13.915995832839814 16.429607943999173
Hf 8.968652022996999 15.65652057643516 12.89269445714588
Hf 16.591821159568102 13.322496271586818 12.915109647408453
Hf 14.085489343686174 13.205126681308371 14.720657405645438
Hf 14.50786814925522 15.479755807792998 12.466746173660084
Hf 10.47179911858181 16.263529319246924 15.086385060711164
Hf 11.641126034025959 16.999579389093096 12.449255865975452
Hf 13.22088832772826 15.968877744228488 14.990190693360551
