33
Energy = -279.92798152 eV
Hf 16.15744767943261 11.52915964586257 14.293372070367473
Hf 15.826792073754492 9.04819403004232 12.881191473003028
Hf 16.171131804655033 14.074847787234921 11.925407505512302
Hf 14.848222060242218 9.292391031289661 15.47927928414579
Hf 15.579840642191357 11.325422489016727 11.259211975492958
Hf 15.588231242121008 13.309584640421445 9.18756448065559
Hf 15.12303636200488 15.856090510159985 9.957973321185516
Hf 13.54321509798025 11.862248401511504 15.995331841894926
Hf 14.710077605068456 13.872799135464811 14.300847161073794
Hf 13.355978484093466 7.900926323817908 13.473081901048287
Hf 13.441676321438706 10.91541000228982 13.36687640336583
Hf 13.776383030262531 8.899568225523977 10.722207962082418
Hf 12.596751730697866 16.659963025362053 10.174415327615737
Hf 13.106252357916308 14.464425192199784 8.233177852539066
Hf 13.94538433946824 16.05284161867225 12.685531758544457
Hf 13.521750812105731 11.410236733238376 9.159112067578285
Hf 12.001852149999818 9.25781017696772 15.584482291455993
Hf 13.100814341942524 13.770850688063735 11.055799594891795
Hf 10.496908738859808 11.543251185263967 14.562529738552955
Hf 12.013133823595627 14.042967755606526 14.180472519519528
Hf 11.62395521793327 9.444124714023415 8.662212027372897
Hf 10.634716713441845 8.658549842434262 13.0868908587467
Hf 8.945680361431 14.335330867894289 14.200933083153656
Hf 10.497208740287958 15.05821641664353 9.569911665665527
Hf 10.89892411858586 15.960697788493162 12.325966112128377
Hf 7.55936067365697 11.811956068136968 14.778990987697021
Hf 11.517361303986574 10.652206728314257 11.19532308320001
Hf 10.763412782769068 12.253114758243907 9.125885859960567
Hf 8.823961377285046 9.360520371025883 15.075122552948708
Hf 10.045356296846144 13.110536987538135 11.87034897471684
Hf 8.205679336932587 15.401513924176355 11.651616904237901
Hf 8.510426348463309 10.409063248775892 12.448436550683745
Hf 7.119602533431183 13.00982386480144 12.270369344814803
