30
Energy = -256.31692193 eV
Hf 7.8497564054985345 10.15822991013657 9.852000479601042
Hf 9.574972333406006 8.402118821628159 8.15969177979519
Hf 10.023685231618972 11.037875759676899 7.932066771153749
Hf 8.537357358320772 7.4199858179297005 10.608987048300792
Hf 8.685626967395805 9.219799775233305 12.954126464019648
Hf 9.251628625719416 12.881707260338644 9.979609119411057
Hf 11.552505555329448 15.099412002908535 10.240202951357233
Hf 9.780990754338658 14.210397826887817 12.569969226986352
Hf 10.553142332418798 9.588599030712878 10.591310175685125
Hf 12.415452993798013 9.293004117311717 8.465317557002502
Hf 11.256488416503188 6.854708564485317 9.726473238982397
Hf 12.044641050833999 12.392222226810091 9.338121028624961
Hf 8.157466565828893 11.860182849298418 12.262702038028685
Hf 10.65158650352546 7.140475936236647 12.426740624122216
Hf 11.508368093178339 16.337356788172514 12.853118090910895
Hf 9.656642077910048 11.776473999187525 14.673615231121715
Hf 13.841818157765415 16.543493276463014 11.352937696512747
Hf 13.111824693761136 8.309884160477546 11.459537660462844
Hf 11.276125971999054 11.732209944012387 12.361738024867718
Hf 13.222899584382414 13.844457166153052 12.37998498876644
Hf 14.58580209197457 14.05338718232849 9.894560893375173
Hf 13.839980193655306 10.983983688853248 10.620311979600253
Hf 11.547182303166359 9.28706016103897 13.900601926609207
Hf 11.651145760469328 14.306393405302398 14.932910922936838
Hf 13.935312345946068 16.04910447382576 14.223044952129786
Hf 14.185574565043591 10.561219499522682 13.475287911205797
Hf 12.433685321299352 11.659759209756613 15.258693389577578
Hf 15.862916512509386 14.985607142656145 12.435176651527563
Hf 15.874422960954895 12.338091983080355 12.002937682016555
Hf 14.832615385213806 13.304725488424198 14.678711939612551
