39
Energy = -337.08730044 eV
Hf 7.609831911777988 13.918253899057712 8.853482675010042
Hf 7.739964400278533 11.272477486656152 10.156485183210544
Hf 9.13531439871204 11.829252049468835 7.602430702989759
Hf 9.991753799329315 14.564076041369137 7.497546271570202
Hf 7.535402821504879 13.97083300158094 11.765971860242313
Hf 7.268022866898599 11.339560630669482 13.085453896086204
Hf 9.40338171798711 15.882922353240625 10.082264405413722
Hf 10.17477780549868 13.101432128165415 9.913752787155552
Hf 9.01084040107089 9.480168599767362 12.021266377154255
Hf 12.022638318624738 12.470601533289804 7.822664482004746
Hf 10.505853390571197 10.129002378992563 9.519224379016222
Hf 8.323820333404997 13.415590803805967 14.590456532434603
Hf 10.004647086596844 12.288898277294814 12.55981752947632
Hf 12.308885305188586 15.41621090580318 9.010498597468576
Hf 9.769245916230103 15.444590968792912 13.102325357184371
Hf 9.785542927659746 10.724611000526206 14.780729189118544
Hf 13.977761692990777 8.46199596064266 10.765077677562555
Hf 13.1240988176298 11.200978892440192 10.347456114687818
Hf 11.759871384122484 9.527513952312463 12.327839258750762
Hf 14.428385020653815 13.487681977628547 9.335791745104904
Hf 15.982142407511356 10.468766321285068 10.08402449047632
Hf 14.233659277739653 7.8524258280137955 13.826184250171917
Hf 14.875475752634205 10.41163061041911 12.758015282714515
Hf 16.548703846170387 8.235404829897819 11.967184885314117
Hf 11.937924577396029 8.870636994214156 15.236839910758638
Hf 12.84877250442217 11.569738260297436 14.296523526877884
Hf 11.742028468850036 16.76515876764273 11.44780366217477
Hf 12.55709966257704 13.79643416151671 11.819730053283193
Hf 11.155830252863751 13.595384606528745 15.134614686625879
Hf 15.816931196583601 13.038041942244618 11.742221729238274
Hf 16.775415129723935 9.180267103652975 14.58804506075317
Hf 14.40124661602147 15.75946778233431 11.34226555202276
Hf 11.899474469822279 11.128055989617513 16.964035464161725
Hf 17.689288662963232 10.832391061039907 12.46323585467416
Hf 14.49446008487587 9.92684019689542 16.17270436283828
Hf 16.32230491027405 11.98263863172875 14.94062528066897
Hf 12.576863340476562 15.857500262269438 13.893541016361764
Hf 13.980926770718012 12.96389686594916 16.553216309292775
Hf 14.705679938567739 14.149809604915346 14.057964340398897
