34
Energy = -288.61155005 eV
Hf 16.297644939352544 10.462403775271657 14.354815952650421
Hf 15.634185603446207 10.550266233009614 11.630400622752965
Hf 14.373842282876177 8.65944618262174 13.491082800227735
Hf 13.787931337522298 8.460852044864113 10.460849667707167
Hf 13.422466730424128 9.09663127993852 7.4999606053564625
Hf 15.474515005083985 10.243829566195693 8.916618713610614
Hf 15.51055339516242 12.508781343803163 15.97310874087271
Hf 16.018772719780443 13.162595434495664 13.133895673342929
Hf 15.48241936617958 12.999685722095716 9.77953822099936
Hf 11.702133528001292 9.486217244666635 12.381246648855312
Hf 13.032725723728682 11.364252490235435 10.272111623792702
Hf 14.0782494088312 9.97567005823799 16.10828286323518
Hf 11.85039934491868 11.3570311061486 7.504215910477267
Hf 11.153042797890958 9.254406661105628 9.379099423643806
Hf 12.84680167874147 12.454636961590191 16.641696402015494
Hf 13.581108296946216 11.628895933526875 13.778479277276166
Hf 14.474152131173424 12.094995668348604 7.127724816538558
Hf 12.787947257847128 13.828941583524312 8.761653151537882
Hf 9.008431946562878 10.23243236118348 11.439845056642065
Hf 13.563140207981318 14.079630167769889 11.731321767913991
Hf 13.75676926357264 14.473954687093368 14.734574227093463
Hf 8.930914667741929 8.811595526766906 13.86940316945994
Hf 11.110951148330559 10.66356643820565 15.007367022781915
Hf 10.93459639758981 12.56802170651112 12.416863132760227
Hf 10.94021811184566 13.680020633195632 15.106829090251027
Hf 10.112522326994728 12.191722665402422 9.430777754145192
Hf 6.6427033039599 10.123165477723429 12.912390813971738
Hf 10.5596679792746 14.840128224739855 10.689060595712334
Hf 8.562956751147283 11.650286052403878 14.088531158710472
Hf 11.449715490100424 15.76100981713478 13.19432638770957
Hf 7.868236215081812 12.712924142563992 11.528945935010917
Hf 8.699328985018528 14.965884148756933 13.008181966893739
Hf 7.864083726334095 15.361780406228295 10.303124307536189
Hf 9.423108401297478 17.238613354795074 11.556419153957755
