38
Energy = -327.09747546 eV
Hf 10.267394835563724 9.759211536698624 14.76464989235138
Hf 8.24627353617805 8.927199723103223 10.961523298812804
Hf 7.456258096595591 10.9710235661413 13.349596593340753
Hf 12.674828996061152 9.836542920742136 16.3692170945445
Hf 10.684268784953257 11.682498474199669 16.953997288285876
Hf 13.098482136317001 9.019028998255717 13.606315945045273
Hf 9.622622114298956 8.10587374993823 8.497982113668089
Hf 7.793482895417196 10.27470862169185 8.264102144781821
Hf 11.259222494961907 8.151528632445952 10.967468288225112
Hf 9.263991822544426 12.818309762306086 14.686081070595238
Hf 7.242405792942728 11.528850064570932 10.64325186175549
Hf 9.985133900334526 11.018312365160554 12.31141413376318
Hf 14.944926519718347 10.721481177893128 15.176254622223627
Hf 13.52990288384978 12.706718583119123 16.881657623516382
Hf 12.191394750625168 12.008797157613634 14.436302612690806
Hf 8.402996903299176 13.73140056027381 11.990205962995029
Hf 11.182275687990767 14.3016370003845 16.13191247460512
Hf 10.322947138224839 10.628761608390832 9.544139482509683
Hf 12.875276012542308 10.865713210215759 11.336005425634147
Hf 10.929442555710565 14.879568498634173 13.291150133204127
Hf 8.667198269062071 13.263301120657276 9.054713131667038
Hf 10.523927580800997 10.559524222392463 6.862761867718553
Hf 12.250569788389184 8.65750426026914 8.187952973530276
Hf 11.259447234420575 13.12434625715687 10.904308777065603
Hf 15.84221122723023 13.394405826228846 15.090466182910346
Hf 14.13315019885886 8.917376434823467 10.267560629934136
Hf 15.61367026916683 10.383286679785607 12.471800129337687
Hf 13.486132613406916 15.18850024686676 14.816322522520297
Hf 14.251016565575272 13.253121284909431 12.515548102200732
Hf 10.626289562572456 15.518843710222647 10.148621200582221
Hf 13.127183697296342 11.424950301867646 8.205616001508684
Hf 11.12066140142582 13.425455310018819 7.904894013174898
Hf 15.478683948152595 11.872388708141239 10.109077694524512
Hf 17.11928093600852 12.997928418499846 12.41481396676784
Hf 13.332797681709 15.930525543486029 11.771118626070301
Hf 13.51455902958905 14.175586069576578 9.331469651753745
Hf 15.886729214463893 15.506223200808806 13.282942753173863
Hf 15.891216741430751 14.818368482565875 10.630081665212737
