38
Energy = -326.58461257 eV
Hf 8.013915023917372 14.272196065011155 13.350499205021745
Hf 11.605792070960831 12.057858097278165 17.12608105260065
Hf 9.634505784864134 12.983321814621204 15.279886310344097
Hf 10.940985325315907 15.034451989705262 13.491090923280293
Hf 13.381904661313225 16.60150058378897 14.246624996584762
Hf 12.898885510180788 14.17955801411313 15.721583268863284
Hf 15.733179156276343 14.913692908995225 14.767901946511783
Hf 9.086637612677483 15.48616334633861 10.995425198737935
Hf 12.61251560819633 16.437294352842194 11.420468428296184
Hf 12.428018305760148 9.55502405880534 17.504228875070485
Hf 15.32619689439963 16.548704253563137 12.218916426536182
Hf 14.2062173555968 11.575258203618857 16.048017102389448
Hf 15.823703958829444 12.071389502697222 13.73966693057173
Hf 8.192384562886804 11.331300085708497 13.29782949665104
Hf 10.051498076538827 10.103157697653554 15.697758028621866
Hf 7.27175282777659 13.009730614909774 11.023454587637657
Hf 10.085078292344894 12.863935089578039 11.646850511278046
Hf 12.011974220026932 11.9165265922399 14.040848691484891
Hf 13.81785295621185 14.118012919337877 12.81156762014014
Hf 12.843775196261296 12.47243979915364 10.806710531080025
Hf 16.7879036906169 14.203031727218285 12.203760304216004
Hf 10.683378196756923 9.613842306255266 12.789191839678235
Hf 13.896356466605353 10.152525071889336 12.489367721597352
Hf 8.990939455202293 13.480961928385655 8.946309444318974
Hf 11.503534684430825 14.747556943706204 9.396703024672393
Hf 14.718232464458673 14.696733921010656 10.04341581813433
Hf 15.726618819853668 11.897361391531131 10.821655188610013
Hf 8.883765901376258 10.608365285705336 10.245994310929397
Hf 11.856295122525234 9.82836342764809 10.030295613133228
Hf 12.62952209313109 9.099831370963111 14.82003142559193
Hf 9.992820570396196 7.689542978362961 10.577113705428285
Hf 11.242857608488166 11.94139286501277 8.16584012592616
Hf 14.122292726948315 11.687618142766048 8.416502205721969
Hf 14.580311375700356 8.99467193111554 9.658419621577574
Hf 12.702809014831596 7.6323768955153755 11.694479350499451
Hf 12.826839359866346 9.490651368263595 7.276462885937645
Hf 10.080716677088004 9.066344108501443 8.004718440644153
Hf 12.254502573556024 7.253118736252044 8.848770865257299
