37
Energy = -316.11738811 eV
Hf 12.683831871006285 9.324965279395869 9.559780676316938
Hf 13.162769230403681 7.011902138384279 11.299327553361639
Hf 12.095030806060553 11.575997234194553 7.627397722655661
Hf 14.972161893666845 9.2098051680737 11.79302918855688
Hf 11.561245654212222 13.953824372023334 6.22511685712713
Hf 9.449302399894798 12.529592238256663 7.332548577211835
Hf 14.336966391099729 11.77844135739857 10.278559771012612
Hf 13.403939465666996 14.038387291431258 8.504264470822307
Hf 10.508344880740713 14.785272166241246 8.721132344508836
Hf 13.18335240150082 8.088132388898565 13.909945466859094
Hf 16.639495277172074 11.932802800897162 12.23128721410484
Hf 15.726839562646262 14.341041908191874 10.687390682050763
Hf 11.437392313778139 12.50707238212289 10.322262115827264
Hf 9.967873244581954 10.301826177262999 9.122780420399147
Hf 17.00736084707334 14.67707056965099 13.200818572006499
Hf 14.253671656312587 13.3565312074975 13.078619039476889
Hf 14.772163950007934 16.284841695043244 12.634763266576288
Hf 10.589559349029685 8.158472876662378 11.244214360359521
Hf 12.368194634578957 10.394800880421911 12.268534312640995
Hf 8.556895596715938 13.045509536324008 10.056407157154556
Hf 16.4591904633366 12.707767630098521 15.05934201357998
Hf 11.273127991932697 6.129875686217989 13.140949650179524
Hf 9.807564608512276 15.107489790701031 11.649782275781483
Hf 14.834160816887769 10.564791005205253 14.320482686393612
Hf 12.746535516565162 15.104490158788701 11.043585316875063
Hf 9.38001391606185 10.923075271412047 12.091587439776276
Hf 15.08000449260944 15.233765561019421 15.26600397002117
Hf 11.079242280559129 13.014134032347352 13.366315358051908
Hf 10.320199424026653 8.795824417752177 13.99301536489032
Hf 13.793428158670507 12.795867095700308 15.99620979521419
Hf 11.919978071275699 10.780532087532418 15.395381737505348
Hf 7.973813299677924 13.423405747783496 13.12589696806195
Hf 9.530694971657079 15.37799636189334 14.491980794926802
Hf 9.118581186532953 11.551671810239071 15.0857916757741
Hf 12.376173688230839 15.451765862268424 14.16073037310288
Hf 10.87380991687505 13.526933107751786 16.33254071706957
Hf 7.9474235900639565 13.867959695794536 16.088559812284302
