36
Energy = -310.26571426 eV
Hf 12.186427525105097 10.049548031524848 7.751636078794213
Hf 9.294881527683087 14.040902119867614 7.237937757014192
Hf 15.768549455058274 12.326883069121193 11.186345636412547
Hf 12.04563293787693 12.975627917375096 7.418925908567195
Hf 7.545898558135151 12.686765396079824 8.78233957780081
Hf 15.630112521349364 9.227383923002327 11.00924352362791
Hf 13.417623792799104 11.373915302714781 9.903882104120202
Hf 16.984663637510348 10.851982188998948 13.20545806988474
Hf 10.02793955555721 8.415398036624403 8.367394395865018
Hf 11.012481062259655 15.708611598765767 8.543074772505953
Hf 12.543776893235544 8.372913314573697 10.094910810014772
Hf 10.460239124577273 13.186652647985785 9.804842467236224
Hf 15.348029927391956 13.08701383786908 13.972792183779632
Hf 13.13554752273823 13.357279566795741 12.138011593782426
Hf 15.912585702617054 8.42977531120277 13.91250809396983
Hf 9.522689233695642 11.119931407122605 7.370083240215212
Hf 13.261357781187634 14.419839324357774 9.601033651448486
Hf 15.323913760500705 10.748651023407312 15.5777926748248
Hf 10.564006356816021 10.43002443911271 10.328126724228841
Hf 9.70523800457148 7.843662336422246 11.062158281866218
Hf 14.073315327917415 10.53357606597806 12.940155340303338
Hf 12.63518897906173 11.902594276828788 15.217234468317574
Hf 11.195525398455924 15.559787294464929 11.431083846030573
Hf 11.31319143834662 9.22568435017766 13.056045158967072
Hf 13.658587431069073 7.554058960040222 12.651405345602617
Hf 7.8340456876530995 9.913304631384891 9.709936818577967
Hf 11.912381011736668 14.688761140811646 14.281144172290977
Hf 10.523237217876655 12.248291607771868 13.059029472510478
Hf 13.271231802031824 8.807321867079366 15.206690837941048
Hf 8.478273670747747 15.183250058827658 9.915943202205737
Hf 8.47654235953447 9.925616939746158 12.715501127699378
Hf 9.957839498813128 10.471752115373624 15.282358214397005
Hf 10.059804161074682 13.331504919219007 15.756674945479112
Hf 9.078446820124528 14.765045181834179 13.325542086915936
Hf 7.808237114038835 12.652938254544141 11.541483871372206
Hf 7.890080465517302 12.330465792036133 14.369649302889854
