33
Energy = -283.7171189 eV
Hf 15.374140835745756 10.898073150770722 12.326543965597788
Hf 13.602301859492995 13.538679487944501 13.618551375925923
Hf 13.603449192177548 12.966358978468186 10.791187517580285
Hf 14.57508236814301 10.469583268348241 9.386821613380615
Hf 14.551957569217864 11.250034984451512 15.112308732589025
Hf 13.126936217782987 12.659754242990838 7.978006044572544
Hf 12.12329784806982 15.041827668090534 9.128662827709318
Hf 14.37821813403262 8.660856260821104 14.064883035041513
Hf 10.47621981710994 13.98844924224791 7.167031666133534
Hf 12.921362978075068 9.97123115570709 6.967284395014542
Hf 13.796639553506814 8.279922408176033 11.375451657455791
Hf 12.06982277841269 12.407390419911579 15.789109444071705
Hf 12.66501036957201 10.66594042558357 12.914290984889915
Hf 11.322410850402113 14.922032041897994 11.79800071798269
Hf 10.708946381683033 12.552790062304913 9.73487265590039
Hf 13.236557574398617 7.844655323554496 8.688736079634223
Hf 10.21546636384681 11.071807567357697 7.033824101504782
Hf 11.053050286637768 14.783885542711237 14.641062040277996
Hf 10.682774114013302 8.369825981714957 7.676945746955225
Hf 11.765121779732496 10.009410735966428 9.880965253560865
Hf 9.196316243238224 14.92679901203418 9.751034139553374
Hf 12.424070985864986 9.503705755801334 15.813861179848168
Hf 10.494953381970044 12.353757377496285 13.102217569696457
Hf 8.606182802864641 14.445694350471227 13.115724944117604
Hf 10.837966319176408 7.448985455152918 10.44853189611113
Hf 8.209631425227455 12.671804178576679 8.212493359078909
Hf 11.484650700864531 8.072023964980344 13.387060987853548
Hf 9.187764340473505 12.937765904132792 15.683428184129989
Hf 8.738711329810332 9.877283552193655 9.208904877723718
Hf 8.024382178301122 12.414117725332966 11.05424984258568
Hf 9.764584933488065 10.034268329886077 14.837783373014528
Hf 9.314470449948143 9.681411592678867 12.028771765799364
Hf 7.722264811030389 11.646344322734743 13.721824201053444
