33
Energy = -284.2945348 eV
Hf 14.20685622678311 12.837043993905796 9.326431671177831
Hf 12.44360801635409 11.067603850367382 7.491354148088872
Hf 11.17203313619075 13.642944273508679 9.062004587912059
Hf 14.800268755071578 10.013546662773885 8.87234636245882
Hf 9.614662426802582 11.89687213909074 7.012444061631112
Hf 10.723420894817314 15.679233108371914 11.301043639055564
Hf 15.677844459719974 11.134639413024969 11.181181848864131
Hf 13.314210920057318 15.37724126897662 10.233383952483713
Hf 10.303556559703352 9.170931239066286 7.198130410390066
Hf 12.571286780443645 8.351595493338543 8.794631793779311
Hf 14.999711840299861 13.764273250093005 12.151520777991962
Hf 8.20416983048327 13.004184427976842 9.138368395921178
Hf 12.226108851383273 13.283634325000733 11.963784210277957
Hf 10.280192425457944 10.928299443992831 9.544817173144484
Hf 13.072161802851781 15.868202408226313 12.9823281734616
Hf 14.561129602690999 8.516644209259267 11.466326452700482
Hf 13.330647790079349 13.656724905567286 14.666209880240473
Hf 10.668502086281526 14.558561015656252 14.060892592010577
Hf 9.295726480217766 13.216938395787192 11.755279981901701
Hf 12.769715596813008 10.504868260586386 10.958172212387751
Hf 14.183753198057769 11.0658136311341 13.591817011854653
Hf 7.768173493151222 10.065381947786175 8.576199135812677
Hf 9.778395063327968 7.783228486952658 9.661824646048
Hf 9.789595299359416 10.042293075261066 12.23320167392747
Hf 11.348941804555952 11.627612887635442 14.440126385594112
Hf 7.129243697890053 11.27944160168225 11.335347590408794
Hf 11.932867257027755 7.366546166172379 11.387379272005258
Hf 8.427025095939698 11.85980661194454 14.11298905951942
Hf 12.243647249194643 8.740617746812072 13.721570285246006
Hf 7.462976002421692 8.418530187232218 10.981102425423812
Hf 9.661421778810421 9.427874436308256 15.063430429898883
Hf 7.3215250631254944 9.278761562151493 13.532838597348114
Hf 9.485081185537986 7.360212248951721 12.94780709188365
