39
Energy = -336.77825232 eV
Hf 14.876253147418026 11.269633088721013 14.84517202645467
Hf 15.415345814095247 12.884033574833074 12.697538479794053
Hf 11.953832886026849 12.009913152886627 16.092084383202284
Hf 13.373248084510728 13.91796880823864 14.437738139441976
Hf 16.831835135006774 10.322804338261141 12.562309939565127
Hf 10.949651392755548 14.908730986194227 16.566057323196
Hf 12.47535869961045 9.032868853608075 14.935567885739825
Hf 9.066852532096586 12.702704424393263 16.530596401055558
Hf 15.193970744468482 8.522199708650005 14.276632603065233
Hf 13.18690354479352 13.60792637751741 11.045043659483216
Hf 15.508779726950797 12.031061935061816 10.01440117088461
Hf 9.859116926700397 10.66990414175733 14.620103647673636
Hf 12.35319988081972 11.403164143910384 13.187230640294837
Hf 12.545400573918961 16.08505706884834 12.448419141139048
Hf 16.408901105252653 9.398444494457781 9.767112424319794
Hf 8.265909719167498 15.055631260185828 15.39111814093998
Hf 10.45624583956986 13.59219030423785 14.20441803391694
Hf 15.954609372790374 7.570816224970402 11.79737115296288
Hf 10.200511258380239 16.645100380403115 14.188988178484768
Hf 10.624772582280695 8.664481922651857 12.889803984937343
Hf 14.213326943480801 9.791312548689282 11.741024652202979
Hf 13.150579195195764 7.190228721627506 12.553765001046369
Hf 7.741118435525857 12.724457706569458 13.583189517448934
Hf 10.107996460108383 17.17998362914683 11.476916034982796
Hf 10.308740430923587 14.236451908240571 11.535444924584892
Hf 7.850355116079326 15.539041717756783 12.505540346698464
Hf 11.780981921674574 15.780323333520577 9.632906191273937
Hf 14.04505265223934 7.69227245726108 9.576116338898217
Hf 9.680454647201499 11.184446163485182 11.559066846055577
Hf 13.413528498514705 13.08375235986594 8.18706741267216
Hf 14.372987971780152 10.277038629828576 7.839117283392587
Hf 12.204824838315474 10.874677403854994 9.782012203095869
Hf 11.210691584528181 8.012753774502466 10.334856996945893
Hf 7.771741812142498 13.158296941001183 10.646718858812307
Hf 8.717483253666856 15.577515358868391 9.60818892898032
Hf 10.328049574562725 13.025449881505178 8.954236881526544
Hf 11.98379638963709 8.659838009348276 7.790671256252728
Hf 11.650645554016501 11.272894258463587 6.971390954547561
Hf 9.651179915940684 10.093654024155631 8.72328627244487
