30
Energy = -256.48320414 eV
Hf 12.719497777111126 15.467259957841941 10.559323951980463
Hf 10.65063168206272 14.57482322212975 8.611468638437037
Hf 13.132394930394174 13.47112765199371 8.458437225549638
Hf 9.047116587967054 10.479179035669317 10.105330587442543
Hf 11.24264266569764 12.425526637250737 10.56631384048611
Hf 14.004768502932269 11.004825701974983 9.438924531761252
Hf 9.416405732578196 9.221712349561464 12.566435813773943
Hf 10.815478965891232 11.633330788987502 8.057110613112451
Hf 16.24055455378949 11.127196104349817 11.248288202746751
Hf 14.266136859659573 15.347270977228384 13.109347585108639
Hf 14.22161267160035 9.028600364257443 11.75341916045577
Hf 11.69026293924915 7.696293814102778 12.794919131743928
Hf 8.578791107696079 13.06624027481821 9.659010072972865
Hf 15.26081941468987 13.78654208783157 10.362649243469775
Hf 11.58017676448201 9.290311595764686 10.344104393714643
Hf 16.348989368670306 13.262514594543669 13.1423885733249
Hf 11.521720616590024 16.66421432443096 13.001702480717789
Hf 11.71221957792501 13.87881718584627 13.14176949680488
Hf 9.12331887278875 12.380433112040311 12.64225802039607
Hf 13.898524442881037 12.264019285648766 12.238091345950371
Hf 13.56574274011939 8.427679161155895 14.61670270517675
Hf 11.935569670042245 10.549136771102932 13.200313407113414
Hf 12.175036767875959 15.340153776489004 15.457615603182404
Hf 15.44266381619983 10.608405948000305 14.118040621841846
Hf 9.564633527410347 15.098582693932556 11.401177360416634
Hf 9.50871625808243 14.999883874225066 14.335780214912953
Hf 10.834248431060228 9.110429876977399 15.262855135739262
Hf 13.106734524695385 10.768532380352568 15.983845040571262
Hf 14.205219321757905 13.22302454046643 15.101608915612031
Hf 10.865393573798052 12.47995457672323 15.396790751180962
