34
Energy = -292.68579675 eV
Hf 8.657898592657777 13.606620541898419 8.477750036084124
Hf 9.47798151108863 11.872253459890898 10.633508802051168
Hf 8.491568428585497 14.581641312125702 11.195812014599916
Hf 7.794048303950417 10.825679693667572 8.450811877137124
Hf 8.290960826945927 12.870743217256434 13.426463041476934
Hf 11.199582250009758 13.988169716365611 7.166629464446492
Hf 10.208035604656594 9.27355450918662 9.3367021544552
Hf 12.412807199123483 9.576182349448512 7.643768025924225
Hf 10.611311380577357 12.344735462843781 14.960279325099068
Hf 10.268702772007224 11.366356661516926 7.205165636212649
Hf 6.831546607496158 10.556091090016848 13.192880954676815
Hf 15.284570663870328 11.662459857420119 11.839628314230328
Hf 13.591905741394887 12.177402152716931 6.9513201192103
Hf 13.475915365044076 14.739167974464628 8.469028154191133
Hf 12.852476100670025 7.945182591920694 9.98869568253999
Hf 14.699317752727493 10.137142608086846 9.069643919263482
Hf 7.644868099832165 9.217699013103754 10.782316298172391
Hf 10.159391404019805 7.423701963753287 11.6161415406612
Hf 12.65147819943115 10.410351709322992 11.742110486565432
Hf 15.088636551340059 8.74016805077302 11.509196588732786
Hf 12.275724062734996 12.213703874249997 9.387932187819427
Hf 15.272626575205555 12.888660550374247 9.259592015942523
Hf 11.031645181813156 13.615448867318767 12.474891625952177
Hf 9.914626927606148 10.133769616163033 12.921768516664002
Hf 11.001124148843457 15.004182391506406 9.87529314059143
Hf 14.560456678537259 9.865828254138064 13.978549749615103
Hf 6.740662920063645 12.237121126165274 10.789126061767439
Hf 13.678389016860116 14.121480124547734 11.32595544880505
Hf 12.778547243779398 7.748690021277603 13.007998545860676
Hf 7.892218328510218 8.055866538371195 13.408985773558596
Hf 10.331641879793892 7.668358655556564 14.516506594915342
Hf 13.316345746835905 12.380482785238717 14.00768805239549
Hf 11.979907084077539 9.945212776429122 15.179606198141444
Hf 8.823359815387535 10.040965478273991 15.422718226607726
