36
Energy = -309.40427181 eV
Hf 9.154003583610198 13.75485414176073 16.560502818975426
Hf 11.338242851645068 14.859438901816402 17.70907624835122
Hf 9.252118355222649 11.266513620589249 15.01283542282522
Hf 8.743692009822324 13.940562777667118 13.667769692954542
Hf 11.558215096388968 12.222546026695234 16.56907977644557
Hf 10.842683750035176 15.47462158967828 14.961017278380693
Hf 8.875148230340479 11.386470088867862 12.13582421486289
Hf 9.66063910797437 8.634951570017671 12.94290957360105
Hf 8.329667152918928 14.13320846744473 10.881001623603524
Hf 11.78191447577597 9.893879410183855 14.639378015099128
Hf 10.57172954080086 15.50453066070636 11.796410822521961
Hf 11.450254714702734 12.757744435336956 13.631973129266983
Hf 13.389262752463274 14.38141217498244 15.77146870382021
Hf 10.917968673637457 7.164942605120831 10.774336576046204
Hf 9.252762348445618 9.421124196075791 9.953020518938555
Hf 14.439278978738901 9.60264700180713 12.831082643124395
Hf 8.41472307429109 12.130756033338987 9.192489169152962
Hf 11.748589682663752 9.990270608628402 11.443947657071956
Hf 12.3710100979721 7.5780456094992035 13.07289917192263
Hf 13.277379870775277 15.351426116678526 13.101362601045967
Hf 14.167002618200684 11.826155005816917 14.89820021913688
Hf 14.246364912922678 12.631959458733377 11.803973754863657
Hf 15.86429281096216 14.097835805782253 13.857128189872675
Hf 11.041665746443874 12.762973002278471 10.569633210326069
Hf 10.174588692589394 14.568958714720745 8.743536170546799
Hf 11.739303990898634 8.6721499602853 8.620717519552892
Hf 13.705810287231804 8.021746187255774 10.533972501429348
Hf 12.976170444468565 15.171630792961743 10.027383759948922
Hf 13.55417461101848 10.896793850276461 9.240018492366668
Hf 16.544828310559215 11.357501698427496 13.346366119225712
Hf 15.49552122570857 15.377156894995654 11.307650359983919
Hf 16.08503987249283 10.681370801593886 10.584756273410886
Hf 10.768123082535327 11.28360126208492 8.019525837765812
Hf 12.69760286929139 13.311721898812213 7.946946252570231
Hf 15.336155669019796 13.358145507616054 9.192432221930163
Hf 17.190396891566312 13.202395902808117 11.403101931756854
