31
Energy = -263.15938067 eV
Hf 9.721540269791653 8.479268822489821 13.104991820838757
Hf 12.532011268553372 7.80821836867789 13.675686144646154
Hf 15.487469757862272 8.390211737609318 14.177060548222148
Hf 13.638447374249903 10.301711098032472 14.881986217197296
Hf 10.850223147900872 9.745468217738441 15.470619567323011
Hf 9.089942315103668 10.047679599746681 10.903612670980975
Hf 12.715686592980397 11.325839847806296 17.299200971861655
Hf 11.688465782588574 8.30366621139605 10.894383915326243
Hf 14.350836503809887 8.976839618660003 11.820765779569031
Hf 9.055074234167192 11.340341966015046 13.655875182154354
Hf 15.745769321096072 11.256172375888198 13.163443305774452
Hf 11.039646234759962 10.11681532337594 8.694431045305265
Hf 11.462359345115152 12.540510834306557 15.136514184877612
Hf 11.630857456838568 10.546257081667983 12.601173017844541
Hf 14.35136784195565 13.020163633918669 15.377071518766762
Hf 9.94914820565365 14.140759063068051 13.224665845087346
Hf 13.383253928384098 11.040226466931092 10.090996453878383
Hf 13.236832930374232 15.319087823403665 14.092858964754306
Hf 15.761079232131642 12.885151646233046 10.733093417216947
Hf 15.869418055748131 14.202060375397314 13.257869001667709
Hf 13.342104903050735 13.000408543988554 12.443576865718546
Hf 10.791317895933195 12.865103020016086 10.475545747552962
Hf 8.786753932124409 11.592234128445366 8.56930835593881
Hf 7.979640065624341 12.859030543093077 11.141960209809005
Hf 11.286788679049286 12.79356737709346 7.609615689146894
Hf 9.228167086215782 15.457989681920603 10.935701522364132
Hf 11.758917184935271 15.93307561516184 11.80286783088527
Hf 13.643084087694573 13.724035838469307 9.105573422471192
Hf 14.47638829992912 15.529082514387726 11.29413442781705
Hf 11.432261691626243 15.475178925638145 8.969736216822485
Hf 8.916236410367075 14.259081661782098 8.501415841463134
