31
Energy = -262.94922351 eV
Hf 10.269173338816694 15.600709274810761 11.914094965494767
Hf 12.44963405407509 14.386128791177441 7.52053573470505
Hf 11.876286463404075 13.615108649692738 15.611757554683015
Hf 16.242410837233265 12.131706228123237 11.3228901984661
Hf 12.773610346702274 11.582287905517388 8.03619743135722
Hf 10.401667783542806 15.522648373478395 9.019889522768166
Hf 11.167092418922518 12.75842215956512 12.940415434207194
Hf 14.814838711387843 13.488113055086624 8.916226392302947
Hf 15.053537630377528 14.54184722239203 11.47179737133345
Hf 8.960208311361743 13.50187829997296 10.548958137860748
Hf 10.145959572160468 12.826952121489173 8.04891199616876
Hf 13.279809601214733 16.01248633196157 9.796960598625803
Hf 13.892337342041596 10.96922179094741 10.662345490360343
Hf 10.204442190156175 10.900029704466005 10.36616351178193
Hf 10.81659067566347 16.155702689830772 14.697464118253093
Hf 12.176839147080877 9.078806441971352 9.335745686864026
Hf 12.105181499863633 13.48056147204699 10.31666089593214
Hf 12.82052269309006 15.23925374916447 12.928982529090073
Hf 13.47932628888165 7.7926020162896625 11.60487992411891
Hf 10.422409007299702 7.954439025354412 11.034722569400387
Hf 9.148861171937702 13.992644322977677 14.529605592877925
Hf 14.966081897657409 9.953802367874443 13.231592053717497
Hf 10.004356057661555 11.330116532966695 15.284399226814001
Hf 11.93584122933094 9.835192050478275 12.888864847181402
Hf 14.194804709476376 12.642563370911226 13.498324053071602
Hf 13.127456550791726 10.76976862425606 15.503374755360333
Hf 8.473291797528953 11.690770138758959 12.766383233202815
Hf 11.293567426788313 6.9810458863393485 13.435115570174933
Hf 11.082206650692578 8.698619688141806 15.6367481436525
Hf 13.595578067636037 8.021699766329952 14.59715285272989
Hf 9.207327228908781 9.022258823299673 13.509588259080937
