31
Energy = -265.3918262 eV
Hf 14.124103934144093 10.20853179679235 7.4940718541801985
Hf 11.446575033250904 11.23070330946571 6.998549590560923
Hf 13.781378812467047 12.941765737710783 6.8564778459645535
Hf 12.16878172685319 9.071384390679878 9.250224989361485
Hf 15.640426380920683 12.319041744634566 8.941290663583962
Hf 11.408964992643316 14.038192412516297 7.966556590950632
Hf 14.83013598898852 9.848782223805364 10.237233705244012
Hf 12.80055751677901 11.89559649505848 9.443729070141083
Hf 9.753184360423997 12.063097367117868 9.254862519400062
Hf 9.379947176155365 9.36143468851674 10.437689266552942
Hf 13.91631553447036 14.60609712214688 9.208702977453072
Hf 12.725806754923218 9.980349354274368 12.023277529051969
Hf 11.645072884662065 14.191561719878072 11.02172319914438
Hf 14.48812087763749 12.863650953169673 11.659390855250319
Hf 15.031104345224136 10.678281773795735 13.60019354780238
Hf 7.574716800255924 11.545271489311311 10.987013271816036
Hf 10.206927933669977 11.625270777353823 12.18560457840407
Hf 15.15249588956306 13.513085620940618 14.398669898838222
Hf 13.226715719154402 15.140325741800353 13.268535649546308
Hf 8.775911039613199 14.083683522366895 11.239420639379208
Hf 10.556764024814699 8.46638853954292 12.984231401121283
Hf 12.491800014768657 12.320955577672235 14.075198308005627
Hf 8.060787595993865 9.71005534066643 12.973710477437841
Hf 10.356914849816338 14.692695587281735 13.573438424523612
Hf 8.026950193237425 12.578541020118056 13.755396988882033
Hf 14.392565527327399 11.636465129347917 16.255999337392726
Hf 12.719285360831826 9.445755731621912 14.981688621629203
Hf 12.80364108707745 14.185795550940469 16.12977374448515
Hf 9.856897258137051 10.354467359183918 15.109812395561832
Hf 10.009592865424748 13.182208375372655 15.822275050814033
Hf 11.801513267581848 11.467310757169288 16.889611421950214
