32
Energy = -271.74278887 eV
Hf 14.473895501186902 15.260286447538526 12.266072491821333
Hf 14.950925914917885 12.533028619837395 13.136937961187881
Hf 10.782660999318914 14.812491807135036 8.710688752268444
Hf 14.622974349992326 12.604283503391462 16.101895190591303
Hf 14.698547428633008 15.330266119069288 9.338071727443735
Hf 14.238893123340205 15.260608436953177 15.315778973255002
Hf 15.287865356587014 12.66352430771513 10.092817598788955
Hf 12.82800854075512 16.187192459323786 7.541059387697529
Hf 12.622909689265471 13.254952310591435 11.149128442617425
Hf 14.388768427807781 7.6439938791425 13.033072405881184
Hf 12.266545958279103 13.244739190308033 14.156695482022434
Hf 13.128317067667675 13.277688756674095 8.167781222478174
Hf 12.380327286096994 16.41193485467842 10.504131524451864
Hf 13.168677295229266 10.703230286818245 9.594202763829797
Hf 9.927162357996995 14.59282956708205 11.378816573261092
Hf 15.352832386104295 9.972968115742038 11.546878443933583
Hf 13.14931933272536 8.217428906682356 10.630773079185163
Hf 15.040155344193742 10.008641574611923 14.643155614817022
Hf 11.448679508098206 16.087098896433126 13.13990510756774
Hf 11.579339254639173 7.425020819140976 12.78460242538099
Hf 12.73095419715291 10.245414546675162 12.80855509999945
Hf 13.550431094085823 17.585270648638755 13.832374140489124
Hf 10.456423118684192 12.152284310444907 9.666468182109027
Hf 11.74013419129786 16.441775700101513 15.830142516294533
Hf 12.75122921880124 8.27852730129377 15.160645261532881
Hf 10.510307115289512 9.513822337505022 11.121064198446453
Hf 9.877715242739272 12.047535375695738 12.730443158742657
Hf 10.249689970247678 9.5491747983891 14.220133453512473
Hf 9.698720410712722 14.582876330521863 14.692649634220315
Hf 12.073014121997725 13.798673879945644 16.914077895196417
Hf 9.923888753796055 12.098618367599501 15.736678228566065
Hf 12.438662483559822 10.845253007699743 16.093290710576834
