36
Energy = -310.54794489 eV
Hf 14.248375505811019 9.262969931520109 13.686572656971249
Hf 11.687840220793454 10.32414291734178 15.450757047644569
Hf 16.25036038035266 11.26893652549156 13.339031166233324
Hf 11.646368740311566 7.917521480476054 13.818436425080163
Hf 16.165025598872013 9.46205055415426 10.994724311560443
Hf 14.034762653440188 12.126589915851696 14.888317481089885
Hf 16.80514289953077 12.439486879415773 10.859983542860551
Hf 13.141438805860824 8.157474683175375 11.310352236701204
Hf 9.089657880290208 9.023480582744192 14.491291676011834
Hf 11.847727724767877 10.417229634741103 12.550752913961924
Hf 11.126979684827534 13.417669870301255 14.956526760519008
Hf 15.630483542290223 13.94547169275042 13.066593834554126
Hf 14.196316338176901 11.157345569073208 11.11829374204151
Hf 15.796531392378345 11.42768207763532 8.691173061555745
Hf 14.162274075626836 9.158454996660529 8.842354699515488
Hf 9.882422094281134 8.510388512194162 11.584456666688366
Hf 13.563437252382649 15.013951710562301 14.666838470515978
Hf 9.192694843828797 11.568496378365275 16.05535544737529
Hf 12.734264212613411 13.431373461898858 12.47013738539299
Hf 9.430585801575825 11.546850453174827 13.14546127253113
Hf 6.934394318947221 11.104147074194891 14.522410003325158
Hf 11.33872743640744 9.409652010356679 9.105088336600106
Hf 7.370664713264399 9.732547052946048 12.152712095893678
Hf 13.96190417534678 16.023285689324975 12.003140887381702
Hf 8.182485592300784 13.733481738894522 14.459280637506254
Hf 14.267971572029733 13.952506491996258 9.76829707025758
Hf 11.600876795411267 12.29013927701816 10.042586151078584
Hf 11.34493041544756 15.90582303399381 13.219518123932362
Hf 13.083983410509914 11.37254256696108 7.596730416337397
Hf 8.86980083858284 11.142011211463185 10.114836236556783
Hf 9.644372190444424 14.08159399464902 11.846529232196792
Hf 7.040187813629045 12.581388344204923 12.015734155989968
Hf 11.715178588794227 15.401209175788862 10.266415539850252
Hf 10.279683050024667 11.689873632178209 7.607339799001363
Hf 11.98121288955261 14.008617016768476 7.724783530876898
Hf 9.3952114641385 13.935539385957462 9.011892014562244
