38
Energy = -325.20877798 eV
Hf 11.780734094568825 17.004905022330437 10.324591177370827
Hf 13.207619807706097 17.0672764445931 12.650944961292446
Hf 10.384756786706117 16.18640923850423 12.886808167202515
Hf 15.205014884515172 14.974223822238471 12.769776518908312
Hf 12.519388986767614 15.183501966883076 14.773561917276425
Hf 9.519024846104598 15.312675546963405 10.135138426857457
Hf 14.387153492684009 15.79151384845662 10.213044723292773
Hf 12.268162151387097 14.557806488875299 8.653199516980601
Hf 9.816773605354388 14.166281464271474 15.1891023620002
Hf 9.73901215302589 13.564056958780865 7.772825992699131
Hf 12.390165536945046 14.469103016239648 11.810616609563423
Hf 12.169884188228572 12.726833971873894 16.30980627363644
Hf 14.30609726102641 12.771627764297598 14.250349160917198
Hf 8.59589958824292 13.68791857756006 12.43592871419887
Hf 17.1242195455305 13.359269172210027 14.033132815974358
Hf 13.729681270128651 12.61737105950903 10.042511755134607
Hf 11.296744216664854 12.215002585767222 13.529527216994062
Hf 13.54376210685615 9.993965839543772 15.3647091417626
Hf 9.684332357222662 11.91263553251423 16.899570961079885
Hf 16.049455549820685 12.176032271226271 11.654515746161904
Hf 16.175131782096997 10.592492296997646 14.121487599176586
Hf 10.604648279850922 12.324692533883244 10.36672214565224
Hf 8.592041102542707 11.403158630654366 14.260770034606194
Hf 15.027036967940287 7.990459517322004 13.781967238305432
Hf 11.98524550831947 11.73160947245013 7.83430509310796
Hf 13.598457037629315 10.281924325150486 12.33963862188658
Hf 10.731315079558106 9.81545708605379 15.33236810177997
Hf 14.715591681545003 10.074884505390855 9.55839106883083
Hf 7.790755963980668 13.076472630880984 9.667125163497857
Hf 16.383350264978603 9.243302099588133 11.682147974827911
Hf 11.77831791396872 9.579453418225453 9.882616903749255
Hf 9.161617221445338 10.804528820290907 8.41093537100713
Hf 7.953612959392069 10.922606677589934 11.253200488512267
Hf 10.224332236569984 9.495805412007169 12.533273638599418
Hf 13.986662087153555 7.658420785231897 11.126748400530582
Hf 12.351565725087697 7.7384233625659995 13.734152855329322
Hf 11.06429374845374 7.049286162248591 11.256939953118135
Hf 9.040999876533531 8.469704215980144 10.154571886758271
