31
Energy = -264.05174003 eV
Hf 11.921315553647455 10.551402506527902 7.554157655825076
Hf 14.180878072553437 12.5848874361648 8.00982686117239
Hf 11.282129866172255 8.340249759887111 9.597238010376381
Hf 13.050848570949569 10.517013141607423 10.002918079854814
Hf 13.282283325917398 15.302092626083802 8.28285026753778
Hf 11.269259394818008 13.257736939243518 8.02066120182774
Hf 9.780992117029239 11.00914216253421 9.481591140792997
Hf 15.567251024863282 11.946746568506533 10.510568264145576
Hf 13.131704380135265 8.01834254457316 12.009218710665866
Hf 8.61272010830174 8.644729808833214 10.572555737120808
Hf 12.878625231829192 13.533894104981902 10.540008360462068
Hf 10.362440840068018 6.780190869001331 11.710440429216083
Hf 15.476057837862863 14.630910697165723 9.830900094161462
Hf 10.942226302964366 15.790317331125529 9.575056246051545
Hf 10.736378966999204 9.51403062005144 12.526341940463443
Hf 13.886921471991954 11.079342021718851 12.57154164327485
Hf 11.316325441899187 7.161224027002319 14.198130335601043
Hf 13.403095428573842 16.206532469223998 11.215292425871521
Hf 15.073781050369545 13.948531979171545 12.589900381564597
Hf 8.48625754246132 8.22341883704229 13.541528209530938
Hf 9.156046925748448 13.696428194002419 10.569033150563039
Hf 8.073135623545499 11.225607370039844 11.840319356330578
Hf 11.056633012850742 12.295596541585363 12.430706180754656
Hf 12.909836109482587 9.51895654671617 14.775096605767489
Hf 13.917537556504797 12.369134288640012 14.962901109596388
Hf 12.542868908734418 14.510784192713439 13.883263752369432
Hf 9.030879332999483 13.638624799667054 13.612987725951257
Hf 8.614556705890603 11.023481152880546 14.505890865651123
Hf 10.655458099238034 15.466553201393914 12.212999028140656
Hf 11.163150996889877 12.017164112385787 15.449028375049732
Hf 10.267064322128562 9.233323919884299 15.651035603568829
