38
Energy = -324.0413907 eV
Hf 7.010522468509391 15.424011269412274 9.743434540029243
Hf 9.135314245070772 15.644803375320896 7.878831096763593
Hf 8.555236171378748 13.20707863245454 9.194452248742374
Hf 7.945463305583697 13.457693022602331 11.880401852008914
Hf 8.12921209933157 10.638822625010661 11.454940630700834
Hf 9.717845077074688 15.747747634205394 10.69656946386185
Hf 10.615762366466559 10.932712102063602 9.75676951834743
Hf 11.202991156547794 13.826473896790647 8.82655505923566
Hf 11.858870228276517 16.43054247466168 8.547790853935064
Hf 8.516548011544922 9.05724700986083 13.765643631562606
Hf 8.528730955236782 11.918268806735908 14.293394720553257
Hf 11.02360473628478 13.448923744159101 11.96389829871654
Hf 9.204849920826824 14.866452484060309 13.850517115560061
Hf 13.080845962190192 11.706659943100236 7.892306175936374
Hf 10.03502471664273 8.368233004475362 11.22367049439079
Hf 12.621651978227636 15.970331053633604 11.172524623254864
Hf 12.791138220527202 9.075013107956941 9.13666688596469
Hf 13.26888161040501 11.669688787205482 10.883880093574048
Hf 14.03364090112439 14.160736440807385 9.489188788135587
Hf 10.931593675773996 7.774758788478906 13.84092821162155
Hf 15.007557856724178 9.631853736353765 7.349246025624985
Hf 11.183392921359623 13.156404350306396 15.134641683459312
Hf 10.765918313467298 10.590790521023255 12.8192245801773
Hf 10.586518065972163 10.054475145550079 15.663666620110908
Hf 11.86251781582668 15.683027788995362 13.844160795597853
Hf 13.049903897161728 8.88425257733376 12.048140319604713
Hf 15.7967891272194 11.904559745330394 8.739521883800291
Hf 13.448582493567967 11.501675854729635 13.908673601994034
Hf 14.084412139975324 14.062632103589957 12.709013877076705
Hf 15.409617887262366 9.544363596527178 10.243965795385165
Hf 13.260164392853182 8.865870120576341 15.138174389539481
Hf 16.03141275535374 11.995363520809002 11.66219498079882
Hf 13.877172256858412 13.981709441842536 15.664516332935005
Hf 13.233448421378712 11.32580503856046 16.819901576858857
Hf 15.703950267474372 9.71377848327261 13.392965119124073
Hf 16.17581072849559 12.303275046651022 14.64854800988799
Hf 15.730882493573553 10.025946248251127 16.28420109775005
Hf 15.714610905256446 12.523044727202091 17.415233386686413
