36
Energy = -310.32498133 eV
Hf 11.236621608774763 7.902409339993051 8.755752057914886
Hf 9.942934451100559 10.29347243364512 9.922682447421343
Hf 10.886221114859826 10.944118400205026 12.48545640765466
Hf 13.155623758137352 13.22462598714749 7.4729700915723996
Hf 7.923964208702237 11.915250013722334 11.729279117270758
Hf 13.960035917540953 12.332414139100832 12.169480291582005
Hf 11.101809426156604 8.017523289965151 11.678365737653117
Hf 11.568283768790687 15.123893924244207 8.781022150217437
Hf 9.302051050271077 14.071720699032122 10.175917277217694
Hf 15.911481832151285 10.99990341614782 14.04236970750264
Hf 11.199465043987802 11.66813299327278 17.080254772994316
Hf 12.782588204311791 15.42401170505428 14.673849300959631
Hf 13.556661642769212 9.435911269383167 13.377315863271008
Hf 8.973176326816482 9.530843540522762 7.563218917816161
Hf 11.99790123653308 15.059310546041283 11.695022846167072
Hf 11.935680801837723 12.544681089726263 9.977040464401398
Hf 14.290865123928967 14.399682371084468 9.894933568273917
Hf 10.308965455258488 12.702685261538003 7.52659801012697
Hf 13.914263874075536 10.967500343875349 16.095167905965468
Hf 8.78646190128615 7.607718249001469 9.9485750082043
Hf 12.176235832905672 12.546297685698157 14.485741880980047
Hf 14.802203349856953 11.634016971092988 9.236674941606939
Hf 11.204458383451128 9.68907037894948 15.025951242886919
Hf 12.24303966340995 10.475748936630277 7.7560543170184655
Hf 15.775117213154465 10.12729415949015 11.521003234779124
Hf 15.218104191600519 13.621746514266313 14.890791844849899
Hf 10.444852306527313 14.226681547146011 16.040563109959233
Hf 16.561689459669157 13.021737572823286 12.033736181469747
Hf 14.701026558610607 15.249219924418446 12.610957017102807
Hf 13.13654224026082 13.714229442262953 16.933384524965433
Hf 9.812252025205979 13.864156535900818 13.068666325747264
Hf 8.591487339509682 9.201425114104907 12.464540193502163
Hf 9.253108483079648 11.740543516011957 14.803615270198161
Hf 7.07929006591513 9.758279492660835 9.926987074689585
Hf 13.228736694118963 9.404180907463417 10.320864918622961
Hf 7.824218719313004 12.086065005819014 8.7569468186904
