33
Energy = -281.93315641 eV
Hf 9.551979126962745 11.764352194320374 8.622140521624816
Hf 7.747415230201199 10.82163506649473 11.02009116385535
Hf 10.920260278046129 12.609543354136534 6.254030116967494
Hf 8.835423762631264 8.333085109295189 12.193590336600165
Hf 10.338249436354781 9.492379863813008 10.11418821081181
Hf 7.34926847806779 10.083767916783115 13.838627176187568
Hf 12.094511903239514 10.41699660871508 7.78152543799861
Hf 11.593808924508334 8.413459606005345 12.834644528789232
Hf 13.20402201168899 8.837672986596532 9.985187730293964
Hf 11.142190411520968 14.288295618736136 8.61063601637367
Hf 9.304586279151906 13.372817529739915 10.92271681947002
Hf 7.633046761339674 12.723661690646235 13.20297442735137
Hf 10.077144014126864 11.001802972280986 12.847594158294358
Hf 12.213420328822767 12.06285886318465 10.300413243572683
Hf 9.648324228892426 8.896721047181625 14.874064610588263
Hf 13.392814603542776 13.000858309140499 7.421562718479243
Hf 14.68689874709795 10.927708308465643 8.835435807997776
Hf 15.850544254623268 9.514702203469431 11.033246796935632
Hf 9.181474236968626 11.695203699652161 15.522791824420269
Hf 13.619649986385506 10.301858769435565 12.536946337782004
Hf 11.973433475705757 10.523190351175408 15.124279146080298
Hf 13.772113462277655 14.563336095779716 9.742018188192292
Hf 11.651411685413516 15.215444205016082 11.491877464585645
Hf 10.070919218171413 14.002417156545938 13.795399617643879
Hf 15.303963862792843 12.496373906796544 11.345458049477804
Hf 13.060250548783038 13.168295928495153 13.286328818898784
Hf 16.35075131318614 10.803286484520346 13.472264770439939
Hf 11.969280158373405 13.339493591607724 15.969867500834633
Hf 14.623958475541157 11.987789312372655 15.506131990494435
Hf 14.426207601177342 15.578401995893742 12.515491678105489
Hf 12.171139111106191 15.828695846360146 14.278878123800315
Hf 16.25096342658473 13.634327014547477 13.782040257167097
Hf 14.411748656824258 14.786765074426338 15.435755446816822
