36
Energy = -311.30212211 eV
Hf 9.69042644287464 8.995502734632993 15.268713510470388
Hf 11.031084927074815 11.670863698563734 15.298415807386085
Hf 7.986823047908305 11.092487743364778 14.165633422517379
Hf 9.551834694385011 13.614893247850503 13.516326774816333
Hf 12.513966188793873 8.936975531874626 15.172621912091575
Hf 11.839547968512733 14.486394549078854 15.072775363396213
Hf 10.86932466431299 7.101378657377339 13.466506227016433
Hf 14.015211592015431 12.604271959332456 15.09190739602905
Hf 8.389508434334006 8.477008481078418 12.650672778075437
Hf 14.48505614173292 10.262222225408392 13.59873095022987
Hf 7.025008303099442 13.14186707826567 12.132442709949384
Hf 9.248040138483454 11.393000054675863 11.480483720937322
Hf 6.474615777037013 10.456964667042014 11.731104895461938
Hf 12.360717007004522 12.80127626438174 12.812508352453692
Hf 13.464725562689905 7.974622656713982 12.459791441311337
Hf 11.537951183895352 15.667537221826178 12.380166197411482
Hf 11.073220542802215 9.858306963291922 12.931852453507485
Hf 14.138139167704944 15.026668691937687 13.589999836652307
Hf 14.020173208266181 15.082430985625702 10.723754418784333
Hf 7.424356443168157 12.07264789929539 9.441409171841347
Hf 15.272293491095569 12.64904535848701 12.246131270954942
Hf 11.903557225100254 13.164006566377996 10.039169350845624
Hf 14.866077727094689 12.507293543255564 9.3067649693002
Hf 12.795890246433682 10.23816504344768 10.261285326247656
Hf 15.525918615848715 9.746936236074989 10.944670209067825
Hf 8.051786848422084 9.238670495090439 9.784208532173494
Hf 11.41043076174296 15.908572942873306 9.4732279200153
Hf 10.789784885164847 8.15253436459193 10.574587025906727
Hf 10.157850194840943 10.895476717553796 8.71022869245392
Hf 9.189234978117376 14.328791540757381 10.581118350940834
Hf 13.748534255557471 7.589508667033917 9.65632233131388
Hf 12.644422404725692 11.713694453317917 7.43746672190282
Hf 13.251226483632616 14.528509832672205 7.918024762018866
Hf 14.71577424491928 9.808319393436133 8.165028153159131
Hf 10.340829082441305 13.758259708528712 7.809652117382407
Hf 12.027554474917443 8.793863352309476 7.8337649118033985
