40
Energy = -345.47651823 eV
Hf 13.813213618931899 10.176824221293849 7.149411404107938
Hf 14.407670857534495 13.059542436410618 8.057032344961314
Hf 11.801115639600301 11.964897499900742 7.14605316322043
Hf 15.847403534104478 10.613141624912254 8.980899010181895
Hf 11.832313975855321 14.499465530787175 8.35255583374082
Hf 14.234536840132355 15.728464097489828 9.874860227257251
Hf 15.88530395459029 12.843615507806799 10.733266805038184
Hf 14.111822097955578 8.397027031665381 9.363355359585263
Hf 11.227662056469597 9.309508875276622 8.304543471703749
Hf 13.027833763243269 11.006158490568627 9.828257590946942
Hf 9.272091890248152 11.768720060580781 8.452990915829453
Hf 11.163029354757834 16.057746028162782 10.610564888020592
Hf 15.315511621758604 10.036402184471022 11.7360718075469
Hf 9.005923508548241 14.52065362045754 9.337251055964593
Hf 13.208192128419395 13.757960661897945 10.966162297705301
Hf 14.910175586748393 14.903961359666031 13.291000264576791
Hf 13.176735286002394 16.855441253074662 12.474592567470781
Hf 10.66501050259956 12.638700091916686 10.859578713144524
Hf 11.910113325886869 8.362907204698843 11.121837800044238
Hf 9.294305814735901 9.904919746329083 10.702846958440375
Hf 11.43982673155647 6.861277911468635 13.716316579203374
Hf 15.954139743833778 12.269593324948719 13.565808404902157
Hf 13.641964778993145 8.379412845332881 13.516027245395586
Hf 11.748440623433881 14.204939535698664 13.36895167684826
Hf 9.171437157357738 7.470790243348892 12.161994895770668
Hf 10.645409669540186 9.71950666109571 13.40349551739144
Hf 7.853652918689724 12.38425084964976 10.976492756962713
Hf 8.811195375062244 14.920445752098704 12.290767918410289
Hf 10.607953305180423 16.884980798497573 13.447314854190429
Hf 14.479934550105545 10.396004658274995 15.20961833226672
Hf 12.713042841775813 15.945287985234227 15.216664140056809
Hf 14.091525530091246 13.247057577065425 15.439076632192473
Hf 13.09270041550373 11.596782893599157 13.057547192046995
Hf 11.831720070598557 8.875705680655035 15.867377795694788
Hf 9.178641601962742 7.7693550027664555 15.037999898711329
Hf 9.754490815977992 14.766273764310448 15.213144604211335
Hf 9.14206369037716 12.326102042794965 13.630969187620515
Hf 7.7122185121773805 9.664481433846332 13.350160695272704
Hf 11.47244501512935 12.107549845083996 15.55780175160906
Hf 9.122968770103832 10.454545903926647 15.789812388831848
