41
Energy = -355.24112475 eV
Hf 7.831677201982071 11.624817284172444 14.59317708204572
Hf 8.553312470126864 14.168552306296709 15.41712027810116
Hf 8.935456273672843 15.940755528492094 13.291068156107526
Hf 7.524933629588508 13.635455814011094 12.50727440525798
Hf 10.247547681182862 11.752447564717334 16.092378594964153
Hf 11.712057423976185 13.930898485632552 17.251139399321058
Hf 8.226785357008433 10.865033494898857 12.040323544540088
Hf 12.578032549540284 11.225170165830368 17.662758166673402
Hf 11.342456579586651 17.27651784033204 12.23156158114084
Hf 11.26830974026588 15.480474027725219 14.817814909566195
Hf 10.13677110732054 9.755296634898615 13.862557572066017
Hf 10.176371475388764 13.040786471360162 13.292112961486012
Hf 14.453466916087523 13.152727280876334 17.679685445050264
Hf 10.01716192452698 15.028691514660322 10.826367853922026
Hf 13.392926086805728 17.387825857346975 14.050353025641343
Hf 9.754867997864125 12.110104830654437 10.134567463446853
Hf 12.6732189291449 9.617388028198606 15.268750040388591
Hf 13.127840296160036 12.636507045904603 14.948324204386553
Hf 13.912977928391165 15.446136433802979 16.045119217247542
Hf 10.462737363149166 9.279209549042017 10.936807519027765
Hf 12.966103351778218 14.788846280288439 12.376111000975515
Hf 16.13740669380678 13.36166552016674 15.407411753329448
Hf 12.35244098090537 16.338991927965786 9.806241298513058
Hf 12.33953085649379 11.318822071570887 11.936325286396954
Hf 15.757978795272852 15.78620270538646 13.684046071718434
Hf 15.09096580962526 10.79813927150985 16.23640683476379
Hf 12.441090171451833 8.385871184997999 12.788739414217249
Hf 12.144128308828185 13.545792461321403 9.412630707781856
Hf 14.492005131332597 17.186236570629127 11.451965593748112
Hf 14.830318561265882 10.239512158694955 13.287728951620219
Hf 11.90378251990033 10.671535406159961 8.974778728854668
Hf 15.777000226440313 12.990474667923817 12.259340310531643
Hf 18.18654698513044 14.152550405070487 13.708785888889114
Hf 14.801382688227237 14.840815081076334 9.76327800115085
Hf 17.579423331385417 11.305163236995737 13.824484527962309
Hf 14.487125801444105 11.70319986994448 9.65445225790086
Hf 13.743660445381288 9.138835313219001 10.54103196326374
Hf 17.329121419133763 15.266315529737067 11.191287296631813
Hf 16.78569149483167 10.52150315868385 11.02857987210436
Hf 17.001946843829025 12.96605886204725 9.462864708760044
Hf 18.734748407088507 12.625987156010245 11.531410976706889
