40
Energy = -341.83476012 eV
Hf 12.419474356811648 18.737218562815997 11.611873689073894
Hf 9.777208616061323 17.43718586975161 11.799515396770481
Hf 11.373896534222094 17.99581325965306 14.11194968490995
Hf 11.596062285686498 16.90093013823716 9.651522191941792
Hf 7.569212914604566 15.469473068552277 12.173175971686534
Hf 9.904440972960375 14.690422182827763 10.713963412155138
Hf 14.352376557432276 16.914237972387582 10.57915289743872
Hf 9.73985250164663 15.504347464011728 14.036235960730139
Hf 14.203722851077217 17.641540404641074 13.547601229060263
Hf 12.311122241951999 15.8051146252593 12.325720150563539
Hf 12.636550126291493 15.893439726588523 15.490340558593674
Hf 8.662707272111215 12.999198697851618 12.83009969640835
Hf 12.938020813632473 14.431811274203733 9.523934991229758
Hf 11.396894271756588 12.91809723072738 12.987331610230312
Hf 13.903311655907338 13.152321056506954 14.63370492018014
Hf 15.736375879256782 14.089332117324108 9.777844838952035
Hf 15.437845598324191 15.537532338235176 15.690785382584597
Hf 11.338678356941028 12.080448647980102 9.994966418970508
Hf 11.034820242468296 13.553506618867985 16.0084652153789
Hf 15.361152387913942 14.955137491145562 12.68781636147863
Hf 14.05311208651969 12.424780408488479 11.664775460791983
Hf 14.162000821396935 11.709256373725248 8.829865930781207
Hf 16.943510906964367 13.304619272135824 14.823609998786633
Hf 13.724255081460903 13.828212609054706 17.474705487520776
Hf 10.187146325878091 10.371197604635475 12.062734868590466
Hf 17.136895530189378 11.835162954444607 8.806589580879349
Hf 17.10005943982488 12.543503181872707 11.71645630120652
Hf 16.68643884009777 14.020893513030215 17.720815282348013
Hf 12.756293808399146 10.252116078065477 13.708318376157862
Hf 10.045741900582026 11.058570339391666 14.862820065941955
Hf 12.793115355870388 9.67220918602264 10.690074951922169
Hf 15.675143977577669 10.844690549367856 13.712246760182499
Hf 15.782333719766466 10.206236165894916 10.724225896096602
Hf 15.482356334115249 11.660242843125472 16.652583551868357
Hf 12.491878980112794 11.129572459490042 16.64326493594679
Hf 11.633796208745679 7.792845148554643 12.566965420579653
Hf 14.46202087329298 8.107119814964816 12.610249539388976
Hf 14.299414627546273 8.896865461033556 15.832200920993463
Hf 11.473412327801233 8.571015236492043 15.74006556984364
Hf 13.12823613160523 6.647356309045411 14.610974838351849
