47
Energy = -408.77392946 eV
Hf 11.554733623236919 13.208647416959254 7.126712887816871
Hf 14.516553484153146 13.439113373995776 7.515766468630487
Hf 13.388078387985855 10.898303754340427 6.89487000155054
Hf 14.802543812760971 16.020341441097223 11.166528674318554
Hf 10.705239641587491 10.38755426305912 7.655886702882472
Hf 8.777637167858504 12.466501486820004 7.604562250171182
Hf 15.7788443229037 10.893890363463258 8.603097274724478
Hf 9.681083865866222 14.979938116816372 8.803051203769973
Hf 12.63242756002634 14.90041174571372 9.467378644683915
Hf 12.15373669303654 16.678006041610036 11.929183133449161
Hf 15.60358269205807 13.509432015240185 10.20303167028801
Hf 10.470522078215001 12.539243327963405 9.972951079966567
Hf 13.21115549725623 11.983087894133813 9.544712968370058
Hf 14.480913048029368 15.84279112155769 13.973912387380796
Hf 11.383314789107834 9.641475280612243 10.508148882411634
Hf 16.854458958641633 14.498982098929414 12.713397368861518
Hf 13.718333526670103 8.761922960028828 8.877019792839091
Hf 8.513379397624266 10.276193183970232 9.610748674491079
Hf 9.810292139945131 14.632407040460496 12.03077998614775
Hf 7.712096873601271 13.333335359601389 10.062695911519743
Hf 12.86863509455474 13.962982876604631 12.221590134104598
Hf 14.010460257341991 10.166374996226386 11.656127392088642
Hf 16.981483428615835 11.350359347877417 11.440065196971155
Hf 16.128445329565924 8.659623719405277 10.559262823576578
Hf 10.732142392126368 7.1061828808107785 10.57855224710209
Hf 17.675351934610777 11.980183169883693 14.241720913664432
Hf 11.606016249793825 15.47418411626393 14.502516859898089
Hf 16.214418227984368 14.057525933337438 15.51230070240727
Hf 14.993012978705933 12.351448078609534 13.45842155865752
Hf 8.872584520911067 15.77350261196539 14.766396302308062
Hf 9.116934379134241 8.949784301037607 12.409351413705307
Hf 7.221518925776955 13.877326151165583 13.529975347479859
Hf 8.447182206799727 11.701708799504585 12.188049552901933
Hf 13.641643919241076 7.337020426526343 11.409889534275719
Hf 11.382205049475429 11.28657731044111 12.904432845454586
Hf 13.308504960654924 13.488810315708077 15.62978582818035
Hf 11.57401640362538 8.138845578620161 13.162415019351293
Hf 15.990805474556163 9.597853247512628 13.637850701133981
Hf 9.882096910012102 13.024543144256644 14.736647085528784
Hf 15.500569221684893 11.379674590184578 16.103410039253088
Hf 7.534244529514515 13.81029292388817 16.35026018711149
Hf 13.217723636761313 10.22629802906616 14.791710083828036
Hf 10.383043419980865 14.347040953768541 17.135988547700304
Hf 7.44970782959536 11.250905758104008 14.86278902519936
Hf 10.06299484556994 9.826084781152465 15.221862479512502
Hf 11.701400474201003 11.622148422631938 16.857714882595857
Hf 9.011712460024642 11.683009423539854 17.252138587980895
