46
Energy = -399.53894802 eV
Hf 13.141207239359924 12.415823936705653 8.452694403601459
Hf 10.290827322515176 12.59803357428238 8.621584516067069
Hf 14.519157960298609 9.666833397560504 8.987634555134184
Hf 11.784104766218437 15.204609084114699 8.312891569546517
Hf 12.451044969226206 7.134149295645212 9.857863864317268
Hf 15.322631825904741 7.573304049126781 10.614449889074518
Hf 11.712105075239782 9.987587375534975 9.03214874928008
Hf 16.199920287303588 12.074986042795603 9.348877387911658
Hf 16.576904085273913 10.006641289899683 11.367700403221049
Hf 14.63429613868562 14.505218525113857 9.5753358852082
Hf 11.794552843236659 14.253411496573102 10.782567339583883
Hf 9.08352741537346 14.908660885012972 9.509987508222643
Hf 9.964898852604941 8.961321562513213 10.990342479261546
Hf 13.81664240781712 6.277967138497913 12.417824955745841
Hf 12.87191553438948 8.97141434723091 11.855465893689612
Hf 14.14725962893679 11.675835615422656 11.185303023591182
Hf 8.3543991073592 12.609644725925152 11.037232853678649
Hf 13.484891793921996 16.765052036347907 10.775947525629645
Hf 11.125609712145094 6.679571103000798 12.457347860691236
Hf 15.460042603518229 8.305028927562192 13.649876158141142
Hf 11.205328491410787 11.559623275626718 11.656661146966497
Hf 16.346490946957985 15.9129583145392 11.431543720105665
Hf 16.62487565687829 12.969416254459126 12.21903505966998
Hf 10.322509143199502 16.93672564153088 10.903201726058617
Hf 14.118371720880585 14.541087474271642 12.746067428405809
Hf 10.308799628529373 8.86187696239587 13.808289219379173
Hf 16.756990320267725 10.74075825836077 14.148343139960085
Hf 9.116654852696643 11.38965701670353 13.619071292809199
Hf 7.46952994877943 15.69194960888032 11.85562272875195
Hf 9.698768436268601 14.559775275031777 13.007081112395928
Hf 12.795316538017397 7.860369140764379 14.748529087629809
Hf 16.54369551528743 15.294095523170101 14.205682213641778
Hf 14.813174769011656 10.02392229734241 16.219448659910075
Hf 14.806068112238236 17.312955480266353 13.382939053429427
Hf 9.23069845299109 17.449526671381708 13.516150005044222
Hf 11.843999209515966 13.237062720790599 14.324155622542596
Hf 13.654686353012137 10.882934996397776 13.980779938401055
Hf 12.010027679723617 16.79409794492687 13.344611167534909
Hf 15.461956582596718 12.90832401823111 15.292748160974837
Hf 7.048108332051909 13.32301996837434 13.557988413709777
Hf 11.29047795456825 10.54684355306635 15.749378293321124
Hf 13.840422845798424 15.41439049596284 15.513333917648989
Hf 7.7153297284096665 15.641785709786259 14.875195039700218
Hf 9.153480734672828 13.25397982702394 15.711008783206168
Hf 10.54655075026135 15.774360339675153 15.607801827853775
Hf 13.08837018480831 12.503529815338183 16.669694211188492
