49
Energy = -426.69888045 eV
Hf 14.70204147127159 10.08098659513591 7.44324630711585
Hf 12.354895477383332 11.535826629829613 7.297420542358049
Hf 10.122273315919792 7.19568136991947 10.082874096487902
Hf 15.097904591635695 13.047307719878319 7.517196301317644
Hf 12.37657723794644 9.174364095778563 9.212176175048628
Hf 15.426716193497976 8.987453911086488 9.973128490549968
Hf 9.22063710284076 9.757730693072709 9.304266767078456
Hf 16.830066767956307 11.240339596479613 8.947735560735747
Hf 12.586559545616998 7.034483981589882 11.508451709543001
Hf 9.840427472428942 15.018264480529119 8.626155358473408
Hf 14.031411553298673 11.597579138909383 9.817101181663038
Hf 12.504934070286735 14.302787138463392 7.993251227963886
Hf 8.08635799765133 8.56468842376267 11.748029632823984
Hf 10.892231551708573 12.20410294751946 9.6803084571719
Hf 10.845261468718608 9.357516721606519 11.789502479898786
Hf 10.0358695287268 6.888258217525085 12.992951155987614
Hf 8.000718348468597 13.567536083530825 9.780770680430699
Hf 13.819304484025732 9.636309433858635 12.20083354788129
Hf 16.496901953065716 13.856333892678354 10.237766100512207
Hf 16.41272482936926 11.24977310113761 11.807600685252243
Hf 14.744642522911992 15.611675771802812 8.947203090515949
Hf 8.542132982295191 11.381122779686912 11.566845100389493
Hf 12.080796237268842 16.35158268583009 10.00053601943568
Hf 12.326900568766229 8.005638469715166 14.175388412582237
Hf 13.575139441342207 14.13313194858271 11.253091734116
Hf 7.239650216817209 13.962528103180082 12.492307279756782
Hf 15.695238625506311 9.701006347702563 14.295824591972572
Hf 8.553893658742677 16.20861323740758 10.930086841768738
Hf 10.332122756197736 14.278737730480696 11.619831453388606
Hf 17.499077898646835 11.929798285291781 14.507614294207745
Hf 14.72735828098894 12.587523556670428 13.872948154983069
Hf 14.993740082579853 16.474417537271925 11.677893296655668
Hf 6.967615992758766 11.154356870233839 13.934175427077035
Hf 16.852544249621012 14.571249564118295 13.145356975272232
Hf 11.986266153883676 11.934112388518198 12.499914829282528
Hf 12.85179329052146 10.701388375493638 14.981692360034996
Hf 12.197931425510275 16.346122797237026 12.807753220002404
Hf 9.493533660001422 12.547939744077924 14.25813018820512
Hf 9.661229135664069 9.584080977114507 14.546627165529381
Hf 7.122347655364516 13.79658021330491 15.368601434238968
Hf 9.111878883400212 15.531758185679392 14.094850527134051
Hf 15.428142281136221 11.374903051321462 16.50545164047467
Hf 14.481948616454675 15.704034987063286 14.50444197436035
Hf 16.28716809826245 14.043542846760426 15.897337423020906
Hf 13.531154432977186 13.489000033261341 16.63141709288144
Hf 11.840107362522053 14.074139442436332 14.517441863801931
Hf 8.208275962703574 11.425485555058017 16.505697287924963
Hf 10.991673982581462 11.57649330333343 16.757985611738505
Hf 9.66381717074238 14.062496996119986 16.700022132546312
