45
Energy = -391.31297904 eV
Hf 16.004862105521724 9.61723108387642 15.105689828424131
Hf 14.274772552924896 9.373065634192134 12.505698730957116
Hf 14.24452477640496 7.4007817153054605 14.767199280246658
Hf 14.40773899562826 8.684581006124347 17.34134369992765
Hf 11.794102167425422 9.032411162441427 10.394707050418873
Hf 15.288199152763745 12.205641176185646 14.194359082344283
Hf 11.884314116702695 7.7172597626905 16.40345324135977
Hf 14.800496720073946 11.57509418813873 17.159058057842703
Hf 14.486083965576315 10.214029181041283 9.616435047159426
Hf 14.109042079825807 12.710412294999132 11.527163543530149
Hf 11.567721023515851 8.266470434970772 13.397107074467947
Hf 9.986331398781562 12.12296395140353 17.079107288100353
Hf 12.663545214101738 15.84964528319772 15.867910995747682
Hf 9.569947107925957 12.172775030544958 14.133116940001331
Hf 9.316796263651232 9.703409129616917 12.166269164026444
Hf 10.097676478602983 9.726155877886432 15.649564030943205
Hf 9.597834242897981 10.377685357012446 9.39058584537961
Hf 14.289390035572684 15.129011203160378 13.487229662011654
Hf 9.61508332135577 12.862921364188384 8.05303267208872
Hf 12.058595974160829 10.371369252469888 17.907600018999226
Hf 10.181206076611655 14.660690604844802 15.79339345253945
Hf 11.756586718462998 11.113548442130707 12.464691099927322
Hf 11.495251557687345 14.090897230965622 13.217454964527574
Hf 11.834540457721365 10.307037347781458 7.579267429087782
Hf 8.811533565924655 15.176854805385645 9.626388356877465
Hf 9.379777156926611 12.669985862057583 11.139508678964429
Hf 11.977239457141946 13.143980254620901 6.547814171715458
Hf 10.990351314338719 15.596232938874417 7.8618244198599445
Hf 9.060306500002124 15.353290274924099 12.342778208822105
Hf 13.114789594797712 9.963248914008371 15.150371229541438
Hf 12.447689357511807 12.734736359140308 15.406374462027477
Hf 14.249775620905568 11.872811120416378 7.348768924133702
Hf 12.396340506967606 13.634844652600254 17.95086874840364
Hf 12.133891998802412 12.36363704461852 9.399572047989365
Hf 11.714668526764248 15.072940669672207 10.642121832466296
Hf 10.385088733394895 17.498278697251227 10.56565656165174
Hf 16.471126111576137 11.028514358574897 11.650052015117296
Hf 10.985310459371956 16.8608914940271 13.619899376475894
Hf 13.87460773542069 14.691646930960195 8.020269745141974
Hf 12.963895282198708 17.25411887270992 9.15547754683497
Hf 14.867925932463894 14.29703517687472 16.301673781572703
Hf 16.6851508925517 13.80562419301123 12.161162513437594
Hf 16.02503883758118 12.850053271963953 9.396392082788232
Hf 14.902429759177677 15.565015285954777 10.619814668353454
Hf 13.114066050692022 17.420774745784183 11.91908860349621
