44
Energy = -381.66619903 eV
Hf 10.805452869742737 15.839050301228214 12.938534412935589
Hf 12.757387934781013 17.14726131554213 15.092504135567406
Hf 13.456655241878625 16.640280426736396 9.509981387777133
Hf 10.866675251805082 16.878287223443145 10.208402103303628
Hf 15.29617520233648 17.989578263618434 13.76396670025549
Hf 15.669409837751928 17.064883838369518 11.163775183359814
Hf 11.497967449009595 14.765072977407025 8.273321398032213
Hf 12.904627016454914 17.99943233026793 12.069551577791383
Hf 8.870029151866637 13.649726366748402 13.417470072293499
Hf 9.307978486777179 14.632996815968918 10.589609561912853
Hf 14.427787536578144 14.276042641692468 8.488535309973772
Hf 10.539611590453598 15.083943265833089 15.730406665071252
Hf 13.305883914470087 14.663624280249548 16.521445787344497
Hf 15.530930670602318 14.016109504862976 11.13421974927077
Hf 12.174777808080657 13.18446088708771 14.059356012719904
Hf 7.694302253515124 12.39783083863335 11.032483107589021
Hf 12.241518535434608 14.19262064853855 10.904333847836995
Hf 15.534617618913023 15.957736329303827 15.618816740910892
Hf 9.779259310313785 12.230368926499887 8.977000713606872
Hf 12.814841098153995 11.995349041310321 8.70731084714048
Hf 16.895494044341373 15.547121481518197 13.230683833676686
Hf 8.116653481252266 10.562841635248068 13.147629231848656
Hf 15.3413498977589 13.159622737632006 14.267142063892486
Hf 8.573044833694787 9.925210849943614 10.376920340729326
Hf 9.95394395611475 11.51563667561872 15.09730977622644
Hf 10.524804953260524 11.720541952643517 11.832550317335977
Hf 11.357666370259171 12.899355894525561 17.198080249991296
Hf 13.97223767427805 15.49288522310627 13.133089132631252
Hf 13.859781626520446 11.373232115514595 11.65327836223956
Hf 15.796152380909342 11.652062805661094 9.476226026490561
Hf 14.106973821784543 9.469361041708392 9.184874230539574
Hf 12.396805030864522 9.945456034249158 13.995884207418959
Hf 13.820382450008788 11.524856211778726 16.3936418467709
Hf 11.321494012947067 9.719199828751206 9.649311826649171
Hf 16.85282314256299 11.719265342411752 12.184979672652691
Hf 10.177908198851311 8.530660567603329 12.303401677326491
Hf 10.144397723319006 8.555034652789574 15.26794017836014
Hf 11.456505433038906 10.14663349451056 17.10668744650723
Hf 15.583858260409855 10.24070120120898 14.343660356196196
Hf 13.033055953461089 8.038617120852876 11.377512690594397
Hf 15.808173065013012 9.160875046528494 11.459358927184937
Hf 12.019062954165946 7.002074891238259 13.96658393917045
Hf 13.490896808391202 8.454634163526995 16.13527081040709
Hf 14.643968511004468 7.71932382810495 13.660493730617777
