41
Energy = -355.52758119 eV
Hf 8.248035883738618 7.484643767977329 12.285845496220876
Hf 6.92711857551168 9.542795025317336 10.939885611272897
Hf 7.9135515919155175 10.181145250780329 13.606645456508863
Hf 8.70481167008144 7.936730218168381 9.469975465563671
Hf 10.343945013324953 8.204908047182153 14.153165940900923
Hf 10.956069334809921 7.091209682976175 11.28356643848269
Hf 10.221340203633773 10.989946132558487 15.344028253334006
Hf 7.525946505490148 12.285643814397405 11.458628445585095
Hf 9.8082396644206 9.730427524347519 11.377713874062144
Hf 8.272315867661431 13.192442996155362 14.305217692094645
Hf 8.878969152736135 10.847140551442651 8.857142732626583
Hf 13.009369046668285 7.593232569211271 13.271786944651426
Hf 13.135473312152824 9.476045041538518 15.484572318240723
Hf 11.200882989421705 9.088919375313065 8.737080405966402
Hf 10.164049842123104 12.652104202746122 12.425791897728528
Hf 12.644458418751363 12.052780335584462 16.554349577767674
Hf 12.15725683342673 10.342669327706778 13.036474804992057
Hf 10.69698335295878 13.737625829701212 15.842715907736784
Hf 8.465288389736287 14.976757244632896 12.006792222153464
Hf 13.454751822776814 8.895601841134601 10.6583343141604
Hf 9.389678766666128 13.79524388783057 9.495954431210416
Hf 13.518592951184432 14.686326662513999 15.70358300726319
Hf 11.669693211388521 11.619975116826087 10.031183305941779
Hf 16.24173947746926 9.901046128715283 10.486348362886304
Hf 14.301756904407705 11.842702301069636 11.199129970720696
Hf 10.817736852216393 15.431308239327398 13.670949890397287
Hf 12.901324172876583 13.14382195338811 13.640951658618208
Hf 14.230619827147656 10.730791630545932 8.439097870649695
Hf 15.119750640665517 11.896117452875387 15.082410869513554
Hf 15.10939227283999 9.569950851253736 13.157231019304122
Hf 11.437493105680199 12.304118979136364 7.482303190473724
Hf 12.169738755223968 14.269094140012216 11.003863861346467
Hf 16.831831848209745 12.153069511442679 12.360217363701137
Hf 11.555096686169383 15.13186975436663 8.223380333597268
Hf 15.676504536581014 14.434780004772676 13.808117225990694
Hf 10.592775902556411 16.43876339498226 10.626688033135975
Hf 16.472582708752316 12.466103491557925 9.412040162589738
Hf 13.982470353102944 13.646522759757419 8.453143448256787
Hf 13.576609981579761 16.148944941978073 12.790541730426956
Hf 15.509209840704285 14.682500481794351 11.046825374992721
Hf 13.537309925228923 16.372985889908442 9.743747551204512
