48
Energy = -418.52358613 eV
Hf 14.281124057958603 7.9865752213687395 11.634889359902504
Hf 16.80733544923072 9.430105988724092 11.434965226112464
Hf 14.685264667381663 8.998689081484194 9.076307048251174
Hf 11.776922921814517 8.180258955207009 9.927189262328229
Hf 12.395218063995909 8.690400008906485 15.787462556285345
Hf 14.889096429902162 9.513782531632485 13.932960830050774
Hf 12.15082671570254 9.516822194923657 12.76680562712485
Hf 12.337005916033998 9.545001943033197 7.399504237763599
Hf 9.926202330369058 8.696212781797575 14.133734478415061
Hf 9.707002856657352 9.173524799591116 16.90810011474687
Hf 14.744584527263468 11.095080890202528 11.37316924445442
Hf 14.10714832497003 11.145581590044827 16.437327366628473
Hf 9.485820555856819 9.684943056101812 11.17023603090884
Hf 11.83607276659904 10.491113498853023 18.072796202685875
Hf 16.690436182922554 11.054937762577527 8.959817265959355
Hf 16.267647937889826 11.898991642646916 13.804346533636696
Hf 9.866521456092 10.053437501362154 8.445351280363361
Hf 14.425241162362322 11.439585494033963 7.344668427035904
Hf 11.060843390095666 11.246283430169703 15.40048624713519
Hf 12.040340873566869 11.025930438745087 10.053443983039228
Hf 13.393770031397763 12.183568088381332 13.69492694580049
Hf 11.88848315424244 13.901869078070415 11.655435523431803
Hf 11.405273391698884 12.3674655832253 7.53765469122549
Hf 8.08331780175863 10.654814718886398 14.999903457005654
Hf 9.513970689613599 12.55509961667552 10.040503631273344
Hf 14.27678074669505 13.558796526424567 9.703019127199964
Hf 9.339719587620433 12.068894714166271 17.47895914090356
Hf 17.189880462096678 12.890505725134954 10.89553616948988
Hf 12.190477454205876 13.264631683216003 17.484747427554854
Hf 11.731536102861162 15.045860159666884 8.961219780615172
Hf 10.026057933295453 11.802800287427674 12.874193490886475
Hf 15.316190855784361 14.284168144688202 12.680356554920632
Hf 14.52214231705547 14.028542727711804 15.691374542048829
Hf 13.584073017397676 14.053001633198633 6.796431812566644
Hf 13.563037916073185 16.22798141086634 10.966415700564301
Hf 8.437877494671453 13.433635807385054 14.900352719752558
Hf 11.287196145731855 14.54504186678924 14.579872841580698
Hf 16.34791532128724 13.821283399529806 7.850680622521629
Hf 16.365658407451807 15.565176953610644 10.282047736704994
Hf 7.394422700603082 12.09846323066503 12.244548868601434
Hf 14.47166571451875 16.104522186795446 8.28815655425758
Hf 9.945240638132477 15.270739904148392 17.010510823972986
Hf 8.991317574348656 14.552923583632596 12.152774017009516
Hf 13.567480902556191 16.385879868762768 14.047680495535618
Hf 12.78400168843894 15.941206069378437 16.84183035212857
Hf 8.771234917922916 16.22801931169454 14.501906910008923
Hf 10.97237315002388 16.7045435781993 12.496076518631972
Hf 11.156557528973712 17.424429059027073 15.248601840861754
