46
Energy = -400.4485445 eV
Hf 11.673430612617617 7.8383339276027835 9.503244361912325
Hf 10.893870972872584 7.819991061451316 12.201897521674484
Hf 13.805110833316165 8.00513766183498 11.396188977452532
Hf 8.767606703510493 8.279967431267714 9.842943388348987
Hf 13.967426085394473 9.311376885856854 8.59024514480801
Hf 12.90972598962026 7.722737219756579 14.538976497851136
Hf 10.84154391398417 9.86162198634194 7.977227168269046
Hf 9.980895795454709 7.65216996532594 14.908779329269333
Hf 15.504618917519721 10.368467707705049 11.051593055051471
Hf 8.228086794491032 8.914029818905826 13.005004393588518
Hf 15.548553435322653 8.8546860286588 13.706609752855945
Hf 13.31625516286223 10.383844273598685 13.146785364610318
Hf 8.152328700246695 10.876380396091418 8.511989817773701
Hf 9.777963816994099 10.586938300632264 10.858423557191031
Hf 12.580651278138017 10.796244927426791 10.420522855083078
Hf 6.942425839401775 10.513531682505464 10.961938708336554
Hf 8.705551549117294 10.09508055230868 15.874670339571862
Hf 16.12441306030857 12.717525728568187 9.150933747440225
Hf 13.380935757282463 12.44319851901637 8.203043889528562
Hf 11.49287572237531 9.147344019130095 16.674848510579665
Hf 14.106909188348695 10.08683189380299 15.919755712632758
Hf 10.697165003995522 10.362640225220371 14.08124521085245
Hf 15.744841019882942 11.783376767915659 14.028344121320115
Hf 11.992534819029947 12.059363747363626 16.424278920752553
Hf 10.463635993764091 12.629293017468433 8.456903748650497
Hf 17.360096403269928 12.576102103439986 11.737942762184817
Hf 14.595910503460736 13.255868430205625 11.484147288277711
Hf 10.561424187347082 12.928279110024691 12.501610004163044
Hf 14.427655756396728 15.354710148953748 8.999232632072957
Hf 12.066577014937371 14.93787986901944 7.474171322748348
Hf 7.886434115475125 11.793794702476156 13.449510918448258
Hf 14.601757621444257 13.768602056567957 16.247251799962033
Hf 13.135899944866773 13.377008283439428 13.963503615385145
Hf 16.696347736435534 15.124914361172866 10.738653885103366
Hf 11.932545064496672 14.265834748064782 10.311168212681608
Hf 16.1905250886419 14.684907394944636 13.608099922232556
Hf 9.581408369634065 13.093065288646505 15.335639962076995
Hf 8.236619068258726 13.27629873517325 10.475627375250198
Hf 9.656063262448388 15.438688708974102 8.513143745564527
Hf 11.894120815100287 14.898680284665938 16.045421414777326
Hf 14.295919287525223 16.28364191876619 11.79033611831109
Hf 11.891705065111573 16.940259477780543 9.819121113993816
Hf 8.463937885773415 14.69506104189125 13.23074282679497
Hf 13.901925004545287 16.131095688581894 14.640279568647383
Hf 11.419685754528476 15.834869277616042 13.101507941568267
Hf 9.39298034779694 16.00321512557463 11.086686720000174
