49
Energy = -425.31226607 eV
Hf 14.888877320733407 17.52866718641854 16.32433931169907
Hf 17.19518111533824 16.520488218521553 15.144219030065598
Hf 12.300211130227627 17.108131129641606 14.971952332206813
Hf 13.045971034501541 15.593052170315886 17.61036466210634
Hf 15.951468846539509 14.841936800319912 17.244151365513723
Hf 15.27220998277601 17.687062127729423 13.29643200738604
Hf 16.67254135934394 11.988655744579829 17.212590779439772
Hf 12.442054166659823 16.949357201729256 12.005504498552089
Hf 14.56046786101595 15.403051679874052 14.556425324586009
Hf 9.74885269672137 17.307016463674195 13.503538405520676
Hf 17.998962787993925 13.685420903903488 15.339087117691557
Hf 13.969263750213722 12.689102875131363 18.003367634608658
Hf 10.22954279045168 15.45025439721347 16.137484368316358
Hf 11.10868371298347 13.384025073953525 18.003959456410467
Hf 15.401377688829816 12.789514550611509 14.753981536399644
Hf 14.513991764020224 10.324920544231809 16.129218303628075
Hf 16.88541008359623 15.070831074459543 12.674530607314175
Hf 9.74591727662371 17.38690260718571 10.650122812497552
Hf 13.775563006276403 14.13679712915211 11.979774124310365
Hf 12.515612290064272 13.552338882176125 15.641818681821329
Hf 11.047263723303786 14.71780334310656 13.2943299525377
Hf 7.323440212789328 17.205265341686204 12.187535694562674
Hf 17.381252422686206 10.692174565542345 14.788575412658682
Hf 8.160795460791219 14.78908505406378 14.03031233149074
Hf 15.116633930664127 16.26220274731208 10.65765589137001
Hf 17.53037136823321 9.388951156413878 12.268122846269652
Hf 18.027291629616194 12.285810595765385 12.423768175926288
Hf 11.651035709260295 10.749935931777456 16.753453635336932
Hf 9.617604759463372 12.58428633464679 15.65432181954853
Hf 8.632341842432217 14.944095928111729 11.37634778885956
Hf 12.520473581876923 11.324739442941809 13.908760621980814
Hf 16.350709109095877 13.603275213243345 10.225598923993477
Hf 15.248196023506315 11.272274662892396 12.15047563557121
Hf 11.316734149101539 14.718377414166348 10.175824264646845
Hf 9.603352540615347 12.333080747298997 12.565072158265473
Hf 13.877368640624894 14.139085638266836 8.954672317335023
Hf 12.198583771867916 11.859087984165411 10.889005267371056
Hf 15.021730787972738 8.678106191302373 13.649481152181856
Hf 12.395929130410504 8.59016214305609 14.944545138130987
Hf 10.039135353918505 9.92603170289158 14.200158955116109
Hf 12.577598850075374 9.121121341012172 12.055556363815501
Hf 17.227678795398283 10.813238173045082 9.987194239430359
Hf 9.43704262347629 12.41193715640519 9.658767610600593
Hf 14.531212876004199 11.33681849083964 9.013939557144575
Hf 9.903928836992586 9.885901836694794 10.89435092127621
Hf 11.850468071737811 12.195183109182322 7.971510463885147
Hf 15.17650133049641 8.841714298788595 10.682493686384518
Hf 12.235347254024624 9.499699245063944 9.051043887771648
Hf 9.709967370849473 10.220208862356932 7.964125812059239
