40
Energy = -342.79675916 eV
Hf 13.731776477331728 9.03188792517096 17.923657153342308
Hf 15.081057521179538 10.015666702504898 15.480137181291619
Hf 13.635626923493025 11.76813678794648 17.41148224753045
Hf 12.216167956421186 8.799815016742222 15.572520072392745
Hf 16.744926144999006 10.353618802584617 12.790816368297644
Hf 11.241696813774235 10.296494890535739 17.761488471776694
Hf 17.12806423933782 10.956599941458082 9.90287789506662
Hf 15.308191503602941 12.836514697646056 14.060895443061522
Hf 13.946531854862101 9.191000780127755 13.016383893453213
Hf 13.595465753689162 14.47953893442046 16.063890182595333
Hf 17.29327163118178 12.972211051176503 11.884225609767066
Hf 12.700392167360057 11.49791527906517 14.629888389165943
Hf 15.477822235330786 8.919334049427725 10.674051735014993
Hf 14.061089234875476 16.58765127585815 14.107459879223594
Hf 11.185840348857747 12.997831488753313 16.690495636487352
Hf 13.111297590753757 17.65835568761614 16.42441031856177
Hf 10.740627071269834 9.008117076955257 12.797572296419734
Hf 14.633110212043842 11.774887325807907 11.304194439434726
Hf 9.90895755157078 10.601113436386965 15.107444782906402
Hf 16.027038303017914 13.438238449911056 9.144332333168837
Hf 13.3374732246042 14.14869372455717 9.619929902181694
Hf 11.28851761542106 15.936210208916984 15.341478672647492
Hf 12.763498701644453 14.148026769008617 13.194329851826746
Hf 15.181885763142237 14.849519794608165 11.708133945566498
Hf 11.83206296289608 18.358906598090595 13.986253648733218
Hf 8.601852635352724 11.117253091460706 12.285495313299839
Hf 14.64655797257815 10.788191487142727 8.462238067768933
Hf 9.951679120516348 13.330546452099677 14.04016601973282
Hf 11.505688530453412 11.554866740012637 11.834465686989157
Hf 12.506703251918438 16.65185905812842 11.585831404572891
Hf 12.630978889744997 9.212191730431638 10.330501846251224
Hf 9.865668041887611 9.821066806657646 10.154287784201864
Hf 9.906425703999364 16.18362036565808 12.807798083950335
Hf 13.607282276161158 13.180238929138804 7.118759978948748
Hf 8.831235086802616 12.556521441221427 9.581256525796379
Hf 10.828444657589154 14.184566015871535 11.000980479986966
Hf 11.743647850293536 11.629296813945086 8.750530710321039
Hf 8.075169333070548 13.979935314791007 11.976337920706142
Hf 10.90400298765731 14.258163407044673 8.049024636070325
Hf 8.828912771950725 15.582217848508394 9.877819354531246
