41
Energy = -351.84260038 eV
Hf 11.102482687602855 15.192846097512506 9.144198793390347
Hf 16.173034452333116 13.609456272766025 8.60549357949309
Hf 17.039526930491515 15.998856163262316 9.871110430743672
Hf 18.971406761401113 14.148624328316734 9.450573927403264
Hf 13.150665740477653 13.11409029675211 8.919427083654892
Hf 14.2933942840837 15.712903583396134 9.328312783688698
Hf 10.41049255207638 12.485127257631468 8.57868932049484
Hf 9.859576899506266 16.14191885800901 11.425396412384664
Hf 15.020664459785033 10.805043290744269 10.351528214164528
Hf 12.095061167228316 10.560130104968026 9.850368890892987
Hf 14.941782138625506 13.718553534606732 11.371070250774773
Hf 17.584580376188153 11.964503712989057 10.60353167035313
Hf 15.619255384822148 16.425715112461997 12.28892475288534
Hf 9.36510848745873 10.778419732029011 10.645755946042545
Hf 17.755367203325157 14.487412656887464 12.141392736689092
Hf 11.074065716601748 13.359715736831843 11.37037419820775
Hf 12.757596607052895 15.778318715882403 11.929895420852654
Hf 8.522245746496477 13.859997507513315 10.264467768258616
Hf 14.436019224908545 9.021415222753987 12.766913445185295
Hf 10.711432150776595 16.205027864938153 14.210562558087165
Hf 17.043230397200542 9.189341438318023 11.596418615712317
Hf 13.56668698106877 16.368962122837686 14.900533496949803
Hf 13.136748660671563 11.57237373455997 12.612217513102111
Hf 8.573602579319868 14.339582588347366 13.266108948425327
Hf 12.386389379333288 13.806808396380877 14.353854160490176
Hf 16.177273670584963 11.497110722776053 13.008942147041827
Hf 11.355435132444054 9.03390952062874 12.373826730168823
Hf 15.598150221544197 14.323476876667394 14.316555629779232
Hf 10.187312747560416 11.499927015021544 13.742966293892398
Hf 7.457135086172122 11.938421424440719 12.208616864544693
Hf 8.169744502076613 9.495241219545793 13.583204869078324
Hf 12.65489809228679 7.122628321325101 14.046637264807826
Hf 11.677393396382797 15.23119030783164 16.848018343138573
Hf 14.596242829774571 11.754973365443568 15.493964228193196
Hf 9.620933163186306 13.517753547074877 15.921053431439686
Hf 14.17531057245904 14.241675619316615 16.756114804186563
Hf 12.447491900532036 9.79871081231645 15.011965442674706
Hf 12.016417417214038 12.244752378342438 16.81781004185668
Hf 7.455414281489467 11.92847093345354 14.90690831469677
Hf 10.198127962516644 7.982233059343293 14.90176426950662
Hf 9.38053066086772 10.440629790323223 16.262951808596668
