48
Energy = -418.26130905 eV
Hf 9.249488534005708 9.281120834432713 9.664209578113816
Hf 8.89383047813807 9.381159692295599 12.48481564768187
Hf 8.405933565474585 11.871797449259097 10.672388217802931
Hf 10.340853131104472 11.747507564702993 8.504863246199093
Hf 11.714561504672533 9.0838343352589 8.582125561909045
Hf 11.263135998346486 7.740537750146992 11.199309824274618
Hf 7.001478451187077 11.559458411733955 13.157498688579837
Hf 8.645479391267063 10.359669210406443 15.354682602320716
Hf 9.341996788581692 14.459090046851767 9.399876288753838
Hf 11.50624337601297 10.455841286103388 11.23583767198904
Hf 11.12805357620031 8.842840359825162 14.137975802079879
Hf 13.331835419854393 11.47025018402806 8.664416827471422
Hf 12.150487227505623 14.180854299007017 8.375382604596632
Hf 14.0000874996035 8.97746619271668 10.110019673646232
Hf 7.706335554118992 13.216824051602316 15.23074889081459
Hf 8.076125617025038 14.262037667589473 12.391275534369198
Hf 11.075680046421201 13.409499980110091 11.20106544609454
Hf 9.774399307844579 12.20774911764547 13.517307768283985
Hf 13.80551605428658 9.250085806590821 12.977892079834744
Hf 10.133447548411874 12.669002227010465 16.66691069825642
Hf 11.156730824241443 16.70716540228846 9.227063366073303
Hf 15.184992367969883 13.960177887319178 9.580246568697566
Hf 13.956925566344083 12.264779229258512 11.62328696295591
Hf 11.202887169998474 10.021799291475135 16.78868438946584
Hf 13.224897564080225 15.489784585529332 11.139124442695973
Hf 9.794819304939063 15.144986571110195 14.722723226489993
Hf 12.39966863394209 11.50579156816474 14.532021644320071
Hf 13.86437087793559 16.567179426325307 8.53407956045577
Hf 15.891087560583374 11.095773384623813 9.759157324251879
Hf 10.516115776215859 16.245502862314623 12.077623889811882
Hf 15.63807175369828 11.414984699604968 13.835196718082004
Hf 16.800173923731283 9.52920898523382 11.902843585252112
Hf 15.631256566793883 14.713231973239537 12.950519112830486
Hf 17.363220999475338 12.590447376965734 11.747419128071385
Hf 12.874479880012627 12.065009428521002 17.470731792926596
Hf 12.69327602734155 14.392412620608225 13.844004779260201
Hf 14.09120808896629 9.803035462444608 15.973917883197448
Hf 15.638512289500937 16.89258251158138 10.625276797543945
Hf 16.451224373206976 8.761685778658041 14.6772576823557
Hf 12.965334930627643 18.26758633935521 10.772843979211597
Hf 12.191234180633447 14.857407376113475 16.628766686156474
Hf 14.497796681887465 17.477838048914798 13.071003454660541
Hf 11.978355925273604 17.122628063203763 14.578516475544928
Hf 18.426782229995588 10.724142628974144 13.903585362220603
Hf 14.80631443257948 13.337716990160633 15.827824767472068
Hf 17.60783469601215 13.3334507666945 14.685849077134229
Hf 16.895680642095314 11.084814400487021 16.35855122838298
Hf 14.51803828497031 16.10467427673962 15.443494187099827
