47
Energy = -405.12775582 eV
Hf 11.171539910433124 9.356976041780568 15.537786167231266
Hf 12.555443594882098 8.8711203316899 12.998030962625215
Hf 9.702149229633829 9.11595662772613 13.077798652182533
Hf 15.412896927514721 9.442010451696659 12.713621820600117
Hf 16.852688138789397 8.657707916107228 15.144300326266647
Hf 15.637521655823607 10.21243379991556 17.188565178488602
Hf 12.9196978516256 10.409552670079574 17.678944809404996
Hf 13.954812709590747 8.360791521655754 15.757922409311512
Hf 8.727076375324579 10.976360741244562 14.950617715066526
Hf 10.733587565368966 10.1293145012856 10.673207515085082
Hf 10.921931813489131 12.193608692570889 16.36874283016023
Hf 13.592869489132026 9.510791059003997 10.091163998230444
Hf 11.130192578712272 11.771065465022932 13.3104369593977
Hf 16.181179315661847 10.798352820294651 10.244230661959758
Hf 8.437192375186093 11.516163164260476 12.141700860574094
Hf 18.093116387256842 9.914776203372524 12.84260155543428
Hf 12.102778585161651 14.044782942505769 18.265479967631233
Hf 16.930093461784246 11.48870485191284 14.931749329468433
Hf 13.978293023734246 11.81257814120455 11.980734449120527
Hf 14.473918117914183 12.94301252874918 17.089334355445747
Hf 13.732932594749148 11.109154940723139 14.976494558345635
Hf 8.99655113618602 13.689456042414754 14.021174930291613
Hf 11.693863439037278 10.383978650448846 7.747849425363334
Hf 15.193197948534575 13.871990606961111 14.224165707887986
Hf 12.53515233132196 14.105208421369506 15.038097795335965
Hf 9.404393411707364 11.91872654605416 9.004910124646607
Hf 10.133290154602143 15.176187277625258 16.457750967252554
Hf 14.350792522425008 11.459266691240783 8.04908687650988
Hf 11.55337307011684 16.808271419134083 18.468019294242357
Hf 12.22125940187543 12.661460884135586 9.687243766739565
Hf 16.9207308583895 12.509279285533962 12.28673823504596
Hf 10.052966824797615 13.837957496933274 11.238977416547932
Hf 9.808202237458206 12.153389811036583 6.286431884206661
Hf 13.941688424251907 15.85924448527602 17.112045429075604
Hf 13.05602088122923 14.678902530553637 11.934820899470285
Hf 10.811738695221305 15.946834034988552 13.431792157062969
Hf 15.153841229537806 13.705310648811329 10.028828596707275
Hf 12.355484005223309 13.034343725925034 6.671671952184256
Hf 11.898413153287532 17.346715473998 15.749750472167616
Hf 14.11856266073768 16.54165820407081 14.128550055467976
Hf 10.314694689937472 14.510264108217797 8.095243734846107
Hf 13.06893074402728 15.15432628261873 8.490966711641658
Hf 11.332268308223979 16.46469877392952 10.343667721462998
Hf 16.07416593618249 15.690960430278501 12.153114311033152
Hf 12.450229149211637 18.235110967919763 12.42450065539265
Hf 14.15400770702323 17.069666717354085 10.477386206384539
Hf 15.230319718865656 18.621532514079316 12.551522446353209
