46
Energy = -399.96907163 eV
Hf 16.853139580786404 9.67213951104553 15.46736582773014
Hf 14.429069436243585 8.68769971316182 16.64659778435558
Hf 15.443483834785514 7.362664020227971 14.440454169551057
Hf 16.69576279265392 9.146705596215213 12.563561356382621
Hf 14.729458414230663 11.514424800591714 16.66598381750522
Hf 12.447878483995263 7.810400400273577 14.426155999860336
Hf 16.56885333745377 11.991255534206806 13.608028547458364
Hf 12.044446733730483 10.260010686944746 16.305796218075944
Hf 14.392404309812106 10.077801570981883 14.074443989899734
Hf 13.870271366482019 7.904368886670983 11.960585950927854
Hf 14.721888522350842 10.525418581536243 11.003902406189265
Hf 14.550348826617208 13.389652842536718 11.759747214440283
Hf 17.093527497881105 12.365426063259884 10.760090538121247
Hf 14.997652361382869 14.015373691246525 14.871416282952975
Hf 9.778666846746203 9.157996042401363 14.456775790771301
Hf 10.717944420962128 7.772401371571073 11.837175562200288
Hf 12.191177319738161 13.181956594555624 16.748550091703333
Hf 12.399936108726463 9.18875423363831 9.650316263369788
Hf 9.57334218853348 11.912844160568847 15.741851188485956
Hf 14.860347774233452 12.495759771924847 8.918402723241691
Hf 11.881753016422143 10.200710593240936 12.31151832265317
Hf 17.100339313725783 14.69298687650573 12.651528087533457
Hf 12.799080087322592 15.61760870458022 14.948802614212719
Hf 12.452185173814598 12.48684148460227 14.072922317047142
Hf 9.577654753334231 12.025191749163653 12.596009321389419
Hf 7.35030204250111 10.745164322995704 14.089614814694054
Hf 15.575777730992243 16.967729999158404 14.18263661373203
Hf 12.126751728588573 12.082841994261459 10.00431661763111
Hf 10.192548403081679 14.454405552242791 14.725898470742628
Hf 11.344252227550479 14.256185318522194 11.994913198241287
Hf 9.68481059222908 10.321748108496784 9.957090422992826
Hf 8.274993340118915 9.268249774603664 12.024407329676858
Hf 7.537421742609586 13.476143462024806 14.094356544645597
Hf 16.555740473740077 17.046356403745172 11.337445723497128
Hf 16.073140011166853 14.998207776420735 9.596861631958214
Hf 13.67702296261212 16.259664453770622 12.054214818857954
Hf 8.502218691349901 14.820655962946896 11.807654556159308
Hf 7.144975065793573 12.04012589136868 11.404262698734572
Hf 12.994251260873854 18.37528938339919 14.069097242633593
Hf 9.463592077173658 13.298522922630225 9.798254989122878
Hf 14.876433256675778 18.9466315719054 12.081552124895879
Hf 13.206889704702236 14.691577758302202 9.009528717072966
Hf 10.714405983718043 16.952234945723777 13.084851667152009
Hf 14.19055749774865 17.46391492716624 9.528283907206694
Hf 11.178224855719833 16.315726166319173 10.223216808159869
Hf 12.180918515972705 18.74614850235806 11.338159884823234
