45
Energy = -391.2937159 eV
Hf 14.824202257727334 15.508583803181685 9.288911433492697
Hf 15.59050733524412 12.806482163860473 9.547078877080716
Hf 16.476012383699146 10.137216895528795 9.243076352603962
Hf 13.078365664863803 13.523030758669131 7.938191924228605
Hf 13.950246010565559 10.654042949106753 7.906198603462428
Hf 15.738567368241767 14.81843774417941 11.901643973538807
Hf 17.3106482644875 11.468038146648913 11.680165493147355
Hf 13.46122883532689 16.747533519701154 11.506975561546954
Hf 12.07912093184062 16.020390114256426 9.146274672532227
Hf 10.371956826850415 13.750551466014779 8.906059032122323
Hf 10.830731017812548 11.33632352599155 7.433871721690045
Hf 13.155303261706283 13.806809810004022 11.077471460652248
Hf 14.58326928602344 10.640766408377509 11.537249757606308
Hf 16.638832538828723 8.57214418092382 11.422637787121172
Hf 14.217547132983935 8.298647136179252 9.778182691979888
Hf 11.982268452288377 11.32984222853597 9.992985184768374
Hf 13.391177375102693 15.200157989314294 13.829684507088002
Hf 11.007211192651834 16.787665118876795 14.080283230632158
Hf 8.194271027239592 15.131632969795659 10.22785454796421
Hf 15.250911052679685 12.570642771964181 13.807529811500794
Hf 7.712049064435251 12.437219653082362 9.1819984328298
Hf 16.353827888025506 9.842330033760039 13.863708877732252
Hf 10.742768206719985 15.429389458377106 11.684513728302372
Hf 9.368980503026338 10.017650686305275 9.82940655554347
Hf 15.129086463237558 14.609800584172177 16.08712901292592
Hf 9.29775415713562 12.727106743870447 11.60038653363166
Hf 14.124497911236892 8.039828510787213 12.849687382225081
Hf 11.715581768743716 8.903633257730505 8.422153303024087
Hf 8.252097405371881 15.0540536409947 13.147315542739976
Hf 13.831561110172077 10.01911662431647 15.07961351473979
Hf 6.430452142659884 13.405844566724001 11.664467087996561
Hf 12.297750116984423 15.524656853751825 16.527256368990052
Hf 15.36018020423496 11.843095534128818 16.82226227044536
Hf 11.55620058419926 8.460250411497634 11.314056155346933
Hf 11.943001492115716 11.3323921749303 12.998109358516047
Hf 7.054693837068044 10.771375276451385 11.479565308530224
Hf 12.88751825241048 12.758171526490608 15.637296973005364
Hf 9.351476749384629 9.781989573183893 12.900506822862186
Hf 10.496141912921964 13.837735422816657 14.4506241677185
Hf 11.567749034228939 8.564616938697553 14.186634565389316
Hf 13.540796165144423 13.567862255301957 18.29537590106325
Hf 7.859557452736684 12.211159912609483 14.025171924811985
Hf 12.697779749680896 10.881174987810294 17.786132913098495
Hf 10.792108893077488 13.132041723258741 17.48133074297097
Hf 10.51437944800041 10.929345911478649 15.494160959035751
