42
Energy = -362.80543372 eV
Hf 12.294864433287524 13.755386555406663 7.829008082939803
Hf 10.367562959496306 11.735727511000892 8.692412251641082
Hf 10.269302367250056 14.518560523846253 9.733697361582255
Hf 13.088315591375006 11.103961523592233 7.973743725979314
Hf 13.346055647236884 15.441083526127182 9.969339350372962
Hf 9.002254151904555 9.741725435094288 10.303475771682994
Hf 8.718491637663458 12.445221816226734 11.184598658246376
Hf 8.505786268255514 15.173303271817211 11.895638448845778
Hf 14.898712597038276 13.036604384132774 8.819251384943442
Hf 14.540654698198567 10.416241632664816 10.422906548841503
Hf 13.866618525086535 17.713924751919738 12.023176272098452
Hf 12.554364635782036 12.671585986962844 10.525957422021406
Hf 7.921541267440635 13.265731970492494 13.950829317297627
Hf 8.304703891781845 10.08208484744933 13.015139141905957
Hf 15.27131743572736 13.712231125221537 11.485965650826301
Hf 10.272729972708408 7.88826657493687 11.841357658775376
Hf 10.683354194434449 13.658915537928838 13.285708881968487
Hf 13.21663512857373 15.190768893008253 13.108094261476811
Hf 11.119694610138984 10.67022043453726 12.433769241825363
Hf 11.018038942633513 16.721426610161117 11.587536298322963
Hf 11.762745592439193 9.286151468402512 9.777006486610482
Hf 9.62377234834955 16.208477695763712 14.26635417598949
Hf 9.720655035945533 14.008835570496922 16.098619385132512
Hf 16.243921781926197 15.992518256045336 12.961184995973051
Hf 12.097985052982512 15.664050785286621 15.908432086365021
Hf 9.75720925133686 11.30063498765641 15.27546940202804
Hf 17.011817844471047 11.39216265726773 11.546428144538417
Hf 14.531702294465495 17.151522824282377 14.828747268385541
Hf 10.347449059856316 8.60710120596918 14.420974703095165
Hf 17.43779081248479 13.449198188631101 13.641187868070782
Hf 14.5387694821469 11.413514472611288 13.391353209213355
Hf 11.949729779010626 17.833046477296843 14.014738946065307
Hf 16.026263462558386 8.979010428762038 12.423168654959284
Hf 17.336791321349512 15.615955201148303 15.528373703793584
Hf 14.942152448009136 14.221255907220762 15.295580161283997
Hf 12.321048528472247 12.779176606111365 15.85480899638647
Hf 12.554797954878657 10.127505835517468 15.215199884742043
Hf 17.269145391830545 10.665142496504036 14.474169597578248
Hf 13.106289531805066 8.631117087090892 12.689576565569263
Hf 17.36502480785408 12.99583877808807 16.44187695989882
Hf 15.012576358278011 11.305116527970805 16.428846677783476
Hf 15.137627046357405 8.890356959495778 15.050190730822303
