48
Energy = -417.55277143 eV
Hf 15.258498397393968 8.33927662484211 14.848781538382148
Hf 15.689455801477822 7.727180342820826 11.952573182585832
Hf 13.07496311851809 7.032337631665345 13.358757246397774
Hf 13.203835433758652 6.937501812601194 10.476550095773261
Hf 17.216267299492195 9.794219862180087 13.528153062248673
Hf 12.769363365553072 9.854860939331333 15.160639052438277
Hf 10.476775584479906 6.914622829243467 11.668968779017293
Hf 15.376584778008757 11.286492115538245 15.273115092442016
Hf 10.542017501614376 8.220081233878325 14.339117037149725
Hf 14.650042058079416 9.19700309128838 9.452675746542946
Hf 12.559036469786047 12.076142165609381 17.02857667445028
Hf 14.479114306307636 10.220151600392228 12.69864219539719
Hf 11.898095602459497 8.977087687337281 8.684815264279834
Hf 16.871687209951666 10.269522462134306 10.831781537948023
Hf 10.284514014758209 10.599146311458462 16.495693892593856
Hf 11.836692025188421 9.171578268932183 11.735942467628837
Hf 16.233504342938687 12.510590116018054 12.680122931622899
Hf 9.968011382868907 13.352062779585575 17.477302416755983
Hf 12.674461373726418 14.723913632356187 16.498806246277027
Hf 10.601566092530922 11.119033828825671 13.360744382341657
Hf 8.604451456738104 9.124416639437596 12.674241724588818
Hf 9.350382197830736 9.613865076656591 9.955250326552038
Hf 13.323135370627806 12.876699032223788 13.977734785351503
Hf 13.492804105898543 11.250590815713727 7.667222425386145
Hf 12.803222953411415 11.480616987473521 10.401138890661576
Hf 15.325197524750518 12.532216021402418 9.681166587199
Hf 16.670208046810714 14.9059163028292 11.099257161325076
Hf 15.567273973507472 15.034534360961441 13.755639296070317
Hf 7.804399314450386 11.941931129364722 12.244385751116445
Hf 8.195125454149279 11.498755221413942 15.095507594526687
Hf 10.530438243762731 11.476579563045094 7.869705743823777
Hf 10.1063231738313 12.468341025245714 10.571027019619516
Hf 10.684473023611345 13.251936664900763 14.98898129506936
Hf 13.711923566849315 14.484129362301628 11.399606792746809
Hf 7.802762983539052 11.963831110723659 9.156370167578615
Hf 13.12810545402227 16.164083153376158 14.093217796932409
Hf 12.329774256054453 13.881298195142902 8.718661864728036
Hf 10.714120694079128 14.733431251484134 12.196393326411778
Hf 14.995931290978664 15.413464730999024 8.984608111549344
Hf 9.382692454498457 14.097924848713468 8.221074451422991
Hf 14.781600389155825 17.085454414490826 11.60751358017699
Hf 7.844358070456749 14.549050075968069 10.713021921573276
Hf 8.173393717084835 14.412597573666151 13.753379303073768
Hf 10.332546907222628 16.19219159442772 14.704759098047978
Hf 10.004690346095625 16.36353519031613 9.837148964255393
Hf 12.74045815388478 16.82376867763213 9.530269429960827
Hf 11.613262775984646 17.513834418464015 12.122237983563432
Hf 8.764144354452858 16.841376944618307 12.331997372069756
