47
Energy = -409.30635096 eV
Hf 7.719521217308506 12.298169532041454 12.634060093282867
Hf 10.52668765485566 14.497154897885848 16.35746057349582
Hf 10.477815025524373 11.393373343813623 16.772245373817945
Hf 8.638468590853812 12.936189545509748 15.167967874173184
Hf 6.586076402676493 11.428668816797032 10.124114062086003
Hf 12.361710222353182 13.200018336015676 18.070164771828246
Hf 8.051790104520357 9.21171356821948 11.510383998338105
Hf 7.898654646278609 14.031868504877945 10.21732755564035
Hf 12.057895146198467 9.5421755277703 14.833122382683165
Hf 8.705875986730764 15.034368221909427 13.212134263791413
Hf 9.455712079795436 10.304329651102618 13.974134263551681
Hf 11.685084767067071 15.502517562126178 13.768204968797312
Hf 13.285931173181535 10.639706614719804 17.233753947300663
Hf 12.585282280008578 12.57349352695472 15.207729273805459
Hf 13.372801598516059 15.363616749735222 16.21723820451006
Hf 9.511449557053842 11.578563089210538 10.29684667006605
Hf 10.331514772845285 7.7364320964278255 12.762174701254184
Hf 8.074794092308725 9.56818227761893 8.639454632267288
Hf 10.683787643730604 12.82422400129101 12.906307998888249
Hf 8.063641638766391 12.242045273913204 7.844951640143341
Hf 10.647857955796251 15.063651674448492 10.883751465038412
Hf 15.081561502428789 13.017976191701923 16.882942962082968
Hf 11.808207562769269 9.896525516155958 11.792360572438463
Hf 15.216397854534735 10.841609194682757 15.00655908321184
Hf 12.65342345783079 7.26759420503739 11.058900469724996
Hf 10.299451849181995 8.29332342318196 9.827139143984027
Hf 13.316108305461421 14.269954300248527 11.691731917445939
Hf 16.342294004612242 15.540719653402853 15.823025519998131
Hf 17.386641999071163 12.968314704930181 14.689327853565876
Hf 10.375139131476217 13.70008679063122 8.329364779359292
Hf 14.654343605179271 16.84016757154679 13.667112635113124
Hf 10.73960519610497 10.870476971556414 7.736278599663301
Hf 12.522397246033252 12.317631256880702 9.80220846089265
Hf 14.294139660593164 8.458277378525084 13.348212492035804
Hf 12.779481858492513 17.061424871392955 11.406227647247531
Hf 14.880367093157648 13.947027239363672 14.047591261174192
Hf 15.015941160726662 8.58391399957581 10.72282421994944
Hf 13.012283603866047 15.391618922644893 9.020079668262538
Hf 13.056762964263436 9.344462338729468 8.825547413258315
Hf 17.197737530725828 15.441607152443652 13.166666740620917
Hf 16.649498314455315 10.161827619789591 12.408268269302885
Hf 14.13640557657208 11.333679379498959 12.313388432489402
Hf 13.580682766134576 12.042188528414579 7.368985944070203
Hf 15.443769410085944 16.021297759535077 10.879266077113371
Hf 15.51129628475903 11.02002265759705 9.502317977145744
Hf 15.228796364425188 13.747890021536973 9.072580187003748
Hf 16.4890009710636 13.062821571656594 11.620293464309585
