42
Energy = -364.27357902 eV
Hf 11.527990428541036 14.753388992561511 15.08682897482251
Hf 13.619564986528315 12.379095710598671 15.778031222309318
Hf 12.241051110929257 16.949135565815826 13.318108114727531
Hf 10.674710189493196 11.969629083964147 15.897703132049358
Hf 8.77980410036257 14.020732200510137 14.764993989794075
Hf 14.267754843304653 14.934407975268032 14.101008657604087
Hf 15.997525707942138 12.58894029305847 14.167851804430091
Hf 12.600978638287677 9.455269365785096 15.842703111698855
Hf 9.656951103781216 9.265108566928363 15.964681025565401
Hf 9.72031060905853 15.839682447273177 12.61924739640327
Hf 13.44662183837125 12.035998687601845 13.010308969012927
Hf 8.18001404570042 11.222917524184469 14.372905086134592
Hf 15.043973062329151 9.870744074658248 13.9879278210363
Hf 14.463880978582482 16.751319195577636 11.740875836970051
Hf 10.636515586419009 12.989964375703675 12.935605379742595
Hf 11.803256317237219 17.049594639490408 10.344279361409457
Hf 8.008675113849996 13.148941779616393 11.863276830422478
Hf 15.962003564593836 14.279201200064247 11.77455938467696
Hf 11.071755959470893 9.854018117021495 13.59752583889958
Hf 10.940402551308054 7.216161063844487 14.493421221653183
Hf 16.280174005257553 11.380971784551576 11.544033082596838
Hf 12.428739650268477 14.720531469007309 11.405031969709311
Hf 16.5459989230737 13.126552296186038 9.172706349827113
Hf 9.685742773815795 14.910634425752304 9.970915593334368
Hf 8.325002594867861 8.293172559854336 13.476427353145503
Hf 9.316661077881777 10.451798352469185 11.631636148817947
Hf 13.841801831966414 12.696916953013279 10.01646099038992
Hf 14.540802510051565 15.461824382695573 9.15295464738368
Hf 6.571314524293488 10.424112752168863 12.02295990604194
Hf 13.210049478329097 7.8278139359625385 12.777410681577352
Hf 12.586786805493563 10.217813439892723 10.849820796569682
Hf 15.257832885306776 8.842987287645743 11.187488455021937
Hf 10.515487061494127 7.488528518480559 11.521488223657654
Hf 10.600912206957814 12.268526835663904 9.799009695542631
Hf 7.787228578000037 11.061736123021692 9.445500744967577
Hf 15.116530572415003 10.473708561805301 8.749231078232697
Hf 11.994917331446672 14.530620149500567 8.333426952044803
Hf 14.404565070176963 13.10056703659354 7.342965897467783
Hf 7.888632418929027 8.347780559654208 10.512434547335971
Hf 13.005222787343456 7.850317108381023 9.685871110541944
Hf 10.258171452164108 9.231091136083089 9.05387343550072
Hf 12.402752348944023 11.04700271478795 7.948920655248678
