49
Energy = -426.89793173 eV
Hf 9.096648363721956 13.699740290948528 8.661832669612311
Hf 10.151451246008333 16.31869207131897 9.728938374408422
Hf 7.9619637153474265 14.73691481191436 11.015489416075962
Hf 6.936995713071675 12.153476549480743 10.290739012126107
Hf 11.66196883139119 14.598478289088586 7.833395019715271
Hf 8.128913345737258 11.291270878048593 7.4999898286570525
Hf 11.316510161722064 11.607005047025215 7.859657413492088
Hf 7.207540831471657 9.3274075820673 9.413896648086578
Hf 11.39175330561567 14.20660772676902 10.729732629038246
Hf 9.64867122221212 15.296619601799513 13.098366652992517
Hf 7.471282250296123 10.032080252650404 12.243886472319831
Hf 9.52196464917955 12.407077532395148 12.234439903121295
Hf 13.298369661941365 16.14383875923644 9.695214616359188
Hf 9.574494030067493 10.738155486442462 9.89852267163196
Hf 9.60359159575171 8.903538735299096 7.7848829202856695
Hf 14.135535518485755 13.32198528152723 8.93642911986344
Hf 12.336322733184335 11.485383673599095 10.732210450319444
Hf 16.168243475398775 15.382566581839665 9.758891107834678
Hf 9.745708180611238 13.480893348910833 15.25842109060913
Hf 9.523140163426778 7.821591540924753 10.601644568568531
Hf 15.188059263529006 17.1403302888008 11.739207717479015
Hf 12.014639992372718 13.50833860302213 13.425164632810443
Hf 7.262460208812884 13.00081580303154 13.410798069123334
Hf 12.449818676998918 16.469284625505047 12.59777824163476
Hf 14.440253750777137 14.34386521125094 11.748628154151376
Hf 14.867043944880386 16.261018150264913 14.436481269626087
Hf 11.97883281817775 8.970636158318266 9.425817810545832
Hf 9.032831626438488 10.61297494530869 14.687138601819655
Hf 10.974760265587689 9.521302814482723 12.547255601841302
Hf 14.86060201777289 10.470793748117819 9.693947187135251
Hf 12.22186903062243 15.419822057741028 15.594766464784264
Hf 12.176883009486902 10.95166746183052 14.669726168461782
Hf 17.1114908748948 15.11788052574804 12.550704796500007
Hf 8.862930734307389 7.833744686690667 13.504462086637284
Hf 12.09584099924061 12.89404101097369 16.841471458208463
Hf 16.737929954348527 12.61621070490121 10.562932355811425
Hf 14.490584558073072 13.241195307287155 14.771951769849192
Hf 13.886073441796533 8.650584024713655 11.74846384642172
Hf 14.496875713494784 11.380392279179082 12.580435996482237
Hf 11.55618358618601 6.8302291882037665 12.98253143459411
Hf 10.844803069262893 8.373583596073418 15.387580657354599
Hf 16.997902574568343 14.608117790062296 15.381736657152443
Hf 14.719375675008227 14.126913228610782 17.24930407849283
Hf 13.469843193994995 8.32117936269901 14.612403091331718
Hf 14.162699622475278 10.978493186774635 16.805350392782355
Hf 16.71225521718597 9.892029759363286 11.807502621161753
Hf 17.39349770768904 12.26210386935548 13.518967830694244
Hf 16.72179581145232 12.06960017755244 16.362587959357267
Hf 15.963685843242084 9.908212289319561 14.663148631224223
