48
Energy = -418.65132906 eV
Hf 14.307767686153602 10.688088030589121 17.290109357561548
Hf 15.352698426315408 8.541427091960545 15.702306668677778
Hf 10.97455544399838 11.038270388098072 17.140081382303784
Hf 8.420022167577478 11.54522435848831 15.546979427683128
Hf 9.641152531444048 9.11708949560509 15.5151177908846
Hf 12.48974839203627 8.97247438449449 15.734857054051476
Hf 14.042732533880887 8.131453901567752 13.252261991638997
Hf 10.931511619462137 8.283901310666486 13.182801035247143
Hf 15.78022646367023 13.1204839862372 16.20676923558861
Hf 12.88290844701782 13.15202439819481 16.298235640687327
Hf 10.114067223257157 13.694232517200941 16.092012279526084
Hf 16.663949090164127 9.502249934623224 13.264768381305391
Hf 8.882336571182261 13.337471971124234 13.284889586483496
Hf 8.652747917293606 10.19481077299835 13.013235656415407
Hf 14.600214918100926 15.623691589930017 16.49889604486045
Hf 11.842032740766598 16.199543885627797 16.067534416850158
Hf 10.166481319274466 8.546033794124183 10.396968107841927
Hf 11.099813340151186 11.419613978707126 14.145486602584322
Hf 14.958561076302535 8.580530603833857 10.515231363148063
Hf 12.551842906109886 7.0072732113902285 11.11556279182615
Hf 12.524502795655888 10.011611475247953 11.209933796104485
Hf 17.042895970943732 10.647793524053053 15.892545889304294
Hf 9.070872128213958 16.01348354936193 14.854587651864433
Hf 14.439817972636067 11.074405658151772 14.343839531691689
Hf 12.681657926400284 8.229259598347337 8.708238396719263
Hf 10.136453267692247 11.722609620905782 10.978855564295642
Hf 11.33176889031726 14.833156907290654 13.514531267950412
Hf 16.6263257085565 15.765168559754725 14.452005686190645
Hf 16.962920808767965 12.538954791216977 13.675165383809246
Hf 9.023011508909848 16.300537997644327 12.16343774256275
Hf 11.060686532722547 10.365169085932164 8.475077661712554
Hf 14.37343190490196 14.199786752630601 13.87776037188837
Hf 15.375214849687548 11.493478932452815 11.44328932504831
Hf 12.740985683070297 12.93704513435424 11.729850643622479
Hf 10.771300158997283 14.827898635101862 10.490838408452852
Hf 14.019129937867794 10.784841604293653 8.7324869115726
Hf 11.061176564588873 17.80123801719716 13.642890492058827
Hf 14.080201212042 17.44520994550711 14.439098053574728
Hf 16.441979062316918 14.812547227993004 11.665596015166305
Hf 13.522322167522834 16.160936570394725 11.53154739594124
Hf 14.66414485952121 13.802506659586896 9.50142008941076
Hf 11.211333190718154 17.777753552201183 10.63181209608572
Hf 12.042194081626462 12.908611152397897 8.837095999151039
Hf 12.866127711450545 16.035454063377845 8.674675637004988
Hf 13.23859127160348 19.060572675842735 12.267892892465163
Hf 15.652955099174449 16.40539178960768 9.428881814474657
Hf 13.938519309899442 18.518908647404633 9.734763151987183
Hf 15.861338585981319 17.79031005720599 11.993230309778149
