41
Energy = -354.95743625 eV
Hf 16.966148421932076 9.500671660968484 11.401945124134405
Hf 17.211498607640618 12.224569728465356 10.534294576157318
Hf 15.640430430694545 10.281340285642425 8.90131014329643
Hf 17.046219990105328 11.744431507606755 13.410082654748189
Hf 15.248401036651147 9.223260212951146 13.653945498215345
Hf 13.89849604130082 11.517771393959036 6.915894383153679
Hf 14.198524755864762 8.511388749858087 10.858556731472794
Hf 15.088718806229927 13.215479525112361 8.908447843029807
Hf 15.716554775448714 14.238793652106326 12.31353049905475
Hf 12.600073521100638 8.889560026133264 8.067164122594837
Hf 14.771331060884568 11.289106291433471 11.564940251530407
Hf 15.449510795731248 11.114666354799402 15.77314886041823
Hf 15.957897179028304 13.855743170473756 15.207413774674981
Hf 12.68860445971622 11.116503883282938 9.470056562386228
Hf 11.192732029945205 11.307490160210145 6.886729983880967
Hf 12.493619985101065 9.94875365565456 13.229127121615894
Hf 12.321083666620556 13.705901985814915 8.085248509646522
Hf 12.351657934060858 16.800367936541925 11.862354840772205
Hf 13.741892203292952 12.605583357803827 13.925586312509457
Hf 13.53935544624422 15.470728067361762 14.438560445191579
Hf 13.06387476900005 13.85581389226729 11.143450984451741
Hf 9.856531030346604 9.818499176711052 8.725277512564395
Hf 13.608777155002574 13.118821346941395 16.795280632350668
Hf 11.02239946447819 17.119106771559064 14.452155040032581
Hf 9.526011374074725 12.657085174310911 8.905374579804883
Hf 12.628442866015739 10.344119581200076 16.158343709420514
Hf 9.607042411784418 9.663368158346541 13.275671469861074
Hf 10.813217289400775 11.86088725082161 11.595060664163503
Hf 10.559669051883484 15.166615620915946 10.152689157210894
Hf 11.180659323303757 8.78420123861703 10.887913281398351
Hf 10.947354211906887 12.339833405088754 14.81126281028128
Hf 9.400804073003018 16.798208813273817 12.152708088176183
Hf 11.020779663281798 14.659008621490768 13.101880374805338
Hf 11.091303708660785 14.953548363463463 16.389963592690382
Hf 8.295133177679672 10.831429794203073 10.944905086069246
Hf 8.513267242314658 13.895818758485904 11.605289505851585
Hf 11.018701367996634 12.19410498684872 17.684406448281912
Hf 8.137637739780967 12.06043782522963 13.849754554231978
Hf 9.399954570845294 10.42788039946169 16.09317369821273
Hf 8.660321899087384 15.270300616323462 14.590191865910546
Hf 8.723470176273016 13.174325664141072 16.52612331286831
