42
Energy = -364.20163878 eV
Hf 14.54694653046715 14.02437215844077 16.155555849902566
Hf 12.304208692116843 16.225383093784057 14.883516169725437
Hf 12.880636003804216 11.770859086234374 16.928931160147243
Hf 11.099857970337869 13.81071358099306 16.428531052428923
Hf 9.409442349735873 15.820263181540893 15.283517816335932
Hf 10.157020742778943 16.991736477032177 12.731264115809438
Hf 12.928367486635631 17.880162980360833 12.631687426604756
Hf 14.967692329584246 15.842081116034953 13.419418045235796
Hf 13.331347973616827 13.385919572092044 14.064288216016665
Hf 15.362719712771062 14.140795894692975 10.967580563133914
Hf 10.052210030346691 10.851457170600085 16.5310717362851
Hf 14.760349588570318 10.937722595476922 15.06103332961823
Hf 12.511317073273803 9.210141699716743 16.071096476299886
Hf 8.331531102106899 13.127926465114637 15.266527501082015
Hf 16.275473801720818 12.758353689583885 13.442768054665526
Hf 12.573229377152712 15.126973201835705 11.882749980982467
Hf 7.903615394606631 15.074993399616947 12.886625795360098
Hf 11.360497901955544 11.194376208385476 14.066841224780262
Hf 10.352550352428297 13.893174164332295 13.460292651612669
Hf 14.370765069578177 16.760904259681578 10.478047393365484
Hf 11.57955665638828 17.105092527887486 10.135124171669377
Hf 10.32778068168912 8.564505909047824 14.454526782883597
Hf 12.763539449936156 14.42704297035259 9.199303522475386
Hf 8.441299670239742 10.492876750092945 14.033920584664237
Hf 13.000154728205226 8.903060325561018 13.186426923711066
Hf 15.993438839970489 9.603308912892082 12.484836606186867
Hf 14.13870491593628 11.673285303164091 11.893158879382561
Hf 8.497107875495994 12.300507689433614 11.862338312774302
Hf 16.78180948448431 11.669785452100662 10.708097699072454
Hf 9.841082986117085 14.65542463229081 10.512892056183471
Hf 11.451532141224902 12.314229384184175 11.023107791035132
Hf 14.486640551281267 7.327391224184318 11.258747142698214
Hf 10.070618640398608 9.643683624767158 11.632703455634646
Hf 12.999595315733147 9.708980588991839 10.220511518538803
Hf 14.697312475565381 12.089905134436767 8.718189215459626
Hf 11.676365436401372 7.279811273960604 10.972151809476463
Hf 15.721549863428075 9.256811854203297 9.38742960107955
Hf 9.294003896126839 11.49321079974141 9.29317424602601
Hf 13.432246621228561 7.358358614431665 8.672359338950555
Hf 11.784341493228183 11.806116917269673 8.004347865188336
Hf 10.917636757177485 8.971486586809755 8.500958902283443
Hf 13.562866610652796 9.79422851688075 7.351154104593218
