40
Energy = -343.39036192 eV
Hf 16.366885894677758 11.996751134822919 11.399473924813725
Hf 15.796517940065993 15.01807338085007 11.841885208350636
Hf 15.115437414572453 13.492286003662212 9.526849237685958
Hf 15.373044588274343 10.269647655349765 13.286115641572751
Hf 15.909083766359883 12.781484149399622 14.231288272062384
Hf 14.954333590315507 15.317163718079943 14.586028836660732
Hf 12.630455434102622 13.255865779412158 8.168922035486304
Hf 13.124597003433632 15.525997868276308 9.98375067097258
Hf 13.763681027917128 10.932271610556832 10.082365096151797
Hf 13.725761680463137 13.132855349593758 12.326519826213941
Hf 12.2316791044459 10.451362736509171 7.322723220299652
Hf 13.25020519240006 16.326340881655835 12.72655953981343
Hf 15.175178856627008 8.605112779320311 11.138990297800106
Hf 13.842175302422648 8.430831897843063 8.696507965118641
Hf 13.521624957586617 10.862454297192818 15.240890420714724
Hf 10.529587398657643 15.115370826564003 8.586948978838103
Hf 12.581591924152423 13.64323746977178 15.116816872283335
Hf 11.176269390459549 13.57431650994194 10.94880054738903
Hf 9.82616854633474 12.474253813118375 7.655816274663039
Hf 12.477041213390068 16.41891543902862 15.553182978477068
Hf 9.521826358896652 9.721383957030888 7.251371659896544
Hf 13.735235938069064 7.974957238225835 13.833304758402106
Hf 11.057936198044326 8.033936782078609 8.669132406426122
Hf 10.741288315512373 10.73889813803186 9.84418579157079
Hf 12.493220759894177 7.424659229104799 11.066593974558561
Hf 11.950958573987918 9.868254528689036 12.68063887642426
Hf 10.50705673686319 11.337405638584505 16.25246544961018
Hf 10.746321762726728 15.404296384654335 13.536180598097573
Hf 10.530066792674058 12.237441773727307 13.532689299919985
Hf 10.000165382565179 16.164706869847066 11.002475498197526
Hf 8.399421618815781 13.554447254262309 9.994448772963368
Hf 9.443199254674255 8.507072797752828 11.271897475389492
Hf 7.892298791358272 10.712998387871252 9.202043183352103
Hf 11.597636515196083 8.810856040408439 15.542196370623989
Hf 10.936378576977281 7.23116979297021 13.437467967962839
Hf 9.67587733767399 14.033670539370803 15.647932394782105
Hf 9.12310093342542 9.379201414673124 14.175813527650694
Hf 8.30664275651497 14.14982552301753 12.926096926385883
Hf 8.269879746908439 11.192912758005177 11.95403508515251
Hf 7.989997796713581 11.90369554381822 14.816732347207623
