43
Energy = -373.01631103 eV
Hf 15.9792195249638 9.940065252204832 10.382293253870063
Hf 16.168624931451895 8.416993463155244 12.890786008128705
Hf 13.494262299579061 8.937520758517707 8.659102506549612
Hf 17.577534112940732 10.810042742450575 12.693779005487436
Hf 13.731868611572397 8.175038039024468 11.362411478253737
Hf 14.77412419433797 12.358573506151563 8.144871881829271
Hf 10.75501052722674 8.765173572739586 7.570144982536392
Hf 12.358537846860386 10.96943080492732 7.2006303908133935
Hf 10.881809909878063 7.329673252243721 10.111658403194749
Hf 16.028394113401585 10.386728087618883 15.2612797263711
Hf 16.12155543500935 12.907545323697702 10.995026271607127
Hf 13.432611843365216 11.567503999439007 10.224463136005317
Hf 13.630254600540425 8.338160246951201 14.4043328068433
Hf 14.72955652537437 10.923764489883155 12.957086102902027
Hf 11.4471873272449 7.382643824745741 12.924891342646195
Hf 16.650178598719233 13.004030136552506 13.961323548339852
Hf 11.006710861404388 10.143599558362979 10.134464359190416
Hf 8.594865716083818 8.8761589766669 9.247677830278326
Hf 13.883085012379853 14.65810244754034 10.023839221673715
Hf 11.897766785261814 13.476820831150164 8.207346168342816
Hf 9.52309832455285 11.442472857423631 7.943663402663428
Hf 10.424605377251249 9.334523748129097 14.990670506520331
Hf 10.463846677389183 13.087822934496543 10.876068554371288
Hf 11.105136877297406 15.769281678412318 9.674906658548664
Hf 8.054236294080187 11.413058016645259 10.461603816981151
Hf 9.107525853330744 8.744363770004757 12.14395315438497
Hf 12.799653715331909 13.233118525529635 12.706619520900553
Hf 13.068654529471194 10.50656414888596 15.877175865537351
Hf 8.608143884045067 14.247395286409002 9.302382246014188
Hf 14.985595972167348 14.953562159291868 12.864825653946605
Hf 9.05174533726617 11.485690996208797 13.177277351438114
Hf 11.83236927912341 10.38264473614296 13.027721752508208
Hf 12.324143419613222 16.22914143244734 12.156550076931772
Hf 14.240504187740887 13.005057861328654 15.43799251545938
Hf 10.085676048799236 14.49028613790609 13.419277416730337
Hf 8.936586250241513 16.35224308397903 11.477995266642973
Hf 7.402067075185899 13.903205193921954 12.166435859319973
Hf 11.07057160628289 12.506539126420343 15.348327377210257
Hf 12.544531571920297 15.330723813085877 14.819116163195165
Hf 8.021365507948657 13.333316698187891 15.087708927913985
Hf 10.358851748664488 17.298186856158747 14.087213732682017
Hf 7.803826787202352 16.026978340513992 14.123051842409724
Hf 9.796329732665846 15.320354556764464 16.1057657448243
