41
Energy = -353.1665899 eV
Hf 9.609787554334092 15.936085172028902 11.437809500015037
Hf 9.289674634653638 10.929125881304651 9.813985291345842
Hf 9.706861061480332 8.40272947431229 8.463361485853538
Hf 11.16339393646287 13.187517321673658 9.311510308175336
Hf 8.248772709818297 13.592709462621174 10.27065848260933
Hf 11.847286588772388 10.317806646433057 8.015369256223687
Hf 13.94222948091903 12.352203036584799 8.404709666638395
Hf 12.373325664808318 15.811396013046304 10.377964920610204
Hf 15.087384995232052 14.777394992655688 9.458654583207494
Hf 12.008757528900956 17.370061631218345 12.878508236765514
Hf 9.943816836456808 8.327874114456698 11.382083135508234
Hf 10.444978317464754 13.245382551696478 12.180035050457583
Hf 7.9399885151944165 11.579511560903777 12.339884780246996
Hf 7.818272504336066 14.29309203605183 12.965470139078274
Hf 14.327758949168837 9.80816849934692 9.518209488731664
Hf 11.861543306373258 10.656042042757749 10.967955215411854
Hf 12.165976504403675 7.9072443093954465 9.565163617303956
Hf 16.198618880371875 12.143850267681236 10.353833648765395
Hf 13.55744250645388 13.105045018071698 11.175063905396128
Hf 14.734835063572865 16.41052300163973 11.88623061473389
Hf 16.975804050506092 14.596574586673851 11.526781375266074
Hf 12.808656435205656 14.866274099681815 13.803927922609022
Hf 14.802789914494173 10.338691011727535 12.386446964944277
Hf 14.385586606388639 17.26599537204512 14.600460015649093
Hf 16.64077180087421 15.439064938427665 14.237997226064472
Hf 15.161999704208357 13.091379108888537 13.528011122095357
Hf 9.865355822134767 15.502093422234502 14.448302526783339
Hf 12.655979695778317 8.305464672592061 12.457344947159712
Hf 12.53405623773077 11.811218644045526 13.970991607832381
Hf 12.021515707411313 16.665770887779956 15.856103399332053
Hf 9.235535501087071 12.609459956322217 14.90197443372727
Hf 17.801637801835703 12.593636742724483 13.447203002513454
Hf 16.123011697608757 10.681035268125827 14.97568268286208
Hf 14.412242114318047 14.991459437614434 16.380249163806734
Hf 10.261188157694201 10.174304680165914 13.51291717992332
Hf 16.684769146970183 13.160751584823085 16.03424625745621
Hf 11.543315378108383 13.809064155995392 16.372596656892195
Hf 13.45480081234298 9.27412648176255 15.099476032321721
Hf 14.014373520663352 11.994293384460235 16.5061502184284
Hf 11.251718028469886 10.636165584922669 16.27232084495553
Hf 10.942874399894805 7.844807898206957 14.757980831785213
