42
Energy = -364.19235993 eV
Hf 11.95143611009467 16.115411801671257 8.324011460557523
Hf 15.712821343215666 8.645497317762425 14.159610517049927
Hf 12.33747309381332 11.131950743025362 13.433164314452094
Hf 17.75773569142261 10.408220313224465 12.997531027169414
Hf 13.828398184941987 12.367614163055972 10.89091613327141
Hf 8.001028643692994 14.244814287110435 10.360405446985345
Hf 8.628245348377089 12.857526822276016 7.8722006902201835
Hf 15.141550589141021 14.51381504819259 12.504964963751966
Hf 13.020232436721196 15.967947054752116 14.216491982661024
Hf 7.8401546401121065 9.936179337564752 12.648224680378132
Hf 15.941400737714945 13.22471283520412 16.955298914050765
Hf 10.309258247014888 16.123852444557617 10.867602011409948
Hf 13.897112566166165 14.101982200433909 8.437714526056366
Hf 11.87987957261535 13.907379139407151 12.656172117215593
Hf 11.569513866837237 11.074297657255501 16.337070949517138
Hf 10.27130721314238 10.704066691323593 8.363226418386104
Hf 9.370827622332996 15.44615802888474 8.156716773839259
Hf 13.818211658139916 13.324149833083649 15.086746847581795
Hf 11.195688409356592 13.568687069217134 9.587077427173758
Hf 14.47696898318452 10.550683371522393 16.684795512493277
Hf 9.09491210066724 14.503057468100922 13.12478037027387
Hf 12.87650159739915 8.746036892576925 15.185982297197626
Hf 15.515392930345644 9.711731226842694 11.23114870947629
Hf 15.764755322632201 15.549403188401254 15.08872123366828
Hf 13.300121542678955 8.348643216589451 12.537807542602343
Hf 17.139645290136972 10.783403024963006 15.713981944671001
Hf 9.398550376055601 8.956891902352908 10.48175885194802
Hf 10.500127965143777 9.19759964558688 13.249698347584841
Hf 9.78599313181378 11.74892081435163 11.501583858055032
Hf 16.714648513850506 12.381451114768918 11.244800839299513
Hf 9.433021891822925 11.93064227999307 14.386222071558011
Hf 13.179580826775583 15.783591807149744 10.78635669942974
Hf 11.187558811465877 14.049786162057769 15.87784616740684
Hf 7.162291045461974 12.577819617192302 12.545737773476421
Hf 15.216622773432968 11.37393437144021 13.580431697654337
Hf 13.728761176061731 15.374347699179538 16.99450064642437
Hf 12.16144602522649 10.011772105750554 10.498126695777561
Hf 13.112469805932609 12.807709544117364 17.878265291744803
Hf 13.052358827478214 11.505597325035415 8.174979856562729
Hf 17.398272088333357 13.234161129630943 14.085984264277414
Hf 7.471146035656414 11.161548722941792 9.961640066797026
Hf 11.330298305088203 13.564799585559033 6.814639625701851
