47
Energy = -408.6793217 eV
Hf 7.489782530335715 14.716776627307743 11.0933288609757
Hf 10.099581805956598 14.99386707854175 9.875290005041961
Hf 8.991276625650354 16.727654265701982 12.067646468401712
Hf 8.670123506610015 12.27431325103202 10.111511745064666
Hf 7.721329086605312 14.888528808668195 14.165575908146598
Hf 7.060161904156889 12.506495545778831 12.577337807696157
Hf 11.970354675175354 16.371525698207456 11.969389995289745
Hf 14.282513048903676 18.059574298370695 11.279513959156487
Hf 9.83222712244271 13.943047927693604 12.750464750260535
Hf 11.371457978815485 11.987043252539289 8.790405170712242
Hf 13.917169850579167 15.476706942419339 9.704642349436288
Hf 13.68280184177112 17.7670306311953 13.979549456333258
Hf 10.299924893400428 16.330834868779277 14.479937238843428
Hf 8.02622644758948 9.90459629276383 12.101375146558842
Hf 10.32236710268145 13.748440441118644 15.866058476844659
Hf 16.403790657514136 16.761354907624725 10.23876156585839
Hf 12.257125767635143 13.499123012480666 11.153576441914147
Hf 14.166722389296325 12.385904218839462 8.971114583271476
Hf 16.6603929256337 17.617184710306525 13.194738404482488
Hf 15.044642982134027 15.473907290283648 12.59171435741057
Hf 13.155448808911755 9.620679919294872 8.36663882393523
Hf 8.657560782250819 11.646426654793167 14.718127983674675
Hf 10.355504363462531 9.510331389341014 9.520170041036243
Hf 16.50759286321251 13.867755991796196 9.971338648597413
Hf 13.07455870498863 10.491649027413866 10.915596967876523
Hf 12.789246261708033 15.047708220359139 14.776713105064685
Hf 10.431866776261911 11.045097212044702 12.243696085773323
Hf 15.272029120415999 16.16649648879115 15.571557896633342
Hf 14.743662025495825 12.646200196801736 12.152347221484659
Hf 18.066877213996875 15.333279028358138 11.882250648583259
Hf 9.813918058456386 8.785315005937617 14.437100893293106
Hf 12.449490471697708 12.227636688257675 14.113579271323346
Hf 11.092529944085369 10.737815594324703 16.27790603652923
Hf 10.052941730612325 7.880562177536262 11.840462843319823
Hf 17.462638283666085 15.003793859384356 14.498829561580623
Hf 12.950944485376283 12.968680352805709 16.830746340239692
Hf 15.347022658873032 13.114513434272489 15.10468587790475
Hf 17.46859882068824 12.664720366598816 12.683783776576709
Hf 12.352442014357486 7.6103255651162165 10.471338948736696
Hf 15.992903045373657 10.723180741577696 10.529387466398997
Hf 12.675701570897091 9.326034128662721 13.494051114374068
Hf 14.090743069717094 10.369470719555311 16.030279089061743
Hf 12.224267999918387 8.060720465999928 16.025363390760635
Hf 12.25832932710997 6.631359455467103 13.390506774422349
Hf 15.677026540608198 10.161238559627963 13.420044795625014
Hf 14.790255716091577 7.921449610062977 11.815345349505995
Hf 14.68497759530159 7.766467475583662 14.704704970303611
