46
Energy = -399.59854661 eV
Hf 17.190663431299683 13.94261992304383 11.188975544241483
Hf 16.01418614272519 15.617696241365158 9.144855816388187
Hf 15.533581338365273 11.73322159086455 12.019032168867122
Hf 15.901123472194042 12.668346266403095 8.852117297656395
Hf 17.281511571459784 10.592933985170175 10.393817770205363
Hf 14.972454044185184 8.9925809298636 12.182830314295096
Hf 15.655686254035018 16.482074400427916 11.896586084807089
Hf 16.568577204151993 12.282935175886044 15.06762405376631
Hf 17.233653186692116 15.10197003245812 13.993030058241867
Hf 13.806295050580049 14.626208325865182 7.853036410228623
Hf 14.095784481576251 10.671642992980741 14.435997741273072
Hf 14.19382619445672 14.103644186484393 10.725603733628736
Hf 12.714724183181351 10.961403705932018 11.680130326893154
Hf 12.605941926353328 12.266224351416783 8.905113028513448
Hf 14.526482482875293 10.054907653658963 9.591339566263597
Hf 14.919376366823316 16.769873644456535 14.67388181661816
Hf 15.718231478003956 14.723770428605695 16.38014325704326
Hf 12.628751350827685 16.11367116448984 12.946325656214835
Hf 13.31548131258403 16.765691953157393 9.828011162914459
Hf 13.122266672290918 7.766489925612838 14.272482019149745
Hf 14.636423938755176 13.9855150787951 13.809767392193729
Hf 13.91949023133131 12.60429726830106 16.52425515582173
Hf 11.34413321903064 14.050946984847995 11.121664789444734
Hf 10.596054761370903 16.76266457699671 10.972423011435373
Hf 11.880379957202686 12.899469978762928 13.870128314033481
Hf 12.336008456146827 9.73204939122603 16.56838745917396
Hf 12.332184343551566 7.97181367283182 11.353121104059817
Hf 10.586368604985957 6.802062715452038 13.27140964301421
Hf 11.088833196341445 15.244355952799522 8.539843141157142
Hf 12.75176207825669 15.135660128112239 15.753572668027527
Hf 9.709562527051682 12.414908041666651 8.413840967477544
Hf 11.011393888292918 12.364826202353324 16.50034622328347
Hf 10.951794512122719 9.733800208960607 13.888567771086285
Hf 10.621173453673348 7.570607752504463 15.873376895177735
Hf 9.612716597519594 11.692837208718316 11.301424808827804
Hf 9.688358080592332 14.980525897735196 13.257574548603944
Hf 8.62907000094874 14.819489856839485 10.280239081937365
Hf 11.048781516862167 9.83490379410376 9.229080890111476
Hf 9.42342634038767 10.029941161754998 16.44907205288
Hf 9.391630053796842 8.542684363855349 11.359496630669613
Hf 8.98871202825251 11.969712554602797 14.28694465482749
Hf 7.074328272347366 12.447464602323006 9.842995156508103
Hf 8.194693713667501 10.065393565615318 9.259235471754911
Hf 8.399776678107267 8.50687748085566 14.168141003374856
Hf 7.159377767627992 10.506754195072542 12.025957260968031
Hf 7.3781372672237255 13.411955855459919 12.42049602295286
