49
Energy = -427.26638107 eV
Hf 15.295202023832449 16.66808154525497 10.112873551220412
Hf 12.892049485937706 17.503696682833862 11.733812932201015
Hf 14.617018602602124 16.740713574546312 13.73129722080062
Hf 16.82258902244342 14.04962879174801 9.833079811847178
Hf 14.525365067930654 14.453727014959936 8.147988246874792
Hf 12.394208858809185 16.337340764308294 9.13742680703158
Hf 18.15304829247187 11.586285872077571 11.363656259228112
Hf 17.179104041055464 14.287664782755598 12.506283260063771
Hf 14.312337438667326 14.689450935022933 11.548541879538922
Hf 13.351832774053838 15.386654018440167 16.20792570739763
Hf 16.0741562334926 11.612158491652634 8.588695457689315
Hf 11.834082108326362 17.55687515698331 14.53954176945064
Hf 10.142020809920371 16.819971390199335 11.474551972750346
Hf 15.110483038361679 13.959103584912521 14.384301079423636
Hf 11.587780310526334 13.713374766120895 7.692452667185153
Hf 9.594425123655917 15.367299323099534 8.954519945693235
Hf 11.996018574669955 15.141909973718946 13.519291255766827
Hf 13.738291818060636 11.743030421000606 6.9759181727103226
Hf 15.514751473846715 11.813243635610881 11.688684303084274
Hf 13.337057587801251 12.260026057240598 9.70021937155357
Hf 13.020188108448341 12.376905443988061 12.977845855123283
Hf 11.294120628452534 14.189254526346325 10.829454105361222
Hf 17.20606978201108 11.940857149566567 14.187268854225959
Hf 16.404829875178265 9.320893699131583 10.338879169194678
Hf 8.333313704955762 14.478998641240944 11.323164876296453
Hf 13.78503627614732 9.54560127453039 9.040801545765355
Hf 16.756333994167097 9.485797646037355 13.032932313670186
Hf 11.77123777323616 12.70334803242135 15.580263115215978
Hf 9.450923293224438 12.386649832648423 9.61460844468519
Hf 14.561883524383555 12.65244243284123 16.784337228998144
Hf 11.377777352083847 10.41019695427706 10.908371641302438
Hf 8.88036616974956 15.136780135111676 13.95899979255458
Hf 10.579125073709479 15.429469123747115 16.33373902963473
Hf 11.340832197761927 10.78424351588781 8.026900235392299
Hf 12.120956422596597 13.341205484382987 18.1929548900525
Hf 14.53403487457286 10.470068840176465 14.80261995519922
Hf 13.885572447589595 9.232580133029725 12.162977523819718
Hf 10.015655758942184 12.394299875972115 12.869325173990475
Hf 7.372485818973868 12.599424742605452 13.586682470700714
Hf 11.463157491087607 10.046120934957662 14.105096355671579
Hf 8.945995125772065 9.693096782853482 12.341081287912324
Hf 12.883697527269769 10.557438663240022 17.452478645850423
Hf 11.314649268183665 7.769429376301245 12.057515950573864
Hf 8.704437159789556 13.187094146061767 16.000762324465676
Hf 10.118865888771769 11.264992498315424 17.613972335420115
Hf 12.772478495608885 7.650737487501496 14.605070916507623
Hf 8.630578052023607 10.35622001553486 15.21869703373657
Hf 9.788181691607788 7.735944500954389 14.375804709975233
Hf 10.841184148347514 8.699970253018401 16.685472214776944
