47
Energy = -409.27711675 eV
Hf 11.55742819274453 16.79758057970449 13.886951784124959
Hf 9.189768660330769 15.367363182234948 14.575247572630564
Hf 12.831610562937017 16.437994174036156 11.356694566987416
Hf 11.836822883299341 14.881469706213192 15.935077412085114
Hf 9.40864339123777 13.597490054627512 16.77850697480217
Hf 7.248257065662446 12.39326566383253 15.124994487160869
Hf 9.887588039873727 15.772470578640464 11.802020634485336
Hf 14.192017098748853 15.786958429648015 14.017530066710552
Hf 14.425406335920181 15.389771709465856 8.810850720969908
Hf 15.523876549399308 15.750176316750167 11.401077174135725
Hf 11.320684928818707 14.931288849084313 9.287094469702955
Hf 12.192727612918832 13.984780510902143 13.101782356412322
Hf 7.544564732415355 13.96309675200607 12.256015872698088
Hf 8.44582219669706 14.762528038497253 9.5698319915727
Hf 15.999763550851478 13.438058699664579 12.983065420245765
Hf 14.146612852604338 13.012336478008965 15.264269676079744
Hf 11.8258392466931 11.950014184441518 16.452695358454758
Hf 16.620450125070516 13.531582984534129 10.15937341570412
Hf 13.76782523915034 13.305682478432908 10.631169481775089
Hf 9.717883483413651 12.487247434153003 14.060304847862419
Hf 15.45088745629808 12.904510397453539 7.8166166204854575
Hf 9.674554612541638 12.829142495617255 7.887914882208308
Hf 10.001976411442019 12.665766178360197 10.975901996238457
Hf 9.190935410184606 10.915873280409027 16.691234109362174
Hf 7.449352959849046 12.195877263786928 9.771267104620582
Hf 12.656199336168665 13.032318190985523 7.656040824280041
Hf 16.94407786668751 10.649157256433746 12.066123029533072
Hf 16.46089293560842 11.35047171700591 14.867616889855933
Hf 14.08986910721164 9.996817092548389 15.836216004175085
Hf 11.944225945860081 10.68065675934064 9.638863469069934
Hf 14.25282470413035 10.832940405137887 12.942750586299901
Hf 15.05202467645592 10.728023311595734 9.757347856317635
Hf 11.413842024817397 10.290357814520425 13.203962016973266
Hf 14.048703519925185 10.64070061661826 7.057146504839918
Hf 11.176724545184857 9.011684128537873 15.807388209858962
Hf 8.532314608564645 9.558736618804264 14.337864351876338
Hf 7.329901794499244 11.230174446937482 12.44064402275678
Hf 11.31345737357863 10.134283418756803 6.849541656382747
Hf 8.995274679622732 10.185114850604702 8.49401959641752
Hf 16.043327522102278 8.756387268296791 14.080571215286838
Hf 13.375696028365612 8.393918065306734 8.443513483008742
Hf 13.28283214004 7.858585564367792 13.919220701762413
Hf 15.078774948519804 8.37010137621298 11.474224908286999
Hf 10.428118376888394 7.6081942114011705 13.404271384963932
Hf 9.400063385605101 9.466696373727 11.271842548781795
Hf 12.243547209585559 8.196635490072369 11.214651432119341
Hf 10.64561136984591 8.070183246041045 8.79072000684961
