47
Energy = -409.56553338 eV
Hf 7.764830235479694 16.38005885762251 10.472830284818615
Hf 8.608635123267113 13.986800363375893 8.793865669192249
Hf 6.800471154930763 13.956423132188027 11.15709061724974
Hf 10.221542884205672 16.55571144913781 9.204023624243092
Hf 7.901935146669119 15.633793609869038 13.272365598109774
Hf 9.997963450258245 17.338056086767192 11.968243556883602
Hf 8.29144916255269 11.62054285892989 11.05222734469897
Hf 11.74559135607352 14.136483006988033 8.797755927522958
Hf 9.824910661649477 14.446640546618983 11.224067226818548
Hf 7.246609937185102 12.75768446579301 13.757945084100589
Hf 10.55796257066839 11.698417510268625 9.210570969857734
Hf 12.45886219011792 16.065712686203465 11.076749120359613
Hf 8.916093153494563 14.40485916512476 15.644071260148555
Hf 8.60324432200278 10.161100039061894 13.563566842786008
Hf 10.169356450467856 12.64035175931975 13.597717220683364
Hf 14.693467259556922 14.288377703115914 10.10650999408535
Hf 13.590844949052775 11.508154777062733 9.01723835360352
Hf 11.245272472161822 15.508155073929872 14.050297649420573
Hf 12.414009492697193 12.769469016990842 11.370450984834074
Hf 15.272436594631463 16.78143354853571 11.545107291378772
Hf 10.840800622605757 10.248717896154648 11.679392888312648
Hf 8.900674804016697 11.613087234220917 15.959713433128957
Hf 13.4568574059014 17.282934099406397 13.675591913512106
Hf 11.332351640612199 10.178701291487393 14.71657276975482
Hf 11.424808979400497 13.185748916639826 16.305809749412507
Hf 13.967194869704858 14.579102887740017 13.10488774617307
Hf 12.840792018606507 8.753259832852509 10.177533516188385
Hf 16.22311250374958 16.117050670019715 14.180156512374777
Hf 13.757203089812434 15.360862634677211 15.950584770055269
Hf 17.27383183930541 14.673933949923684 11.596874095333643
Hf 16.47598877366214 12.063748068323623 10.238850701368781
Hf 13.635154372236979 12.102005196507458 14.86356560918262
Hf 15.424360613621985 9.370069881375624 9.574111698381516
Hf 12.346290105333605 8.115272833479603 12.866257110868387
Hf 14.029398223116115 13.021121346083047 17.673945870785264
Hf 14.219337018161488 10.465217212130108 12.151580563322245
Hf 16.13075672781295 12.597738929735694 13.454474730388016
Hf 12.793495830587803 10.601487768688191 17.145421134649897
Hf 16.33180718753509 13.894559842221696 16.248553839286178
Hf 18.414278544368408 14.234898401275741 14.17815263867181
Hf 15.08755066914361 7.8021898981123865 12.102197246719477
Hf 18.61136631169943 11.994037074056292 12.431943653714216
Hf 17.24513239103502 9.637072377915489 11.487835170476819
Hf 14.085852693526611 8.954518918013397 14.993578052266978
Hf 15.737599386022739 10.923584927300427 16.663552708875393
Hf 16.732336611667158 9.602325174190486 14.167470717128142
Hf 18.218222181626988 11.775269573980705 15.379233514971611
