43
Energy = -373.13360716 eV
Hf 16.504778770148953 13.793157678800972 14.793791290285768
Hf 16.260666596214715 13.723740263422945 11.811590445457727
Hf 17.018979497416098 11.457521049241123 13.531100246473235
Hf 15.415928703060656 11.342966666321574 15.996621816305197
Hf 16.025736678715305 10.905360268091531 10.92937810964807
Hf 14.022000816292838 14.16719065150104 16.1045149618494
Hf 15.170384744288034 8.13480892510577 10.960198636394486
Hf 14.822300751069534 15.776734019590467 13.63985071885461
Hf 15.222056240018315 9.261934332932105 13.560546592942867
Hf 14.220510525027462 15.585787696468259 10.677411192315525
Hf 14.174781202782345 12.2700247314531 13.736879825088122
Hf 12.791927217685297 9.715334010011782 11.702753239475225
Hf 13.461630130669018 12.61248610778252 10.908823446122426
Hf 12.515460634442778 11.761970337308814 16.506462771973826
Hf 14.096850588424262 9.94700704842364 8.91899706341345
Hf 15.201701625278378 12.956273036679443 8.974362442676759
Hf 12.61327078588612 16.539013196746637 15.291038182495308
Hf 12.846848170416495 9.593122577365826 14.867629066339727
Hf 11.021579854702333 14.105600931156964 15.937538978537802
Hf 13.019300204535533 7.153065798518892 12.733862177147016
Hf 12.882867199178415 7.396605359234557 9.768200972030767
Hf 12.74203485383481 14.42458790438971 8.467804167605655
Hf 10.395665464338059 7.2564245238182234 11.004493707878542
Hf 11.251391133783764 11.746520384923635 13.57673436689383
Hf 11.800306168324717 11.832534922224488 8.462429082442242
Hf 12.048004481646531 14.714751369397334 13.039659226026403
Hf 11.052401068188727 9.083344264668057 8.311255898492558
Hf 10.68769618453895 13.291965240844435 10.951142785610344
Hf 11.55405175185284 16.2450656608125 10.027701678489281
Hf 9.695403142905002 11.266046528581988 15.738737758401205
Hf 10.335579561114207 8.901637897723935 13.520917131712169
Hf 9.963933710651595 10.256330582097961 10.827217793517029
Hf 12.275213090724403 17.427160995798047 12.587702336022467
Hf 10.03838346537257 16.42066850814443 14.347636837246414
Hf 9.080135696682852 13.786250904973944 13.55363570834566
Hf 7.969166654241457 8.377407176740263 11.97211225431079
Hf 9.768556780385824 14.302935290597175 8.645599030792896
Hf 8.39809137006356 8.43216649758684 9.11742465591986
Hf 8.849991591098414 11.304617187133061 8.357948871074774
Hf 9.406073929980032 15.86400775794906 11.58601927144025
Hf 8.184879800723236 11.070197231552871 13.11174520655917
Hf 7.866565309806898 13.07279387894149 10.741157604313807
Hf 6.9852479838925685 10.45354425062579 10.395106761937559
