48
Energy = -418.44524377 eV
Hf 17.070131391206044 11.628605971748174 10.685109934438026
Hf 17.25359416977784 10.958296657869592 13.661191847591223
Hf 15.645971765919422 9.705537888266482 8.738881610683766
Hf 17.322414895929217 13.757694653548837 12.796264791023535
Hf 15.684441768749437 12.56449721849866 8.252046940384513
Hf 15.606567666382498 9.360459806025768 11.738540235822727
Hf 14.116258353399283 6.794412969674626 11.497957085162945
Hf 16.374170087797893 13.03827379214035 15.461005483646671
Hf 13.419922857694809 11.081814558447224 7.4395799368878
Hf 15.719938417612433 14.355192344109117 10.507642532427413
Hf 14.555333524515826 10.650141102482985 15.282233280387233
Hf 14.90237747977044 12.17492819393748 12.734548696105339
Hf 12.781445325585354 8.739611674914718 9.31795450874868
Hf 14.693512718882067 7.900030549047797 14.153100574389507
Hf 13.95081900667635 11.334521682898973 10.24272177609405
Hf 11.291740672796182 6.840245279354501 11.108979594297509
Hf 12.276314325610818 6.492734205917544 13.72859634118167
Hf 14.907357250456867 15.500052516054112 13.165555113958035
Hf 13.086554928814243 13.88378903240095 8.831341227420182
Hf 12.669806765876904 9.04841081967659 12.344138431259672
Hf 11.790645967841852 11.315027489877325 13.62650175155171
Hf 13.429215025271727 13.488668655870173 14.8510945589614
Hf 13.678105324525207 16.38328842571806 10.418908497955188
Hf 10.686277403798423 10.543766152028386 8.124534796666449
Hf 14.735016092250296 15.535515580680642 16.3323207596112
Hf 12.566937967846926 14.279589215598131 11.962689194312324
Hf 11.113860278306756 12.16534118453571 10.522700540975112
Hf 14.405527769943266 12.887707929170679 17.468235172386056
Hf 12.119264234686932 8.790462207752618 15.498483519676503
Hf 10.221217849004557 13.422582852009123 8.005860261204502
Hf 10.942864353086643 15.819802342188124 9.519016376237154
Hf 9.993538049084163 8.29903637786635 13.443930247863893
Hf 10.050278160393457 9.374301833600809 10.65292759292303
Hf 11.871748634329057 11.673026063107974 16.709786966787565
Hf 11.457795975633356 17.11285923095997 12.134597237104156
Hf 8.43428453811364 11.763803887445077 9.55359418279084
Hf 12.327164832327131 16.15227157934848 14.675765332851373
Hf 10.371037892894675 13.513626774720786 14.828336824499377
Hf 12.10004019992429 14.619108890058337 17.117323408202726
Hf 8.887195516151984 11.28578084856052 12.692990045443837
Hf 9.414006858744292 14.242923473635223 11.936648010445193
Hf 9.638454008476842 10.537741101531642 15.338194007942993
Hf 7.962080223589152 14.775424457058728 9.51561599242674
Hf 8.924538929103058 17.082891797481977 11.08329759501429
Hf 9.16946137974727 16.282109520516823 13.982247994565785
Hf 6.718119056762442 12.961499741434674 11.56445684923924
Hf 7.615577275189435 13.667685234199853 14.162597596827775
Hf 6.887420339208748 15.634727109550559 12.198963093511866
