42
Energy = -363.82393962 eV
Hf 16.880367427809198 9.178285460964444 10.669397275912209
Hf 17.248599306334256 10.240173074812144 13.549513696007457
Hf 17.919045044474206 11.858191958140031 11.188010711352872
Hf 15.461785998236433 7.968741633272909 13.057188049566177
Hf 14.54256056171679 7.208198345607876 10.534338256723935
Hf 13.853863544819745 9.917211368721944 14.585799874697816
Hf 14.68552057510745 9.233266689755768 8.510320498608614
Hf 15.796083987893114 11.864493835427206 9.231219088137635
Hf 17.565076575772476 13.266718927486204 13.606561876654458
Hf 15.355358804606484 12.251344169161664 15.430395060822024
Hf 14.232525854249527 9.87096836392853 11.201681806753548
Hf 10.875690495379306 10.022892389485175 14.600727752383513
Hf 12.556043560512974 8.013506109520415 12.700020050977505
Hf 15.366252064991494 12.024325498977172 12.57534954305854
Hf 13.976992476465666 14.552963873832086 16.28689614998787
Hf 16.214672955813036 14.302037159811412 10.957347561474354
Hf 12.697127173626649 11.926915664710142 16.89335317579869
Hf 12.003033492357073 8.74521173487069 9.77836142277511
Hf 12.54285265089355 12.778639340147679 14.333321621790155
Hf 12.794440513354218 11.417579303075085 8.742851161399155
Hf 13.967156582355464 14.16988995422214 8.794012269192095
Hf 9.30120250357573 9.563635855179644 12.149897613569102
Hf 14.977965044851805 14.794298107708318 13.572750643569973
Hf 9.902146024879231 12.098342340766123 16.072861235936692
Hf 13.342486945244435 13.319193481454828 11.335129219805093
Hf 11.823749802707908 10.82214330534233 11.959565283265729
Hf 11.138758897179253 14.641157876091773 16.330316901890715
Hf 9.554047456921095 12.43993975958077 12.692977718136905
Hf 9.739853364069445 11.248836346896546 9.868915180150603
Hf 7.650134147736375 11.281084533209148 14.327627541605407
Hf 7.239113921873722 11.36808887356291 11.369327789731052
Hf 12.70769512720991 16.52491972031053 14.434079151684411
Hf 11.15287672397791 13.79254460411061 9.73504348450182
Hf 13.023369207525215 16.11627855274049 11.144380191685848
Hf 10.926048342203774 14.948184939348224 12.767802659766925
Hf 8.443378157502027 14.273585019532055 15.02237004518011
Hf 9.890445057548119 16.80548369096951 14.885497050532843
Hf 8.221379434206746 14.003220148248463 10.363792066006582
Hf 6.767116700747101 13.640040940402155 12.827199228363547
Hf 10.869460924053216 17.76170019908752 12.444379389162902
Hf 10.076834460771279 16.32933586229496 10.226173957244335
Hf 8.263630653329354 16.11830371716375 12.534938505567968
