43
Energy = -372.42023859 eV
Hf 10.95212092915908 9.764683272086167 16.46667831227103
Hf 10.780685733433744 12.397954388158535 17.500051378508314
Hf 9.118217086371297 8.735952829483843 14.284846890899148
Hf 8.398069854131426 11.320095409933474 15.919312061977594
Hf 14.901704775622926 8.943808443759997 14.798097093967272
Hf 6.781332052936869 10.48235962671744 13.552462650274375
Hf 13.542984740245194 11.584454860537175 16.121657894845328
Hf 9.357169919167939 14.194722600308953 15.749531955647774
Hf 12.1741088778879 9.439182071062154 13.931914089511134
Hf 7.91363789503506 9.100194086704871 11.32400363345399
Hf 10.92187249222646 8.697197968844057 11.39505778526672
Hf 10.985470840085481 12.069219766902576 14.75395033090341
Hf 12.256378167062037 14.541300184630488 16.066041146230983
Hf 16.570138969786793 11.228429365106281 15.260935532054317
Hf 7.574423210336349 13.153430418258598 13.769069295580419
Hf 9.459791280789128 10.890053891231593 12.605324287400837
Hf 16.84224962457573 9.749247001757107 12.600055340797393
Hf 14.070405490084804 8.607104798405352 11.915845661677931
Hf 14.55320999890872 11.361661578471967 13.395638422255935
Hf 7.357235197051622 12.019175969297715 11.042086607165865
Hf 10.7088552887965 15.782872478189956 13.550003428004548
Hf 15.844380373546802 9.263641550934219 9.844907394890885
Hf 12.898199192370113 13.674485272716442 13.49702584422794
Hf 15.413011013430097 13.84456097713762 14.912691017629776
Hf 12.093038895513084 11.394982156130379 11.365190208715406
Hf 9.848627706283233 13.470624457568933 11.947926143112204
Hf 13.112068834534215 9.745548715569479 9.201809558984033
Hf 9.81772684135316 10.793835362925304 9.676426048872997
Hf 14.815227977351938 12.022999134696287 10.57810248118331
Hf 17.21399321281567 12.733774836359986 12.727652374976909
Hf 13.444463160071768 16.539965491854222 13.190198196825369
Hf 17.674798309593022 11.26004881202093 10.181039245867366
Hf 12.227782221584771 14.717436846721101 10.87284920903176
Hf 9.45581848705646 15.910741189716191 10.522122287024496
Hf 15.201294258292746 14.71652874880827 11.914135211055859
Hf 11.525023317852606 17.56308292989922 11.258835993917053
Hf 9.887008825261175 13.690732018691516 8.979722506492203
Hf 15.679318400209468 11.682069465372534 8.057265881528645
Hf 12.460559198847834 12.359741467298077 8.50495471649252
Hf 16.92683824242375 13.880945528102409 9.805385932351532
Hf 14.341872308034421 14.433216802384667 8.7447672817529
Hf 14.083647294596606 16.915297004596056 10.283077421447466
Hf 11.670247421835219 16.231317343245966 8.62113765772782
