48
Energy = -417.8255976 eV
Hf 11.62340636385674 7.557698157977013 12.845148369293932
Hf 14.265426741241585 8.339222836012999 13.867113180306225
Hf 11.109012639469826 10.59771820028258 17.711629397451006
Hf 11.69404450010811 9.149947986665318 15.241134947567595
Hf 17.261335541322936 9.705351338020716 13.749573606612246
Hf 9.219542224478586 10.991083843998213 15.709829573452966
Hf 13.855635824673191 10.21262718847349 16.947674559087787
Hf 13.48489408740412 7.842067635147501 10.923100365257687
Hf 10.915431932818345 9.003787270249283 10.401223583028061
Hf 9.585318274544393 9.528695869652761 13.00221670135429
Hf 12.857301320523561 12.64477959086248 18.29486297631542
Hf 15.679616900971697 9.560921008931562 11.333868234921358
Hf 12.498614786404751 10.397804140296207 12.401180069251026
Hf 10.249460698030136 13.352090749697133 17.26900568230808
Hf 16.807242381862633 10.717136280291465 16.287366158394523
Hf 12.125544327873335 12.235343424535053 15.390929775531031
Hf 7.6090747255889255 13.311047820286024 15.171901552710013
Hf 14.841015036644404 11.125244767078097 14.274211906884416
Hf 16.342994287702602 12.027184643845532 9.414141540874935
Hf 15.062298360021416 12.980269568902452 16.570269407087935
Hf 13.51233021701676 10.410498514169575 9.571976949467851
Hf 17.820800336468768 11.504993678776714 11.714838283645642
Hf 8.106176639169663 11.141550629773421 10.97937246626426
Hf 7.124967029380383 10.852419723035904 13.69080411710096
Hf 9.470006235407709 12.628855857970047 13.066809367868952
Hf 17.174275373748202 12.845213255215011 14.217742709366156
Hf 14.937672790276164 12.479087648873039 11.740051763398776
Hf 6.547424525810443 13.1579051771048 12.385957830835851
Hf 10.87170571954948 11.957946233335182 10.251105734791244
Hf 17.333338830195608 14.282201128971948 11.51028964088625
Hf 12.705104512205665 14.97292811448759 16.569836588208755
Hf 13.539744273799473 13.34167522413347 9.245971894416074
Hf 12.139295738113686 13.844201780944955 12.114420316857702
Hf 10.570347136348202 14.839703898823977 14.649854169959834
Hf 8.595328428148862 14.131253349881296 10.647346263396084
Hf 7.940464537483543 15.338967394754723 13.253525685005565
Hf 14.248210298380188 14.140691093208156 14.104629194766849
Hf 16.226616923466153 15.132045737538649 8.849471535187378
Hf 14.455420911328419 15.598102037297945 11.080783593132233
Hf 16.12877129990845 16.193572619481646 13.54810387939003
Hf 11.276023500845069 15.066719514170275 9.506660469835525
Hf 10.25524716027639 16.169108296615015 11.950528231994616
Hf 12.826483413179592 16.596136219334902 13.43970268241162
Hf 17.08998532525043 17.026863991336345 11.012841496104189
Hf 13.562594059614424 16.009356829821545 8.135841898024267
Hf 12.47609962692388 17.620462967152612 10.379312622440697
Hf 14.75356403459017 18.33660131652743 12.067152615013274
Hf 15.146097193661644 17.9254448057008 9.287762201670642
