44
Energy = -382.46476978 eV
Hf 9.880473294067716 6.501678866770091 12.457216909673006
Hf 8.17169431931799 8.939032754432722 11.959077524449924
Hf 9.73279879480174 10.267381354045893 16.654835628167888
Hf 9.511445809977902 7.260110672783388 9.849474886817688
Hf 8.23450064788422 10.950679699391914 14.301396654074864
Hf 9.614655711119088 8.297589342595717 14.61351999132064
Hf 9.43195869931122 13.087252498612179 16.051913589149585
Hf 11.95585692686663 11.899649407922668 16.929330304850637
Hf 8.504252698606306 13.695842334251513 13.242803278748235
Hf 12.135976268190772 6.536585511777196 10.74374933188727
Hf 9.36193850603005 13.875837039779396 9.546176426994798
Hf 12.263842435926481 9.015290128017455 16.1279636840455
Hf 12.444936190161608 7.440049175761032 13.574573833696757
Hf 9.069779069271906 9.915115944296598 9.313426404824366
Hf 10.984973556233818 9.088031100404656 11.540584214786854
Hf 11.209476098709018 10.73697198966588 14.194332414194882
Hf 11.483657667276814 13.651267726694087 13.737811298499283
Hf 11.889422831381685 8.667544336743534 8.79992660771594
Hf 11.973954961341573 14.714293234096525 16.38599300095082
Hf 9.756144019252257 15.662221692309302 14.806857210396457
Hf 14.301465892038701 9.611430580517558 13.907353054535518
Hf 9.746716702359352 11.797378093956612 11.50770217295734
Hf 14.047582371746755 8.635039001622129 11.198633088343739
Hf 12.929938649404852 11.453732557658153 11.875842703870687
Hf 11.28863173552724 11.546071777065363 8.834061128098368
Hf 10.351459104794861 15.585947177100376 11.876725738712695
Hf 13.838618314526384 12.255309539176848 14.759657870676147
Hf 12.453378983636554 16.49786290238006 14.144363838980373
Hf 12.25975168940444 13.870387911085539 10.015965867838371
Hf 14.198681288289146 10.82188616046617 9.24386342284187
Hf 10.932088414822031 16.300276336311835 9.133066219387404
Hf 11.157517269312455 14.14837268141331 7.323660210506214
Hf 15.714100799187099 11.37479376647241 11.82493814455114
Hf 14.85463237124091 15.200436830078136 15.339172287296975
Hf 14.60667480926217 14.35837298899465 12.564801191357219
Hf 13.625892977789269 12.957381259523926 7.400261600849252
Hf 16.586768853854956 12.92065496092398 14.244842942093893
Hf 13.144657828154047 16.667109111221034 11.050466369193819
Hf 14.987753592542377 17.263934584987364 13.217493260697468
Hf 15.339855820970065 13.573976147166945 9.598904057054463
Hf 13.667333222507006 15.685342310710102 8.27885884800493
Hf 17.41173004065705 13.683547905750249 11.607203101444437
Hf 17.141402924573626 15.628659662023269 13.544138477341441
Hf 16.070250420175416 16.153133887127016 10.786040656107804
