45
Energy = -391.80107658 eV
Hf 17.72314557868814 13.737338025933362 14.043664185965858
Hf 16.438926283047607 13.4945418694602 16.533984383794618
Hf 17.15429100123013 14.855551517897993 11.619853845324748
Hf 14.103691825173435 13.145629103479777 18.372001302685202
Hf 17.59410565406612 11.994270990161152 11.858224636131796
Hf 15.628243238333285 15.741543635524938 14.039601706774162
Hf 14.33212442550889 15.628367145839219 16.962758415193488
Hf 16.67153282656383 13.08464033638196 9.240302807532705
Hf 16.61547790004229 11.122293262717047 14.664884493884726
Hf 15.390194429811112 10.956897724130762 17.25070971849482
Hf 12.613005027587512 15.476565695197293 14.541901913032042
Hf 15.034449477939457 13.124867529329439 12.843256283497112
Hf 15.185272771367158 9.954949021004133 12.319493171204986
Hf 13.76361373919987 12.679741400148368 15.535976259177312
Hf 12.525972190417031 10.84171081469116 17.432328240246427
Hf 14.030298982437017 9.615869689009568 15.056977082492883
Hf 14.194540598354685 17.88237970412418 15.074458529864447
Hf 14.45481955750967 14.899338499280221 10.464435036579689
Hf 16.717017853306835 10.169820132375392 9.8543768027005
Hf 11.571122968853174 14.188136605291477 17.17402468620324
Hf 15.439270144281995 10.948301919443193 7.580772624544653
Hf 11.91112100581616 17.181749919606865 16.76392181834098
Hf 14.051001905700545 13.527717078715106 7.818613101318019
Hf 14.183391584527163 11.843893395395384 10.15700549548101
Hf 9.750323964260149 11.537088953295703 16.961864718492578
Hf 11.64890209646406 18.314153945671485 14.183628058033381
Hf 10.93570618507391 12.775945298430093 14.655676391853905
Hf 14.121522908938486 9.04379436847535 9.50550065510271
Hf 11.040864798709427 9.702726128092722 15.124433594980957
Hf 12.575197807688756 8.470836323533016 12.534365840377419
Hf 12.421542009552157 11.29561407054664 12.626195547971598
Hf 13.46484138169104 17.218494121706783 12.19399252140369
Hf 9.763079534693965 16.272306493846525 15.028790726074085
Hf 12.737789080681932 10.95412945166806 7.70015187208324
Hf 8.642053957560227 13.832499853897398 15.994827648952898
Hf 11.840818110789598 14.278609445136558 11.933664469864642
Hf 11.955741076502541 16.06326926675213 9.694648190490176
Hf 8.581192127376253 11.35627740727862 14.33736094496882
Hf 11.431394802360273 9.996117670239354 10.146296209296217
Hf 10.338857641193872 16.88382117831126 12.134193060848846
Hf 9.987376162263402 9.507372947452035 12.532478299928961
Hf 8.79555080953993 14.421116013344891 13.060554468423968
Hf 11.48344540124249 13.09765870148591 9.210995623488703
Hf 9.614288757080653 12.120653102805655 11.396819376110885
Hf 9.494249055177121 14.831904035717995 10.288036136963099
