42
Energy = -362.4613671 eV
Hf 9.427594337045603 8.77621906598688 11.354414055619095
Hf 8.06021217574706 9.877759692274978 13.43018709060924
Hf 6.931423589716327 12.381670887247278 13.937094547904081
Hf 8.54526743143268 11.449751789967909 11.021826321662642
Hf 9.804419077682784 12.77268679468582 8.724992079662098
Hf 11.022367568615838 9.985012822353516 13.407713795072095
Hf 8.822633366268803 10.988153143081199 15.876034962787038
Hf 12.090062195532461 8.452204289320335 11.02506074703042
Hf 7.973676320467966 15.174790911507918 13.789608702919889
Hf 10.277355560267733 9.943485418693802 8.842716037148001
Hf 13.065790053931947 9.398507068129922 8.72121602577089
Hf 11.748177337347109 10.373625267959826 16.206977528105742
Hf 11.695084296603813 11.612078855859352 10.742749976434155
Hf 9.381012976489858 14.212873594888283 11.08198856457308
Hf 13.706270148269079 8.455018292791207 13.526298011707024
Hf 8.109122133788409 13.674315452831944 16.12183862768176
Hf 12.331929085649856 11.930722814599445 7.78431774032731
Hf 9.686862677587936 12.751459625512071 13.596552923631629
Hf 11.954240458440209 13.287933761775808 15.24641365467992
Hf 12.028091070892733 14.510878342320126 9.594403213582494
Hf 14.49563592905411 10.199875819333364 11.199462477590748
Hf 12.651019488196582 14.052086494062376 12.525318395062943
Hf 14.668308779410834 13.21676912760626 10.477490888165045
Hf 15.181119522579712 11.372399443177235 8.251783562010797
Hf 10.495280262459197 16.07798663189472 12.867924545145687
Hf 13.757687994454175 11.419313383504097 14.022745076964313
Hf 12.998933437216776 16.73739067371301 11.462053611156527
Hf 10.507584369001284 12.749767594729397 17.487629702405016
Hf 14.19674680795472 14.168345321291795 7.66078353076858
Hf 16.2131458331449 9.838708429730406 13.581056890806298
Hf 10.15859083144236 15.545525496877252 15.653220074497858
Hf 13.82965600195207 12.076780779570312 17.011074659599593
Hf 14.619131557049544 9.456414989084651 16.018780467426208
Hf 14.838685701106291 14.192445903968697 15.144362973202048
Hf 16.799837172126523 13.717136629249413 8.475133285394907
Hf 15.353983846935296 15.695362863133909 12.652382692781641
Hf 12.911965553079193 16.348963033254314 14.278487751124738
Hf 17.116502119735824 11.601494414522959 10.495735331451206
Hf 16.32180992989465 11.668448730439968 15.733529418841584
Hf 15.29888244092137 15.917521657506983 9.713173945449979
Hf 16.437886465244578 12.779247446599282 13.09702719315386
Hf 17.436496822632005 14.416492122420257 10.999592317006607
