44
Energy = -379.24609871 eV
Hf 16.730007303919123 12.00098054519276 14.605383367160169
Hf 15.554367269570513 10.073759591906791 16.53245878904247
Hf 15.391007249538983 14.825561607302001 14.963430242036823
Hf 14.100498990050719 12.325373599499084 15.819438044164793
Hf 13.686309383325918 17.061170691890574 15.085719813915002
Hf 13.182217988697712 10.284660366520406 17.82299871033821
Hf 12.766935765351128 14.825354739248812 16.64234153842318
Hf 11.226500360462827 12.442993864068143 17.938164530173523
Hf 17.43348441586782 11.198035600287584 12.128569054122572
Hf 15.54348985431684 13.542847628640754 12.134133247185925
Hf 14.978238460782366 16.441966024596898 12.542400201024458
Hf 12.353850870041004 17.575614884548987 12.729798004371025
Hf 16.248729838646206 9.160486706683503 13.906389036720714
Hf 17.578640575906856 13.615529162617213 9.985430901400262
Hf 15.260870298559485 15.262043961158009 9.621364844999887
Hf 14.230167773143652 11.044050087284775 12.657524358994683
Hf 12.912533980691684 9.646177707771589 14.968984950366222
Hf 12.800542673401328 14.695861763432585 13.497599875037142
Hf 10.557605751192526 9.98133137401389 16.802361335978315
Hf 11.263084681361532 12.394882972720755 15.010863736000587
Hf 9.899254265547391 14.566200704998806 16.815826362490718
Hf 10.891613160961532 16.462150231446312 14.967974614047687
Hf 16.08648381664997 8.95660231571064 11.116993156991432
Hf 13.86172547560324 8.109054410552368 12.57042796146233
Hf 12.68581545564097 15.958792316581585 10.480005131420366
Hf 15.686999763319475 13.346617098977894 7.704578367415768
Hf 8.689600618165798 12.071948246414175 16.212285195685727
Hf 8.84157212391618 14.292733378305018 14.166782064742993
Hf 10.154481309332446 15.768990533376973 12.052549004046341
Hf 13.12746662558774 12.921867612740483 10.215982091162287
Hf 15.757224882203104 11.447228558266433 9.77745580424714
Hf 9.561848261037689 9.9774899791523 14.173741696868627
Hf 10.524213810777567 12.559359907290698 11.9804380470349
Hf 13.561752696581603 9.278277528168092 9.962302682410634
Hf 11.514416217799079 9.635145759505937 12.130221166449783
Hf 13.091783003456314 14.546200702336488 7.790081337771365
Hf 10.349266543280825 14.406468507280273 9.460099024865698
Hf 13.577826038828878 11.41580779668977 7.687058057684138
Hf 7.64531056712015 11.853945812089394 13.394474020553664
Hf 8.001017266436412 13.712921305921935 11.320977229520064
Hf 11.102829414016588 10.785549904997493 9.551079236432091
Hf 8.700815385332557 10.383984748012002 11.25600809448153
Hf 11.068386845307275 12.6066600895349 7.416264029719149
Hf 8.709466139453056 12.164635745975831 8.967280027486073
