45
Energy = -390.37497753 eV
Hf 14.807964785227085 13.68168219653364 8.40087845008952
Hf 15.107377677138977 10.778369885592793 8.472514011853335
Hf 12.022345212954045 14.173373444521667 8.057939721275398
Hf 12.421219454883017 11.444011711546604 8.26978162574749
Hf 16.281736839848556 12.233254172847365 10.513722663892354
Hf 16.417674038708185 9.380740971080208 10.931595772018662
Hf 13.491300455960952 9.76808790841224 10.595437199372892
Hf 17.28898485991208 8.73052246500985 13.630208033292384
Hf 15.602849465151332 14.96495922483901 11.317075462536128
Hf 17.83754129222427 11.270597623868596 12.663663365263245
Hf 13.161844056043162 13.049130460580711 10.721663558687073
Hf 15.015436882270913 13.045674766086648 13.31432257776925
Hf 10.607638740976139 15.621435790696895 10.204552014747279
Hf 14.581792139551732 7.683211583806612 12.775092240104716
Hf 11.578564801889728 11.17370853729352 12.827853786198819
Hf 10.63268512507676 9.967903344947791 10.26451297076048
Hf 10.197053197737654 12.7640538570593 9.858185992747055
Hf 14.668785631101015 17.671012788555945 11.965334481244966
Hf 13.42350886645928 16.02399034062777 9.821564466470242
Hf 14.869712387500735 10.364817638868047 13.319893264722626
Hf 11.61091510857761 8.212823403026476 12.236734657050166
Hf 15.306642393523163 8.472251959715171 15.498084432182235
Hf 11.691925879603318 17.910167514513123 11.927734438247677
Hf 8.67757541431648 11.452047520114528 11.923764816428823
Hf 10.199790307789602 14.052688534038454 12.821555598847176
Hf 12.561896798991729 13.095251911556502 14.8049888268469
Hf 7.897139408240561 14.34521541293885 11.165134721369862
Hf 12.543114101671472 8.892718133116654 14.775470884447474
Hf 15.43955516331492 15.891304899230631 14.303396131872633
Hf 11.045024731559867 11.058825851328983 16.401928834990507
Hf 17.52264387030048 13.771760573739899 14.169079416672618
Hf 12.974006622723055 15.45990611045895 12.721739453807462
Hf 8.947954518589757 16.744103397415568 12.237508756869664
Hf 6.6504234032049405 12.935836559935105 13.336790932668091
Hf 16.933384072954176 11.060115639923145 15.40581002691476
Hf 9.683098559889254 9.363399034682569 14.016869809675438
Hf 13.2335484616078 17.928990195601795 14.307921362946347
Hf 15.342835248254572 13.628423008782018 16.260159057635693
Hf 14.03526551365531 10.949238618757395 16.339070118460718
Hf 9.048588239970915 12.06292558888583 14.685844155678804
Hf 12.690134109744998 13.187556416907187 17.585281782460196
Hf 7.991027424140105 15.14208943268439 14.31274188424021
Hf 10.305658113952298 14.192910914836881 16.219223265099288
Hf 10.644641506805916 16.693649759890114 14.547093493485388
Hf 13.000086119489652 15.69358968946877 16.13207399978723
