44
Energy = -379.52207008 eV
Hf 12.370275930204619 10.239904937598892 18.923205007190287
Hf 11.69285640252915 12.78263241455003 18.01516385715285
Hf 14.490376361172366 12.280976830663036 18.011522809251943
Hf 11.310095630455915 15.626742739356478 15.540517920634949
Hf 10.17077676019661 10.600012623431612 17.199786660373096
Hf 13.50436503878641 14.938127736074586 17.41855346765884
Hf 12.967939970104982 10.52542091568548 16.272962247954574
Hf 10.818097507873206 12.802927125455497 15.275034475620894
Hf 9.611335219580726 15.762619672535703 12.94713300240025
Hf 16.215682389612486 14.142904589350028 16.76394406993388
Hf 13.915008455040628 12.979466178918981 15.10349144216514
Hf 9.115567372956011 10.615852025537006 14.283211209957782
Hf 12.427504274561684 14.543970882412331 12.927572915410735
Hf 8.022970481679078 13.426189617505171 14.285090028040425
Hf 12.010345167994233 10.799662958716532 13.50792195220538
Hf 14.167353868757198 16.22441718198256 14.953149986801025
Hf 16.33198044860254 11.426061058144967 15.80903698870044
Hf 7.5952543443743945 14.099697952342508 11.431213866077021
Hf 9.903959928444735 14.58752809991777 9.840565103362673
Hf 9.939400500026728 12.717100191965894 12.332446434473319
Hf 17.127492773943953 16.38613975523331 15.538135799311835
Hf 12.061753632236869 17.413065658109893 13.392094627345017
Hf 16.21119046292454 17.69387956597996 13.266642034235266
Hf 18.67046608379293 16.146518862762807 13.278402469182602
Hf 16.055662998554464 14.717053792695735 13.258262779810263
Hf 9.753047570751608 9.859645562803461 11.634081342345388
Hf 14.529675412218525 12.133881671511922 11.88456540156564
Hf 11.52649291696889 16.581349930652042 10.842695461283402
Hf 7.328726393676409 11.450752142379475 12.267026034584383
Hf 14.279258481206796 16.371490780010454 11.524484189448653
Hf 14.784921933004624 9.773950567156186 13.749261435490332
Hf 18.28282358150142 13.584853915584361 14.745134423741206
Hf 8.74251716983669 11.930845301475088 9.716714905095113
Hf 12.934481747355996 14.081953211997172 9.918268404718317
Hf 17.335757012060515 11.316198273164911 13.00929869571982
Hf 13.260649396310937 9.403641741420728 11.24195952458527
Hf 17.183376271593602 16.400141495167396 10.966689521887023
Hf 11.662236534861107 11.428750365409796 10.268989479855657
Hf 15.839244200728972 14.166623005489809 9.865561293076425
Hf 11.231675813415977 12.768862484691434 7.976578919537537
Hf 14.360089022508637 11.361648730641651 9.134835507123395
Hf 18.323577485505396 13.804145372744241 11.655812779176195
Hf 15.951858431950109 9.614492974031052 11.119674892303083
Hf 17.120663933664922 11.748540197206811 10.084509759418959
