44
Energy = -381.85109997 eV
Hf 15.009529668852487 14.586336566916671 16.037705011863615
Hf 12.007126892168117 10.134678173767938 16.401111343385246
Hf 14.700861610301722 11.625983683128785 15.846661574062406
Hf 14.408399133796484 8.737585557236036 16.05550381933161
Hf 16.731442307111266 13.031360343252015 14.38988998541467
Hf 12.385473267486912 13.249780013352396 16.67752761842854
Hf 16.579759378758844 9.645029172562475 14.488534204627335
Hf 12.53684081818537 15.912236789347567 15.21113697757982
Hf 14.73970686865802 16.41806083387453 13.374316799346259
Hf 9.723763934292315 11.899979302421896 16.23360588301192
Hf 12.126236351120145 7.808610773253956 14.323703377004271
Hf 16.205658928667816 11.46340221775021 12.078142149844636
Hf 13.846223373778406 13.65982269139757 13.630913713964791
Hf 14.904347260606867 7.208775351495794 13.890458415570977
Hf 10.112327058070893 14.401225739012862 14.786123262325185
Hf 13.924347614305507 9.93444230195463 13.28625669989591
Hf 11.582189771883986 11.91557652867537 14.160112435263532
Hf 16.362426368750413 14.296119953596584 11.849018900056114
Hf 9.974234631899467 17.192868139387834 14.012211397570558
Hf 12.383975194379492 18.40528196606806 13.637119708856401
Hf 16.238295411336026 8.54109108040029 11.8901427626079
Hf 9.72688398714708 9.533257807689285 14.498906992935908
Hf 13.376274815505468 7.604530054273633 11.47928189890439
Hf 13.541334565203817 18.238331783346005 11.220202145544683
Hf 13.404097515239824 12.393666512747604 10.922392388953359
Hf 10.747098362455484 13.293728129456508 11.627135673049013
Hf 11.951405234532887 15.89127225453835 12.172606830069055
Hf 14.714630897855402 9.907471546690392 10.003109164664055
Hf 10.362839545761863 7.866577048112324 11.762810117571535
Hf 15.599068986729609 12.865193150060158 9.31162250699732
Hf 8.212676107031111 9.81818275995287 12.139527825334198
Hf 14.332451827307585 15.430962968176985 10.439824185475524
Hf 11.050633632287195 10.540434525823107 11.466251404783167
Hf 10.489266902170787 18.08778078837843 11.269833869863465
Hf 8.574525795504869 12.332087622313864 13.517619292179901
Hf 8.843397489833276 15.310987621850058 12.201656082716292
Hf 12.242832187016749 17.068794264576027 9.170678863437383
Hf 12.569752817247302 14.146745372036873 8.64891226674872
Hf 11.960428911116384 9.052517494159577 9.17971508298897
Hf 13.331203514483688 11.432521130268 8.083135111553283
Hf 10.098495951343706 15.278982636677465 9.629513682957183
Hf 9.177959282091441 9.51307445468294 9.558647660858126
Hf 8.38253077652364 12.181125719070033 10.530193773079219
Hf 10.648000892894196 11.92836880400832 8.740301271345908
