49
Energy = -427.12682146 eV
Hf 15.180749936799977 8.042257061088604 10.017418424794908
Hf 12.464484700887786 8.603613707435533 9.988205625916995
Hf 13.82647730206636 8.224734364093193 12.582549541393218
Hf 16.728866387906482 8.701556859082466 12.203539902656702
Hf 10.590959549661044 8.536958825997937 13.670792704465315
Hf 10.156725734056193 9.916457248180624 11.192723521217221
Hf 14.131150406457495 9.98490454433296 8.151490560757274
Hf 17.08728064202196 10.419548636643272 9.732526627771254
Hf 7.868812178091158 9.295374725633236 13.12716710515549
Hf 11.012584008435777 10.357885029467349 8.051639673741233
Hf 15.287408294831671 10.121192182346837 14.260729515178987
Hf 8.803514763022442 9.39536473286736 15.798278723002019
Hf 14.87086766653585 10.663052717799296 11.216949497639874
Hf 11.72985387744684 10.064856138573345 15.957962949033226
Hf 12.381428043936085 11.756762670776606 9.966000422722525
Hf 17.50963544706824 11.470984095992844 12.775341711759538
Hf 12.49970322603322 10.945261051642591 13.134692452623488
Hf 8.65794748118969 11.574118667540262 9.265155272721884
Hf 9.733199156796976 11.363872644714823 13.989836392485593
Hf 12.83555372213813 12.279941951548636 7.038778860051474
Hf 16.71120430998601 12.671123670832122 15.445501379281403
Hf 15.340883804328934 12.722329250037728 8.37390451709281
Hf 7.069849661821863 11.693799083784798 14.78235319953746
Hf 9.302396400470057 11.951558864596537 17.0130520172051
Hf 7.275837132973426 11.75200698506948 11.714869284265466
Hf 10.531530526166614 13.463317806978827 8.297406220335034
Hf 10.05755663374844 12.996364459609387 11.565273378905834
Hf 15.00166362425727 12.913503428376794 13.178949896132428
Hf 12.026585529690724 12.049274460011311 18.241987881676696
Hf 13.266444777444379 14.975246957215855 7.8979660966148035
Hf 11.713665669425632 13.10599729771491 15.61060661615916
Hf 17.067512138662682 13.436527432996899 10.709407402369312
Hf 14.165143526012033 12.008393578401487 16.136992182718544
Hf 12.151629166422882 14.193990416623492 13.103034111869748
Hf 13.743351109302603 14.2293651636648 10.620577085833535
Hf 10.553861908489875 14.492151531790872 17.78473948823
Hf 9.01510704181953 14.326136582404617 15.297314843906507
Hf 8.14258246961632 14.332092740447093 10.229568328721356
Hf 7.365508213000654 14.075575994778053 13.04346074012763
Hf 15.87402527718297 15.473218408646437 9.120411410523987
Hf 11.089373601599625 15.640233817468804 10.28494574037195
Hf 17.413035601550348 14.403456269825774 13.457940860005571
Hf 13.381463129976202 14.542536565021445 17.51738108615681
Hf 9.691563495758507 15.81337970038085 12.881795460853773
Hf 14.52255476062892 14.980181415565882 14.887381256573896
Hf 11.619175270455097 16.05835515969401 15.498778880331463
Hf 13.70191376855476 17.025932088521152 9.921886606990169
Hf 12.693728570813898 16.77663333544277 12.502669701668728
Hf 15.590972545002924 16.078385127860887 11.999262914714349
