41
Energy = -355.0850741 eV
Hf 10.002590703587478 15.686286730519088 12.713343492968265
Hf 8.956798744238068 9.957985901350114 11.417584657067923
Hf 13.078981784768695 11.815449130444485 13.612913696701034
Hf 7.192958873296198 11.527194524955291 13.249360319530666
Hf 13.251018315600227 15.77945776204805 10.231784726348154
Hf 9.98274764577463 8.967273957399872 16.091148703034158
Hf 11.749769738472091 7.955081739384265 10.532362678328807
Hf 15.828011852479905 11.462027957170383 13.51367475008728
Hf 14.87453631625685 14.163125203444055 12.08942807797201
Hf 8.159650960517771 11.340535148588696 16.076734797991868
Hf 13.760170370720997 10.593444052651488 7.038474928442224
Hf 17.13037200345935 12.55382885985732 11.060183527394193
Hf 9.058897432263969 13.097992133896975 11.714624420724302
Hf 14.50588883619333 11.438486213240093 10.9972977891138
Hf 13.863391497738856 8.91691308209576 12.413712854842956
Hf 10.773734688217319 14.765276576862753 9.104153308645323
Hf 11.205352499398774 11.409181445638609 16.979165098452206
Hf 14.695202422746824 14.029354253223726 14.940723200162758
Hf 16.614675655776107 9.72303859094869 11.042123158995286
Hf 12.644046418572366 15.838758723957843 13.93315676749467
Hf 14.247971003344938 8.984966644784459 9.37852901885252
Hf 12.99306061909052 12.83346761066663 9.06844836824002
Hf 9.88998605380689 12.097035538824969 9.096921174066392
Hf 15.636245250830289 14.310258179831811 9.144144828225777
Hf 10.891693499294984 8.359988943737731 13.241420148275832
Hf 10.178350990615378 16.029292877526586 15.585596559348655
Hf 11.689883932370536 12.756525948312973 6.693463844923148
Hf 12.650108861580582 9.412639726048077 15.317594170755331
Hf 9.994170899071884 10.974980473502681 13.952819830684566
Hf 7.973791652986966 9.024195301005335 14.132706181778962
Hf 11.48299165369553 10.007714293920039 8.42582892515895
Hf 16.188270446245664 11.325767652003698 8.525051890598252
Hf 14.022865471030745 11.799583920424313 16.339175708818583
Hf 14.688504705461643 13.134438605901341 6.6627581528954325
Hf 11.936264843832546 13.786393313691446 11.711800423947297
Hf 11.635292490700737 10.673350203569395 11.340216865494543
Hf 8.069115136253988 14.122513835898774 14.5162998746726
Hf 13.17679043534099 15.280196228321353 7.490636586854001
Hf 12.426848006875558 14.416487474185965 16.76807255337286
Hf 10.908903661512792 13.576327731266572 14.543699997056263
Hf 9.540048858486378 13.746923253875156 17.08441579122257
