42
Energy = -363.72267373 eV
Hf 15.24402310371236 8.591826963401642 12.198036764646993
Hf 15.919013113061506 9.552007798012248 9.194435458461529
Hf 13.603947565602917 8.001454748288538 14.512623762796608
Hf 15.39231950695417 10.437255552917238 14.722065631509537
Hf 16.064766298414266 11.219609295921156 11.936381199221568
Hf 13.676363851992793 7.573615309469355 10.051380716378006
Hf 14.832521733687152 12.328078835505494 16.787805089513878
Hf 11.716271297108456 7.815380513370886 12.188204581298685
Hf 15.372726024638322 13.579960041310354 14.1331593379334
Hf 12.927772378403812 10.076267449802975 16.531209893931777
Hf 15.71148355362525 12.65449723983742 9.578975272050375
Hf 13.34457968816503 8.891768779081623 7.691447190571381
Hf 13.02525471762501 10.272482317934438 12.930645809892933
Hf 13.56022971425194 10.566137122570048 10.041075712449056
Hf 13.66127702334159 13.109808792201044 11.714756403877008
Hf 10.850950341356585 8.995144971936831 14.623697672708854
Hf 12.766229990385424 12.528791462891386 14.835811194456701
Hf 14.467373705509145 11.435295468983389 7.363871395116881
Hf 10.981417779377647 8.95465940692801 9.569677005284854
Hf 13.625711245771074 14.833255112261817 16.303093654156395
Hf 12.11171361046034 12.716480548296976 17.59194273533448
Hf 10.058299094091485 11.529187556407924 15.752076106013513
Hf 11.534954974782218 11.106467139278752 7.504358909348387
Hf 10.665469764302852 14.445007321489106 15.71972170843463
Hf 10.512908785943777 13.24723080200024 13.13279601012077
Hf 14.044477439532503 15.850984933379282 10.747168707059219
Hf 10.16250393841036 10.609611021321388 12.150205978330177
Hf 13.145079777706032 13.762197170582644 8.672107118607219
Hf 12.676808850429435 15.317999193763963 13.503711620723756
Hf 8.489712482929834 8.61462066138432 11.49160508711797
Hf 8.70580916613478 10.809183812607785 9.333136934789048
Hf 8.044910262452133 10.014151178230781 14.10259865989686
Hf 11.047831425779936 12.159372843082881 10.035526321863522
Hf 11.348680369610491 14.852643097547196 10.819224456701834
Hf 7.920123585366475 12.961036290729126 13.972808650717585
Hf 11.993283435080379 16.594567121704188 8.740611298822968
Hf 11.691856064620367 17.52929173789333 11.499797985661335
Hf 9.52201270481131 15.901902149545187 12.871509417378375
Hf 7.278435687921622 11.242279613830034 11.735098736022735
Hf 10.061843853348572 14.249477239410172 8.29282760494636
Hf 8.500484027406426 13.796755298785195 10.85543919798859
Hf 9.34713436616167 16.590457257948035 9.9779720559799
