43
Energy = -369.50830448 eV
Hf 13.378209255043044 17.135501293194363 16.795484313312816
Hf 17.675443199911616 15.804391490219547 14.256045551453335
Hf 14.664480322776905 17.397001958160327 14.357612500241231
Hf 11.628169534116903 17.66048978236584 14.34042183014043
Hf 10.781980679471646 16.314071425740597 16.672963656243276
Hf 15.44864525641162 15.13152067452437 16.116129564023662
Hf 15.453064947656332 15.111347207890738 13.0592180673283
Hf 12.805742041179416 14.398879728922866 17.60115476891802
Hf 12.813793240613043 15.063587790202124 14.685667572871074
Hf 13.029214410875488 16.43961887844473 11.970016248772811
Hf 10.258050947063378 16.03559943246846 11.676842955494168
Hf 17.178932243671166 12.97196249332065 14.800119309368846
Hf 9.902116972082998 14.910928227633336 14.305927477065092
Hf 10.130229178070033 13.51757782623697 16.879002087589342
Hf 14.326450500315643 12.435849845860512 15.960360796850033
Hf 14.672661427762625 14.313948625836453 10.49601355269847
Hf 9.432031487092832 14.358246066314516 9.641820290773897
Hf 14.791257708996199 12.18232793519261 13.077372511580267
Hf 17.370932917164918 13.504964691433427 11.894230374382042
Hf 12.102447539261206 15.351464460067879 9.221291002621186
Hf 12.026642434234002 11.07068082817805 17.146816185114343
Hf 15.993672994912345 10.243738535489452 15.056364536084022
Hf 11.72307920879909 13.578382293025346 11.484798466927552
Hf 11.49572361082247 12.315120295947148 14.47919544648397
Hf 17.459997460121546 10.900375874208727 12.789168258617766
Hf 9.224108923208181 10.81065576352591 17.521633949447537
Hf 8.66080647332532 11.919273133660212 14.898202034947223
Hf 8.799217971834828 13.278522482300495 12.116959364787306
Hf 13.375766871256708 12.519799206793099 8.883047374436584
Hf 10.83765505114901 12.974309231186634 7.672686835325155
Hf 15.65807806032743 11.177337254910087 10.407814196750873
Hf 13.126324610115946 9.992210400302882 14.526643363421684
Hf 9.691404897797247 11.488254010164983 9.820129085012596
Hf 12.694543200513591 10.720279869820201 11.286522456623711
Hf 10.355662256780457 9.522589206427579 15.30544916884164
Hf 15.073957811268116 9.198010831218054 12.414218208296248
Hf 10.045079685158555 10.444246887683597 12.631934480448846
Hf 13.160552123887905 11.946565509558116 6.175241123263665
Hf 11.788884907931648 10.177183661003966 7.946883202351051
Hf 14.710496419219938 10.31521449372987 7.697663436762443
Hf 12.174800285375232 8.180926680523191 12.496724981736662
Hf 10.725224922029541 8.7929848832153 10.259980467171024
Hf 13.56172901407629 8.526315066528907 9.751115590868856
