40
Energy = -346.80862568 eV
Hf 10.953168852262339 13.213272755548417 16.12625690135386
Hf 8.246085039949392 12.286336079214522 15.489577854216465
Hf 9.010540112002086 14.778241879545437 14.463027023547491
Hf 12.883588100250336 10.979785781199684 16.502655512538663
Hf 13.856027867770132 13.418050641475958 15.660825933215465
Hf 10.328019685628446 10.277634032775863 15.694349714681437
Hf 11.971626622454723 14.921208628782896 13.891441016662599
Hf 7.443729722088783 12.906177938532132 12.67195192698311
Hf 10.18406488273787 12.445770869990923 13.345201697245114
Hf 12.713099097316597 8.737304694712178 14.71445777052156
Hf 8.075478788387953 10.047138871757486 13.728369431335027
Hf 15.23189848770675 10.853721407621608 14.757595826868187
Hf 11.745754304226505 16.73128989521582 11.435377176273429
Hf 14.331940021513825 16.07095008570181 12.205768154639077
Hf 12.983099270214412 11.594244689525338 13.494347254835816
Hf 9.486304657232479 14.959185809310695 11.675818992974778
Hf 15.334593089525438 13.623703046699713 13.367266234938848
Hf 10.017673343516812 7.88007002185707 14.277322254799603
Hf 12.548384992375434 13.968957288233296 11.23059397415141
Hf 11.135312804276417 9.73701860999103 12.165147573528222
Hf 8.77376594354091 7.925525043853492 11.863334614394502
Hf 7.932970750073264 10.53781920787553 10.860581875914233
Hf 10.490558683333948 12.218577771313877 10.17061727287908
Hf 13.646923490193025 15.899860709689232 9.396963881274926
Hf 8.083565096621154 13.393558443092791 9.539171321145552
Hf 10.785538704766184 15.18804731932151 9.111616400968952
Hf 15.485278218126341 13.951957319135724 10.582194315606426
Hf 16.129638972141944 11.267285871634538 11.860473076675628
Hf 8.707892843669319 10.871554556595035 8.23276199152638
Hf 14.201762286480589 8.904853219313537 12.33786813565831
Hf 11.56647201859219 7.0775639676580155 11.875877313196106
Hf 10.072492024662084 8.598207949679788 9.541250724342625
Hf 13.143699057582815 13.096855106671558 8.310663282293508
Hf 13.50811617071628 11.027258157794433 10.300371861623217
Hf 10.231697202272148 13.001741283940952 7.389913309183441
Hf 11.54579095149796 10.44251544610993 7.855036147521599
Hf 16.012462061627375 11.83649130155323 8.85731432630035
Hf 15.695906631531148 9.21218838388139 9.887934464116523
Hf 13.02921407683611 8.214244604003019 9.45126051553519
Hf 14.295583845832832 10.202096480333443 7.605430275385808
