41
Energy = -353.28381542 eV
Hf 13.603708240443021 7.14056498799164 15.348287947570665
Hf 13.553185522532262 8.373460405044488 12.688012204436236
Hf 11.010341157884953 9.608153279508413 11.760605841942592
Hf 11.287798507263828 8.340137361308912 14.353460233087521
Hf 13.806436116680949 10.112951681193573 10.294499184849581
Hf 12.64325316217022 9.68939231783538 16.42019589984876
Hf 15.078330004031367 9.491294053801512 14.916662865409572
Hf 15.310344909131349 11.209339491883057 12.480243616482714
Hf 13.203666277230942 11.32977560760756 7.827963074696218
Hf 10.37359055732554 12.26297517170899 7.697120169008014
Hf 12.620265630663651 11.193800691699112 13.527944815299605
Hf 9.727375205404954 12.147320390196212 12.666363683665802
Hf 11.489508026865911 12.278987038872794 10.226362619628555
Hf 15.380483745960726 12.371153491457155 9.491418828524063
Hf 10.290328648407488 10.940776356040391 15.231001958540523
Hf 11.313249422244686 9.641851679862759 8.863580168807774
Hf 9.004019128576244 10.733271149682134 10.01145551826954
Hf 11.615818881640923 12.71488056330563 17.023775070658463
Hf 14.342853188656163 12.030253121576184 15.946173984277394
Hf 17.10333028616474 12.156890959684134 14.51622472219261
Hf 13.731105931098432 13.675055723002275 11.555488340786749
Hf 14.979551505672843 14.240969225109357 14.165300369510405
Hf 10.891995250927595 15.500407668527364 16.9135122392947
Hf 10.499741418816972 14.992892652506747 8.737477652958098
Hf 11.882396494915016 14.148340049138662 14.394831260064727
Hf 9.199857180940482 13.730806561448565 15.573153230583028
Hf 13.157033049505179 14.105485550670283 8.21081844095755
Hf 16.945852838207458 13.65383634697349 11.796668673317024
Hf 8.718549251098914 13.451256827928901 10.166280464498124
Hf 13.770320606199435 14.876975255748581 17.033881826913937
Hf 16.542537691952322 14.02188486863751 16.62891012351193
Hf 12.682980799671007 16.262737224537805 9.962839659017494
Hf 17.78997051937699 14.961733052866379 14.289815610042032
Hf 15.389104804926264 15.31524190529773 9.905236187515795
Hf 10.69214528250252 15.099895658455978 11.657771277460112
Hf 13.315582553239201 16.33741921393389 12.717906675259815
Hf 12.777539836599747 16.929727126838486 15.458692158570434
Hf 16.23235399034231 16.405219872777053 12.51828743263991
Hf 8.254138388511294 14.562328148823475 13.004794301280038
Hf 10.065971904029876 16.439087119783625 14.35769372059886
Hf 15.72549163228395 16.597593144034107 15.50926525151513
