48
Energy = -418.69826261 eV
Hf 17.196598403206078 9.761414522785183 13.030730772417476
Hf 16.77527460732259 9.473854037330453 10.068133948722416
Hf 15.22244173321436 7.962100281954486 11.77747427240928
Hf 15.35280301626407 11.341470030266713 15.175358060601729
Hf 17.399414817794376 12.22990513073483 10.586160954710722
Hf 17.025386761190074 13.060853306365567 13.512666887574705
Hf 14.281027961648897 8.8724117339134 14.294617545201382
Hf 15.739200849694404 14.150220762759892 16.01479081652256
Hf 15.095761616372686 10.955740593074976 12.011621299202652
Hf 12.766762322851337 10.500539874026787 16.302196555530173
Hf 17.497720510633048 14.931228320392416 11.38703358771519
Hf 14.195568447739987 8.7095244415592 9.129217257819114
Hf 15.328291364289692 11.50687255727397 8.594082214836329
Hf 15.899309664871579 14.69875660157916 8.789436842863516
Hf 12.331912485068877 8.41955421636167 12.018191404012503
Hf 14.772295213793397 13.76615204342762 11.007533524994088
Hf 16.036765006185743 15.95062918481189 13.704260978112766
Hf 12.669598870738028 11.190233404161754 13.42621842270212
Hf 10.985512341816541 9.115075810730618 14.537227304848358
Hf 13.96801222034449 13.804024916115203 13.851261185060181
Hf 12.624052336077021 13.35709539138448 16.455764268966817
Hf 12.744176468250966 11.009196115883151 10.306009970709352
Hf 12.694762042306936 10.60841866135645 7.542046182682676
Hf 15.458098109174912 16.71126261185513 10.896556058585205
Hf 13.685873586324044 16.08541593521466 15.51172367110214
Hf 12.990806863056612 13.37592448344858 8.41470703821742
Hf 10.104322502522574 11.395602814165107 17.13521173526234
Hf 9.08380164891316 7.937539781194571 11.99242555189384
Hf 13.15452257509588 16.52402841416681 12.560616482234117
Hf 10.392823748192788 12.38609446755999 14.631162663164536
Hf 13.08542222057124 15.860800076997638 9.663979952617625
Hf 11.894476818879603 13.779194307057043 11.354765106093303
Hf 10.186656052253726 11.640167386187185 8.863638629662482
Hf 10.10230410374135 10.416786032086325 11.765865988986334
Hf 8.285313509940778 10.183741678331112 14.375350378780638
Hf 11.048869284287534 8.828313713743706 9.42247804657739
Hf 11.255272652924617 15.160808087757735 14.27804465086813
Hf 9.831745085348842 14.312648037314412 16.71151147925045
Hf 7.743257118256529 12.608230211041501 15.868775620501935
Hf 9.262487451400192 13.14060374972935 12.072664813065375
Hf 7.025823356841458 10.021721662470664 11.872076670039037
Hf 9.944793082245189 16.004175716112254 11.813289346042982
Hf 8.298773475832428 9.500887147213518 9.53248899709277
Hf 9.582794308187605 14.40471623387632 9.496071484564863
Hf 8.24466104641094 14.987252040190205 14.231310831224704
Hf 6.692210505971104 12.586911499733604 13.140118956162913
Hf 7.376159334399156 12.265115282667864 10.00419306699612
Hf 7.299622052743133 14.900997347026252 11.360556835400923
