49
Energy = -427.12188332 eV
Hf 15.322877723755214 18.160621791749048 13.868162314524414
Hf 15.491640793019533 16.79228125596205 11.195960150810524
Hf 17.750155229527298 16.558066531195664 13.51812218100805
Hf 16.249270113046403 16.759189174333212 16.06767999499519
Hf 10.564050137333076 16.795813212361082 14.463682263144396
Hf 12.890284235516404 17.52592307018623 12.619110014564463
Hf 9.77372119145346 16.574967602830426 11.925630914585282
Hf 12.894305850112442 16.051800034448785 9.99363511569745
Hf 13.246904595047642 16.3253676882633 15.526213626681317
Hf 18.193513243847875 14.761323764950312 15.819539800796003
Hf 17.652467107666432 14.586061048902641 11.146419359800841
Hf 15.393063428405942 14.475255646053384 8.948126619189711
Hf 15.094705957308264 15.345382388572528 13.77513080368705
Hf 7.812057519954222 15.598079672205742 14.160173379809466
Hf 19.52690935882302 14.282111234966802 13.492548704416071
Hf 12.181149950017296 14.840165692104911 12.751986841473494
Hf 10.347463722136029 14.510747526322737 16.07521544923781
Hf 14.518295868712636 13.718333997166276 11.28370325816357
Hf 15.500536950621031 13.930040529773564 16.59033696784929
Hf 10.205457323607254 14.384504159341851 10.114413857339876
Hf 12.591213056262529 13.580082892246272 8.787013220190417
Hf 7.571437194905999 14.835651649072618 11.343318479743008
Hf 12.76554705403215 14.386940297179557 17.854367755157813
Hf 13.06411743329023 13.358572253045134 15.212428903264943
Hf 16.776692148384534 13.045999947962592 13.602133612595722
Hf 6.842592036292025 12.861194962758223 13.16302528598181
Hf 13.880327512589236 11.812526795822466 17.66185050037401
Hf 9.550364013563943 13.805170428300045 13.10824491294405
Hf 8.38623128469501 12.350685008137178 15.635990418891337
Hf 14.143845843681593 11.344113998885078 13.104954327860453
Hf 19.112951485157897 12.017915862887683 12.144387031137152
Hf 11.03778757458656 11.993496156790204 17.32860837803112
Hf 18.819577845123476 11.92395865706805 15.039501184657986
Hf 16.814367252231605 11.946143270163274 10.47808264907668
Hf 8.52954799042467 12.045483961796403 10.79934954982484
Hf 11.696457646328426 12.000500143852802 11.436778804031654
Hf 14.076808353967538 11.37550688098295 9.274587867379825
Hf 15.732807410646002 10.94305817620361 15.633943991756334
Hf 10.978245228422113 11.084554119166093 8.994849126775746
Hf 10.993837270469667 11.641684790190272 14.328777603173839
Hf 17.074621942919407 10.175961289935271 13.224190672637377
Hf 8.44098456159397 10.457512784590831 13.376372470550034
Hf 15.420231632879117 9.591369446605738 11.033770977418602
Hf 9.80139455692941 9.707710282181212 15.871677103107189
Hf 9.902169486802668 9.54722600832536 11.117825223721846
Hf 12.758339268037435 9.808968176162848 15.938318158266933
Hf 12.675644324812417 9.125346470100583 10.88526629656292
Hf 14.334797217904311 8.627219091505905 13.558690516945443
Hf 11.299017709380978 8.78226999385361 13.515255245192444
