40
Energy = -345.53309599 eV
Hf 15.90228733452297 10.033847046975195 9.924290818763886
Hf 16.97846281690216 9.600379798579901 12.628776594123336
Hf 13.806917171557112 10.772228154706562 7.95302624468648
Hf 12.815946813313973 13.235500156187033 7.5915596393119955
Hf 15.275135350288627 12.886480581345813 9.24600916472049
Hf 16.917469503487943 12.262871909363042 11.698137092362034
Hf 15.026039698225594 7.965578470062914 11.723741207257055
Hf 13.001655110736156 8.988388149590616 9.924277995420349
Hf 16.376173231650842 11.492413912205082 14.677542987119775
Hf 10.9339504436043 11.027452305385447 8.236706308959075
Hf 13.11164047778476 15.329128394624398 9.504556263779286
Hf 14.6846044653878 9.004034259663344 14.494426001464635
Hf 12.472352029167476 12.118661355494455 10.295026616646625
Hf 12.405714587490348 8.150758617742033 12.667500447934223
Hf 14.482951098901884 14.326023642102813 11.755104552538922
Hf 10.223170998841987 9.24487670389247 10.778301961197963
Hf 9.272225312331773 12.117236927226417 10.563663600396074
Hf 10.410408602757602 14.08125756899105 8.754489900039497
Hf 16.390753726019604 14.157523712566602 13.741238166799333
Hf 14.38735918142868 10.845968219259737 12.289754697573656
Hf 11.190293162760101 10.924227967843299 13.045792810944983
Hf 8.19281872560466 10.420928989545379 12.479108049974045
Hf 10.730554380398909 16.741050992691942 10.026736138405623
Hf 6.893994716029986 13.213010784651956 12.18146973611024
Hf 13.400223571351429 13.036958791811106 14.250970780190862
Hf 14.15922817189513 15.763591078277114 14.70412953205406
Hf 11.310736832973605 14.42674042936686 11.77667632548818
Hf 8.436418518270823 15.248090792906641 10.877221568452054
Hf 9.797026129214322 8.34746678490061 13.578876860836
Hf 12.844670065544316 16.784391095770868 12.104448402860651
Hf 11.80207887759812 9.387674978961321 15.442655141179454
Hf 13.854607977403793 11.341989355745147 16.53941974628994
Hf 10.004934922230143 16.926205654253412 12.69292597179206
Hf 15.533754632294155 13.743891132891665 16.28917294203552
Hf 9.332866649867263 13.0241108602856 13.554477966582924
Hf 11.02985014435409 12.277337428827344 16.06466362345669
Hf 12.928133483984457 14.204164677454415 16.862614854495792
Hf 7.9364018866212716 15.400146148501088 13.689141673948939
Hf 11.177024876413181 15.145304226448118 14.794907489168343
Hf 9.071812057700301 10.490809313341863 15.154921973778425
