49
Energy = -427.37042857 eV
Hf 16.647413406068264 12.4871735481342 16.28501713410247
Hf 16.151850531585797 14.620291296682403 14.199691352522922
Hf 17.081706660068487 11.371273696460676 13.688284524006246
Hf 17.969492069428245 13.477444708127011 11.856486787733438
Hf 15.498780245104621 9.91607891217293 15.635107468757637
Hf 14.623242890656675 14.333033144954804 16.951656294173212
Hf 14.217692268808579 11.606333469772332 17.56576619981862
Hf 14.164560260285498 12.419411856939904 14.727474507420455
Hf 16.977088089479295 11.041781230080908 10.779182303755713
Hf 13.341626141188582 15.766074677352702 14.904057493277326
Hf 14.831824515557521 9.932193574368293 12.56912159040654
Hf 16.520328555083694 15.8005007655301 11.4803354120468
Hf 16.37534886253224 13.652761878041307 9.401913526670825
Hf 15.144102135439473 12.961759497280225 11.7790817636323
Hf 12.59643575649175 9.912048202758488 15.805366347693866
Hf 11.843562539254794 13.185656693212938 16.44822908211395
Hf 12.542634163849527 11.735353325112772 12.060344338905152
Hf 14.209669562044418 10.993185219970904 9.679271173093852
Hf 14.605329385736898 16.11592671253704 9.528327530981048
Hf 13.475385688812484 15.194593441168683 12.11619745612067
Hf 14.145614904699732 17.74285834984423 11.913824910544093
Hf 11.247744504203796 16.9672906649097 13.019862921338714
Hf 10.050059670516916 10.881297271072453 16.983334667256795
Hf 10.629903519492634 15.84856400560354 15.8236969795893
Hf 12.709627460435273 13.718587367150372 9.693833861388397
Hf 12.015634589376596 16.771326722116417 10.127006767099315
Hf 11.099216520914082 14.060315079637355 13.64632394565313
Hf 13.49414425553293 7.8082135365792915 10.492434597197681
Hf 8.911868017572356 13.416150608860614 15.736989798484007
Hf 11.431998911471828 9.635100504977695 9.949035382922371
Hf 12.13810429268216 8.836772079586684 12.99977182922491
Hf 10.029288721176844 8.647259208488059 15.109200643144694
Hf 7.905545031669474 10.605561237476488 14.938382773894686
Hf 13.212805016229865 9.031828782909368 7.760428656278538
Hf 10.519161396557001 11.311258132988128 14.21811005642379
Hf 8.67840059679315 15.564712291285371 13.692743357739012
Hf 10.000403789108862 14.970172544540977 11.088682780212496
Hf 9.982270387828747 12.055200749764797 10.590704858568076
Hf 11.809789578411278 11.713376285212503 7.686995561953441
Hf 10.070976096108893 14.00574783585304 8.355274438648223
Hf 10.61345345054384 7.142726444177822 11.306029935520037
Hf 11.310361369502587 7.0898822345624355 8.606258860718224
Hf 8.190499760075726 12.766447831465124 12.800834325774547
Hf 9.124048780845287 9.451084490715452 12.358265945441188
Hf 7.674182552344754 13.540222490241293 9.859772258409125
Hf 10.444080822156277 9.256407146037546 7.134828583403373
Hf 8.755185541513223 8.558865642491632 9.46181836473052
Hf 7.280063142151815 10.888057888990843 10.631510693602635
Hf 8.725343713072078 11.378811752479193 8.048665525684347
