44
Energy = -382.03539829 eV
Hf 14.894904013488508 10.7720825893381 8.921882517287592
Hf 14.44487560292969 12.732838062600448 7.050590601363224
Hf 10.72043234804063 8.22749334920112 9.580233786546872
Hf 11.976415388688775 13.824821840030966 6.8518930690379145
Hf 13.43430184000455 8.477261989117356 9.624827060892528
Hf 12.042394115780624 10.893462985896722 7.831293170955099
Hf 16.2701135985885 13.412487973311325 9.259233288018164
Hf 16.9699807633673 10.973281603298897 10.79647994807741
Hf 9.105153131726638 10.374858148405282 9.27774796641814
Hf 12.140572348497168 8.17553450500145 12.21260772202323
Hf 14.430232546462008 9.453787154346323 14.674234563351282
Hf 16.621297011692526 11.21408828123603 13.690867968273793
Hf 14.182103450263622 15.48593578856343 8.237916474740805
Hf 12.999307962976088 13.34269406378098 9.503828269719206
Hf 9.996219892000093 13.070154600059022 8.823776990261537
Hf 9.50714357417269 9.345631335979101 12.106788041116902
Hf 17.58941727664036 13.493349927230623 11.844993976176358
Hf 11.715688917613457 10.697071999838812 10.648768353207474
Hf 11.34570233860068 15.76579598709261 8.6434784622011
Hf 14.451860031921512 9.937030941387485 11.942110037104037
Hf 15.527591907028974 15.531578212754239 11.087911551146924
Hf 14.863718143627391 12.819269430543866 11.909411809843458
Hf 11.74357166056285 10.744523782434399 13.716793288270443
Hf 16.36082255590347 13.907666684868992 14.439855505079857
Hf 12.74220506143903 16.1678167717883 11.052046383826013
Hf 11.697909893836066 13.49952091085215 12.370801560641462
Hf 15.568964848095424 11.626788822294747 16.655181722667663
Hf 9.814219798901316 15.113308947238442 10.925055739337301
Hf 10.302937992527813 8.920897358921788 15.093898218651983
Hf 8.926845925571795 12.242798871024156 11.422684512250761
Hf 13.854017319008985 12.424157479888654 14.768224659514452
Hf 12.78568813605807 10.181997316672366 16.6556296075041
Hf 13.865047315878636 15.352163241743092 13.823955208873302
Hf 8.741290627459026 11.299745694978094 14.364261647708792
Hf 14.836777327690003 14.51033342942499 16.6505273419197
Hf 11.092939526324978 13.5321211007265 15.3520089001561
Hf 8.817694070178632 14.233809959134726 13.62513772779895
Hf 11.060626257459313 16.04395845802252 13.622991052194987
Hf 10.158407771970728 11.212850473168295 17.010440609828365
Hf 12.87306852238959 12.84174691631488 17.81787240499705
Hf 12.2975397988736 15.717067760683182 16.74734589116077
Hf 8.279137343147276 13.273602610311027 16.37481298487397
Hf 9.453761478210215 15.816405749502389 16.032971165808622
Hf 10.318507739515484 14.089313569130498 18.113499122335472
