42
Energy = -364.95784811 eV
Hf 16.51821060553563 13.150636474315878 11.941280682824836
Hf 16.556874446375428 10.191616237059462 9.351424014650487
Hf 15.54339282500613 7.843228548257049 10.762803215806334
Hf 15.433842069011313 10.51957864864376 12.106220077529496
Hf 14.990337437177368 12.20750997635775 14.442209297491658
Hf 14.702842785213033 9.216682150006463 14.528137713969201
Hf 14.982640501955268 8.157802117127131 7.915193180153114
Hf 15.04305687442166 15.02133096333252 13.62221568853794
Hf 15.011853899855293 12.759766289852669 9.344030581014598
Hf 15.193697865288419 15.378363761401305 10.790254244986137
Hf 13.03496394716945 7.067654510984278 9.563284705035032
Hf 12.99381877930157 8.047894965215306 12.320776503584485
Hf 14.694882775436607 10.835388863601576 7.246356188161274
Hf 13.693078721430275 9.930112201923084 9.892650318024353
Hf 12.86818870154273 10.949233381816281 16.24586022607925
Hf 13.635362324790147 13.184192260003357 11.883309876785274
Hf 12.405374363200357 13.866858134598106 14.497035922971444
Hf 12.481971577679975 10.699253552313115 13.426979137782844
Hf 12.190668492117396 8.337131108754233 15.154110089140978
Hf 12.727640500296989 16.08877894029755 12.348299469997798
Hf 12.174236119875038 9.179799882831704 7.615939537269155
Hf 10.595845118755339 12.753483789981761 16.50943743938864
Hf 12.251184057720575 12.156735592233415 8.092269442102364
Hf 10.006201814015853 10.030599831935366 15.941100689016723
Hf 10.475596443335142 14.255666029624065 11.739348909100789
Hf 10.084846491044948 8.588139774662848 13.257258165429201
Hf 12.728605166725417 14.779129977749182 9.372570519837868
Hf 9.645064331530655 16.728061821146294 12.787455449537028
Hf 11.248988509390987 11.551612796961287 10.808300078544201
Hf 10.778422025565702 8.701494829380964 10.252007816461184
Hf 10.816890057058227 16.63772651260168 10.177968873597425
Hf 9.625535526901741 14.82956467215741 15.039097670441173
Hf 9.688684218645596 12.04132127056548 13.668097926789331
Hf 9.929683597756988 14.089090504923059 8.763542405873128
Hf 7.796975509253146 12.510338311553847 15.624507177860314
Hf 9.514591162058217 11.02709752188248 8.733708014680543
Hf 7.754930895262228 9.84906130754444 14.266702733034478
Hf 8.200706379986864 15.732836528383256 10.505498766443656
Hf 8.366455744640042 10.112258191476071 11.38509146695041
Hf 7.897943533928239 12.87255999667845 10.48890641383404
Hf 7.607814937026898 14.59960943216332 13.116509876466324
Hf 6.746683208567824 11.932379867980652 12.903657120682917
