47
Energy = -407.51938963 eV
Hf 8.169510590985533 13.943542963264875 11.510259470685005
Hf 12.10866779047498 17.568764766951542 13.139334900452317
Hf 8.569720684066075 14.421657802769616 14.393212045829822
Hf 13.166017718502987 14.602489189308132 16.460001203312277
Hf 9.426762248159749 16.001828378045715 9.596070838862202
Hf 9.700188857624125 16.22867419039686 12.539253817936634
Hf 10.960843226371773 15.858351947175933 15.17635538862776
Hf 11.970579574440093 17.284596611565114 10.119207754949915
Hf 10.568560456088433 17.878908214262626 7.682105632383255
Hf 14.40850660932353 16.552250832004265 14.65369505317128
Hf 8.02705519324436 11.047843038084391 10.744296601382477
Hf 13.753755588291135 11.862166380274743 17.05667465861896
Hf 14.371109547331654 16.859424073743803 11.76844421987066
Hf 7.9663257094868225 11.769438584624211 13.578700295881317
Hf 11.470471376864678 10.055788695785521 17.07014981803893
Hf 12.990845343559629 14.688126616353886 13.367668414314732
Hf 9.63315563251102 13.008601455074354 9.061454139768024
Hf 15.659715504446144 13.77531371335043 15.400619018839672
Hf 10.865099476663566 12.842074223872965 15.86541021306535
Hf 9.07912795532404 10.122752740837912 15.707122733100855
Hf 10.533180767589117 12.929138650295299 12.891551013054897
Hf 11.70916981709779 14.508532146204798 10.724763289979208
Hf 11.627750056855291 15.30922370201059 7.992417879633252
Hf 9.19964575160434 8.500107681146082 10.084694500006721
Hf 11.420424765446095 10.410848442022292 14.20605404070318
Hf 13.803663441776157 11.9244300546938 14.253571135022792
Hf 10.58284379327995 10.257547470514387 8.03721431802222
Hf 8.945933412566484 9.185999641580121 12.866648506690987
Hf 12.478359715892292 12.5276317223758 8.710701405201295
Hf 15.983500091571699 14.735244337291622 12.544801606707399
Hf 14.543714859611615 14.813222001449349 9.613265753862233
Hf 14.171951979478768 12.353133213781645 11.07485022229909
Hf 10.987694893430502 10.790658618775012 10.754474447912688
Hf 13.336999649999251 9.717060816034829 12.134409799542778
Hf 11.021370069312223 7.8739747997609175 15.129477585955856
Hf 16.598851411129782 11.853004220391869 13.009241266449777
Hf 16.076118913696426 10.900361697734406 15.711058019362376
Hf 13.845185151565286 9.066103920103778 15.795635976905192
Hf 11.255297329402921 7.378746209704941 12.03272884828591
Hf 11.748900972795004 7.993881835060555 9.367071661669828
Hf 15.809136670469496 9.020909653648069 13.4801835028574
Hf 13.66507613762825 9.89374874074851 8.961579747947534
Hf 15.368619178589524 12.179792925127762 8.381185327607113
Hf 16.90664857670615 13.08238121618509 10.416847785096678
Hf 16.124722227186485 10.17766774702051 10.553116494164389
Hf 14.180579498974389 7.53231276888216 10.872675544180268
Hf 13.557763316661203 7.189487325824786 13.683695666023748
