48
Energy = -418.47093584 eV
Hf 18.22479574823561 14.936485762473342 14.60050966267592
Hf 17.79373575081109 14.776301600724334 11.731203294186482
Hf 17.723079847226924 11.727817470853418 10.609572754830086
Hf 17.79080884839021 12.31034965348305 13.564641086556655
Hf 16.078801304530696 16.179965469548083 15.90733790488039
Hf 16.87112142441797 17.09047207303166 13.388919803098476
Hf 16.24451225100143 13.28727458365547 16.18877145210179
Hf 17.090816673461564 9.698102955105528 12.658087337763384
Hf 16.01897123774818 9.301804538528303 10.249450688242353
Hf 15.561284494963529 14.490133437689492 13.53234148472491
Hf 15.584586943395353 14.02274717172685 9.844927843562362
Hf 15.660675048317628 11.383572255895778 8.40484039000444
Hf 15.495326106587504 10.697647439197313 14.861404715934622
Hf 13.665535813962068 14.748841072278832 16.376687469851237
Hf 15.19161639266073 16.451867469626574 11.254691185691348
Hf 15.15528430419033 11.715001533017876 11.890727919546412
Hf 13.946719977043792 16.88404432389514 13.891640850271752
Hf 12.43160060113842 10.068206382981627 14.91098448071574
Hf 14.175105993738393 8.980214592089693 12.645332103517545
Hf 13.174808437499701 12.726905038267196 14.207119097135996
Hf 13.722738767570533 11.90062909225337 16.90158508571655
Hf 13.219978716036204 9.511360595626536 9.90212276433335
Hf 12.933364144812591 14.654657100333868 11.971349324694165
Hf 13.122491779759445 12.446832792208177 9.75092866596913
Hf 14.104024618446935 13.46619892726913 7.229329998013192
Hf 9.970461683507965 9.834035820623747 16.48980972173168
Hf 11.826452114110461 11.119549502235715 12.097708666669838
Hf 11.25945527203569 8.352145270243073 11.54386646476864
Hf 11.425959751743072 15.542761217621804 14.71081943051475
Hf 12.965507571913687 10.809825943655667 7.2873369503662095
Hf 10.299774288498252 8.09174110341445 14.208083111714574
Hf 10.55117344088749 13.722748036460633 10.392604977805881
Hf 10.993825004068919 12.62884657554875 16.12138780853514
Hf 10.675940927539978 16.36211880513518 11.877776710412771
Hf 9.939904942560993 13.82307948305319 13.264574932858295
Hf 9.560111157056765 10.94362484283171 13.865971700324787
Hf 12.723455919552993 15.226770101436617 9.04805752839018
Hf 10.484896264372724 10.547379625174953 9.621781660131331
Hf 11.271161885932028 13.022400312216547 7.646632875530556
Hf 8.60220959596354 16.28257113628385 13.872006470604369
Hf 7.73333291271412 9.001070354683282 14.8201261518397
Hf 8.486364767899087 9.13752629817952 11.895187935928817
Hf 7.763929625934423 11.792348423267397 15.918873083720841
Hf 8.122563597041578 12.131708548476164 11.151592803037804
Hf 8.847530411538566 14.54239060276975 15.967717797491018
Hf 8.115889647713871 15.08601678658505 11.310700099247041
Hf 7.039496613585958 13.78252070288213 13.75827743212865
Hf 6.650590021541534 10.981469028797553 13.240470910977988
