47
Energy = -407.37138123 eV
Hf 8.19582700249721 13.536561985935595 12.920391514930033
Hf 8.706286976815178 11.00458389717081 14.237745258926228
Hf 9.536447367234821 14.095829740241635 15.224658324440322
Hf 9.229042419049437 11.461378207897102 11.18973221616632
Hf 10.578832027204587 14.635158156158598 17.794276184478985
Hf 9.166111705365408 16.31522662310411 13.082066430934669
Hf 10.416520979776246 11.807792199279584 16.824905243766562
Hf 9.134675017661596 14.507857825650829 10.54588174790574
Hf 10.392149830015416 9.263516499395562 12.567245988511942
Hf 11.16789359913484 11.966485369300583 13.638381502953372
Hf 11.255622383074023 16.358036915562295 15.441813240463377
Hf 12.873184014626743 10.23781013047302 17.509086514315364
Hf 10.356100453961277 12.270901718126401 8.595876603426163
Hf 12.28178971420064 12.788598222219745 18.845333469105533
Hf 11.464481393694314 9.908553790450407 10.019271251233594
Hf 10.726004605782292 16.86264759094442 10.712091683217135
Hf 13.397919793788658 15.351236478087477 18.136043389979548
Hf 11.048785564967817 9.41760664408881 15.305291351163442
Hf 13.402029199776361 9.56982991307821 12.31268470818141
Hf 11.344835576372136 14.709246707078455 12.70274245244661
Hf 11.525028878772897 14.754171700399924 8.956617107174152
Hf 12.702076739791146 13.793661650997148 15.95489171824041
Hf 11.333111260681626 14.183131031357352 6.245163014015672
Hf 13.721010390204452 8.39328271518585 15.395490986736148
Hf 13.784599077130233 11.23488096941117 14.864100057650033
Hf 13.014790460504813 12.51213609718961 7.666468218482285
Hf 12.38643853017187 12.487004948296933 10.879289315853892
Hf 12.302367210581105 17.4751679406397 12.984702554282828
Hf 14.456665839802666 10.760712988283379 9.664014537276634
Hf 15.662024975585322 10.019090416224628 16.716186674364142
Hf 14.386536068504228 14.614627995072615 13.307407642039143
Hf 15.398398290077209 12.018459902051864 12.196395011202535
Hf 14.16347961917004 16.811447417857547 15.278459235837612
Hf 14.850491144842984 12.558128102428547 17.826411109318077
Hf 13.743988115068566 15.283450028349858 7.364828391061851
Hf 16.38468909311793 9.464499091422812 11.130673994021713
Hf 15.707032015692333 14.863452121807684 16.558188137405352
Hf 15.907292140436745 9.34901355321084 13.917693220276693
Hf 16.482196243934364 12.474106978424736 15.057173653930734
Hf 13.580057221041198 15.890527981808216 10.663331174667839
Hf 14.904658062027949 13.546413707649359 9.454004021761815
Hf 15.204324310342567 17.36400054944685 12.594201243764806
Hf 16.557097524413997 15.232744842509947 11.176405807115708
Hf 17.407479384300608 12.157823690583575 10.224423615044744
Hf 16.844010612238794 15.735501882796529 14.157049567076047
Hf 18.082572368594203 10.906407372319501 12.794476137373426
Hf 18.096545214752137 13.544774492765239 12.779641311375114
