44
Energy = -382.70192947 eV
Hf 12.563894071327832 13.034562372573824 16.43801195363389
Hf 14.922380223991427 11.227252215766061 16.386465332071534
Hf 12.334516016549035 10.113490496003758 15.669271259334073
Hf 14.976041684999242 9.01030102328627 14.509414526787895
Hf 9.720428436794556 11.85294277518645 15.807658094353767
Hf 9.715258493724882 9.02826760939543 15.199770272499917
Hf 16.723331722778408 11.530340071880133 14.244894571598754
Hf 10.264690432485917 14.70591992684014 15.880931811381638
Hf 12.071338323630185 7.869148831930762 13.922428359777122
Hf 15.115706932264668 13.81544296020403 15.373830709279545
Hf 12.819409845422934 15.750478092910267 14.94361931311534
Hf 11.626335204002133 13.64073275436997 13.631166124770548
Hf 16.282993484636982 9.71430418499123 12.144283228905158
Hf 14.001146521706657 11.681102929487677 13.635550610354791
Hf 7.918384974467972 10.59041462934878 13.549824804341885
Hf 14.505047275458233 7.484903183733855 11.622266458290003
Hf 8.561568829903186 13.553673657822102 13.784467000893041
Hf 9.399238387921526 8.102881366310946 12.504940738987921
Hf 10.666437871931445 10.88763159576079 13.187660975496671
Hf 11.687995654597199 7.032433362959749 11.221272364626783
Hf 13.093976622614182 9.672511348071101 11.794882313066548
Hf 16.09448835638637 12.409841142431482 11.282948512397923
Hf 7.657395976720942 9.579809628684696 10.886419139183511
Hf 10.112724466937909 16.283466324402134 13.525334387988007
Hf 14.474317397757051 14.437480829117664 12.64387923522253
Hf 8.019160331866754 15.325568879543644 11.66253761471878
Hf 15.19083382922086 10.021895202248837 9.603741338132863
Hf 8.34837191566501 12.482261268967287 10.79707841762198
Hf 10.75185464001321 14.193602650436455 10.904411293053426
Hf 10.571306571088236 10.429198652195302 10.200768731415765
Hf 13.21161037270616 12.514595957655219 10.475727753634537
Hf 9.572463262883769 7.940392652131615 9.35070464549177
Hf 12.58674401594535 16.463732304834686 11.843617360864151
Hf 12.655459777743356 8.309209530983901 8.972688422405367
Hf 14.492325760481084 15.123545096402257 9.787283466615257
Hf 10.033837444453553 17.010844781772814 10.719594711195924
Hf 15.373510379919807 12.679576649324517 8.500133843947783
Hf 8.29751459249994 10.604695380063877 8.468001092929722
Hf 13.124202531891418 10.953118446000191 7.79532305503404
Hf 8.827421760776488 14.987097689023757 9.015085766029385
Hf 10.435686703488237 12.642806570746671 8.252371601205299
Hf 11.721244815975885 15.983919315019284 8.80997148359587
Hf 10.61728875954426 9.717831774174742 7.3069746028165
Hf 13.034652651258652 13.798610172852738 7.6788255597962625
