40
Energy = -343.64019274 eV
Hf 6.651288247489309 11.916540374468577 11.55411974843524
Hf 8.452429151585374 11.710928384853387 13.73541296989886
Hf 8.680090603961206 14.142497135073775 11.883874188851049
Hf 10.150382560267841 10.977981000270097 15.862135807334854
Hf 10.18283984726053 13.760161737749137 14.830655111493169
Hf 10.434803345455755 16.185769097410123 13.282305633541682
Hf 7.429844772192377 9.958344067032666 9.3778212541598
Hf 7.462943689903898 13.052369561022461 9.272963773949577
Hf 12.436504228173842 12.570450082897949 16.467303236803705
Hf 10.200836739414322 14.038284539303353 8.997946410633384
Hf 12.5897561724975 15.570100414166875 14.942435262232522
Hf 10.688746967382171 16.289439386808773 10.576094986316324
Hf 7.538057274830558 9.436887382265503 12.296499195994373
Hf 9.476281745957122 8.213080737108353 10.90027090521096
Hf 10.05446731497206 8.816345766682883 13.888463849400411
Hf 12.638912827871135 9.716168227601312 15.559596619498933
Hf 9.52637820363588 11.336845079473955 10.67158240834446
Hf 11.478288702177561 11.088920973604147 13.20612805208188
Hf 11.544655189536714 13.854689667311634 11.843952031153597
Hf 14.59054947182889 14.447198329655079 16.584292356166497
Hf 9.239587674811748 11.655700855641722 7.698146693704057
Hf 12.897976863910335 8.260765537555642 13.205546293148695
Hf 12.161405308087454 9.106472989853852 10.591030985012798
Hf 10.27005894141475 9.276617640141268 8.484153003507485
Hf 13.712459657950598 13.100823865048215 13.894008504330827
Hf 15.29886169240239 11.749881657669752 16.190082119472507
Hf 13.15054649087024 16.338011834266688 12.089654368827206
Hf 13.633872177531316 11.568411749291563 11.145710009829283
Hf 14.80767618840492 10.356851384175947 13.574027934824025
Hf 12.001825889950188 11.85083111029223 8.6886908179384
Hf 13.038368827523573 14.830904703061915 9.535721680171639
Hf 17.217631186841047 14.10928267276159 16.14045571794216
Hf 15.498030217348932 15.560625721962547 14.128155868356894
Hf 15.124549719475684 8.799262657941977 11.02629115718132
Hf 14.002716576207566 9.911374844177653 8.605367946664682
Hf 16.596921424803245 12.878930389031137 13.778413414055919
Hf 15.20288844854528 14.18009509075576 11.386856016472555
Hf 15.160637327032347 12.576782894480228 8.758671571938438
Hf 16.496002657109532 11.401935807621026 11.080331712643916
Hf 16.730141565060663 10.000005572947407 8.74043508447013
