47
Energy = -406.65642047 eV
Hf 13.030755578249837 8.115641421539598 9.168771637000184
Hf 15.652938884202257 12.064117865118602 7.148293238040982
Hf 13.389879970594805 10.493782576087627 7.456250578927487
Hf 15.674301799354765 9.75596673796324 9.092888206278227
Hf 17.285178108822425 12.328919656765626 9.509632880084787
Hf 14.894357685924348 8.216020208911585 11.60088625865705
Hf 16.175279602390663 11.031884727324577 11.879448504630707
Hf 10.10002912008605 9.131547605949283 10.235518145995528
Hf 13.093552977319248 13.566751438791776 7.441183938989705
Hf 12.123222430712127 7.727942820064403 12.042582093701665
Hf 15.838713497937063 14.535522969706314 8.484444710643563
Hf 16.23052251025292 9.046760999784663 14.115681987779046
Hf 11.053486957201555 11.48921531384155 8.463901847859532
Hf 12.894685966478391 10.310707718944046 10.667086799448098
Hf 14.42924895584686 12.453081142505066 9.794489084556316
Hf 15.980274753723316 14.13111413894954 11.523764175672433
Hf 10.504800618059473 14.441011100145923 8.984304842286706
Hf 14.024120581741101 7.37546429946993 14.35577905214282
Hf 13.828671926972419 12.801201797054283 13.133521699994686
Hf 9.461037521567068 7.858420723882303 12.928819554730321
Hf 13.537102232222907 10.082509521874078 13.683634076261036
Hf 16.1756494753626 11.719509963898139 14.847704952062447
Hf 13.38652155075713 15.389432006385178 9.67809794622227
Hf 14.353883309063383 9.723983036369047 16.289758734627878
Hf 11.33542643360453 16.803935359917023 7.930795578995091
Hf 10.600875506751047 10.639182120640863 12.920973863411287
Hf 15.522871775970854 14.596452566412212 14.50803354266724
Hf 11.7040077947013 13.120991550662714 11.094796247450338
Hf 9.029064997387055 12.100053061344678 10.523415910980003
Hf 8.87448666648923 16.699032076127505 9.42894160182526
Hf 11.386738705800665 8.436472748932687 15.003441148897856
Hf 13.099632257364528 15.477433190119868 12.717917079017008
Hf 7.896156796394722 9.922018361002964 12.029575751794523
Hf 13.99799353141722 12.839221960152054 16.200393016274678
Hf 11.04417677833509 13.699452292456863 14.271681971170832
Hf 11.514025458871272 11.105213619530547 15.847499790962551
Hf 11.256642205508529 16.8423556289007 10.740092160150468
Hf 12.960554049653204 15.5261708595042 15.669704327504473
Hf 8.583030764510989 9.808240120654306 14.82421783336426
Hf 9.442557796803495 14.931658585291032 11.891752808880794
Hf 8.170726229837735 12.42311156827261 13.38376042283075
Hf 10.70303258387203 16.658575850880602 13.962767355557641
Hf 11.145097287092888 13.824781324147644 17.28746932705957
Hf 8.901472402861701 12.442102061201341 16.142688178068084
Hf 8.486421905069196 15.107274034313809 14.99747412389504
Hf 10.319329558981 16.506910026190916 16.75111601828069
Hf 8.515256028839854 14.795763943817667 17.82284232645289
