47
Energy = -409.27684757 eV
Hf 11.757368315719752 18.74156404220458 12.79079200962822
Hf 17.62288096253447 9.645099909698972 13.999091726242067
Hf 17.45287921231381 10.89378584226575 11.475254004770584
Hf 15.153404636449878 10.996385916098514 13.250689657087419
Hf 12.789969673847207 12.216003869861993 11.770998026650968
Hf 14.152500740950876 19.522466009992836 13.999014516062546
Hf 13.459908993198809 12.37231975667073 16.296012338957684
Hf 9.86855324474599 15.418212600083065 9.629799734283097
Hf 8.757032366309772 11.82499527582793 16.257739949453395
Hf 15.292451244759498 8.268336362485204 15.072306426267382
Hf 14.291593761516294 16.890275162124187 9.029972310050098
Hf 14.346979162589207 13.850022981310866 13.847951394198235
Hf 14.940340385144632 10.86091898697158 10.220615916342346
Hf 16.263220664815215 10.950467899978426 16.102215262397305
Hf 8.218027066515294 11.75809545873098 13.49285107137985
Hf 12.436461382759452 17.84056617941617 15.545731936471139
Hf 16.504864221090063 18.25304720427243 13.084133616786481
Hf 11.630035723076833 15.175257024906934 14.201360468801806
Hf 13.846099167142489 9.654965283542193 17.069421599088503
Hf 11.149294349936126 10.436717698956196 16.97044365480417
Hf 16.099301764408988 16.24604748572716 11.025142897650557
Hf 17.52364285447621 12.582765108405656 13.972425425573503
Hf 10.029497777097605 16.553018058549437 12.167287658785526
Hf 13.93430027764661 16.791576202340444 13.171534009421503
Hf 12.873442592308965 9.117160377426977 11.162403775468
Hf 12.095193592143021 7.625708704119023 15.725329279114264
Hf 12.63726853112247 9.793751792089344 14.217120061479903
Hf 11.548450991752247 12.983562501439993 9.308424895727493
Hf 10.970702245434591 12.22173643313053 14.39333203703256
Hf 13.58418928697319 15.303724097810703 16.29078549161428
Hf 10.913438981142507 7.825543792076315 12.929094666719797
Hf 10.884494800760912 13.621480851068702 16.97078870299442
Hf 14.416435489337141 13.941658040375875 8.993969809554635
Hf 10.24596359081959 10.434374283086301 11.920943548894101
Hf 15.429151523990246 17.49018725634113 15.6725607602808
Hf 14.305339434733417 18.845468935796294 11.154532682227385
Hf 15.791905649343244 13.3163841562501 11.454432081268903
Hf 12.180356190096594 15.49002284289322 8.082704289611913
Hf 16.83915000518409 15.557745346450352 13.850960929809236
Hf 12.566651593914703 15.226770031890867 10.9648844864938
Hf 11.648956158064173 17.813270082118528 9.927688355733384
Hf 9.528582211037007 9.43130040246548 14.776277874812388
Hf 10.086802867940651 13.62599468954037 11.95544817822298
Hf 13.5170015204037 7.133464907873734 13.168090986318207
Hf 15.782196654392001 8.497782700303487 11.961947189356234
Hf 16.14297036146591 13.975337341815639 16.188205960333757
Hf 8.957364278639016 14.256313625380344 14.75100066300936
