49
Energy = -426.84734905 eV
Hf 10.469481028677265 8.277331594212052 15.735393415521246
Hf 13.751380297433178 7.678241140495436 15.207616349373362
Hf 9.249079286713894 8.268323193809573 13.006334058602395
Hf 11.736366241258937 7.1796235684693865 13.209509407665912
Hf 8.533692078707613 10.58217462886522 14.570707435044811
Hf 13.088941116529 10.515106070580053 16.85175305238705
Hf 10.438474594952995 11.154481805010471 16.68720975465536
Hf 15.769447363597923 9.398562671140073 16.66686033738946
Hf 11.456569745922462 9.964044008196657 13.990524151481823
Hf 16.467618480509973 8.103428093369939 14.185203737751017
Hf 11.111846182485657 8.861009552647133 10.677207664625893
Hf 14.372735130380057 7.891455254705833 12.267087201019915
Hf 14.690808259336537 10.33360508929239 14.232725965416877
Hf 10.301757451289522 12.34091420807989 12.57968165514448
Hf 9.538089900322165 13.405800962950623 15.27015918501993
Hf 8.319065611290785 10.528680235405828 11.507382193848516
Hf 15.216681655501564 12.387161895214058 16.283022053285745
Hf 12.65556081961045 12.528848512466228 14.623858569806103
Hf 11.903347539034499 9.917938869653707 7.725647839909528
Hf 17.430874076674996 10.755508571392808 14.66759133800017
Hf 7.593372735962985 13.060288707186057 13.04347066289075
Hf 9.2870290310141 10.256590652305176 8.711236045571804
Hf 13.202065705836363 10.53766447392771 11.922080216141087
Hf 14.113941129175966 9.737063946003166 9.468807071314526
Hf 16.415288212880583 10.052044886061243 11.740265742726532
Hf 12.227872053058597 13.588624119917412 16.964893936153825
Hf 8.776835317716442 12.993420391244653 9.81778484888528
Hf 11.5377802454861 11.725637493814787 9.905678295908759
Hf 7.0551018815996205 15.117399745624821 11.103860758556301
Hf 10.528305233605279 12.437736629787347 7.357946684723813
Hf 15.937114993601291 12.941659645571479 13.439795487445426
Hf 8.3264513539283 15.94511543109553 13.74744507317658
Hf 12.994748813542737 13.926957756454751 12.000416240597477
Hf 14.26401595511095 14.934448317050178 14.669767102904657
Hf 11.467253562494983 15.394700537830841 14.299260146229338
Hf 16.5268626657054 11.268277167643424 8.766378327232985
Hf 14.903457996186278 12.437506863436745 10.64348822698246
Hf 13.680918818267628 12.592234548830822 7.973093787921022
Hf 9.9995337793953 15.262319327729635 11.575961104639507
Hf 17.655349210369476 12.82054203763427 11.035523576391206
Hf 8.762557111164426 15.854246672943717 8.971164826104218
Hf 11.39625316887417 14.630477294569785 9.018503221013608
Hf 8.268590216402568 17.595942629124394 11.260326779500675
Hf 15.824009832836452 15.166678848108665 11.562747583242194
Hf 10.520156517373781 17.834053631007585 12.865016745147308
Hf 13.984342030956594 15.472452040271628 9.411616041233543
Hf 12.89317160702405 16.634971288961747 11.938864429003205
Hf 16.333059612690988 14.096042171520569 8.81859097693615
Hf 10.902759245844413 17.534317141441505 9.960151162747325
