42
Energy = -362.28172661 eV
Hf 15.073731120740991 7.4321430824011046 11.488955983106802
Hf 14.513724362739884 10.082735240163004 10.200431645581707
Hf 13.539365441360218 11.15251748670718 7.692401898567246
Hf 12.614141967162016 8.625561012452895 12.228042492062986
Hf 13.765896060042117 14.055655346277353 7.450045578812954
Hf 16.314168566933443 9.728978221469594 12.369738657608854
Hf 11.546559903927731 10.361524003846133 9.629661597391674
Hf 15.771154292302695 12.39707412968749 8.74464937239038
Hf 14.618318842366202 8.45677131463354 14.219238566986638
Hf 10.219219117821945 13.089627005722985 10.622998119449013
Hf 11.24772400255333 12.667330731209962 7.880289683960809
Hf 10.726825724069366 10.708166193487754 12.457973328349725
Hf 13.61865761607458 11.49421191109973 12.937194174505283
Hf 11.521732115425873 15.194060120555669 8.9640612021386
Hf 13.204376934475121 12.960738725763292 10.10607831291567
Hf 12.150007521506671 9.997941307648693 14.920302288960285
Hf 15.883407353285403 10.883927988167919 14.875683593746194
Hf 15.8811814705206 12.601779389259898 11.730195566478379
Hf 15.42646578600554 15.054917544214621 9.892529288851513
Hf 8.287107743522517 12.13604987696764 12.598202212429918
Hf 14.084007785536098 10.229834234952019 17.099255621623165
Hf 11.432378842207 11.544303682516235 17.6304326699744
Hf 13.333905613359804 12.814907220286887 15.901400629667066
Hf 10.826777525926772 13.487092825608919 13.631769588483037
Hf 13.897750522560308 12.515713435694973 18.84338304698605
Hf 16.9490498964009 15.261526448756333 12.517479348796424
Hf 13.251335665820347 17.072943269471985 10.246517774148748
Hf 13.907121259983999 14.944827663604663 12.505775315758221
Hf 16.121249282126474 12.325112172155361 17.26170489205316
Hf 15.9141970250149 13.831338824840934 14.701829873229473
Hf 11.041456534415694 16.00809005217774 11.718714544769648
Hf 9.441266067615445 11.367184402400703 15.228285177050141
Hf 8.487960744903486 14.929540636913949 12.236392798456148
Hf 10.097293141278485 13.967583741699471 16.565143764146704
Hf 12.28968761467316 14.59284578954355 18.08641791987542
Hf 12.698279615365658 15.652948759946211 15.327213210080467
Hf 15.479223006808413 17.43109257745859 11.704260277846656
Hf 14.937403759787076 14.884567665941093 17.289701897947914
Hf 15.347279247189068 16.675410517988098 14.446826338836537
Hf 12.935313817909345 17.674232689827974 13.123222771201263
Hf 8.053522950884611 13.843197416863877 14.772470859400979
Hf 9.852408508554452 16.171051544344692 14.439821484018733
