49
Energy = -424.57567802 eV
Hf 14.495946239529376 6.785280221870806 16.479232562814644
Hf 14.524095927210002 7.475188642492315 13.514607668737863
Hf 15.412170964084098 9.303703325145065 15.803296766327701
Hf 15.99849976553431 10.07364511542079 13.156402674662031
Hf 11.664579658490517 7.983216950003083 12.53836240162095
Hf 16.571887273840744 12.160003052427127 15.072179515981002
Hf 12.179365283481857 7.058757471007501 15.189686025707863
Hf 16.338256130811867 10.908376079288095 10.107753984418116
Hf 17.188143739318335 12.544186935533155 12.355599605869818
Hf 13.5837792753842 10.076188106140064 11.344743408947979
Hf 12.676842123841341 9.094304178208619 17.141763351606926
Hf 17.35216266658621 13.744632552005973 9.901769936678853
Hf 12.989183057109122 9.895509518832721 14.321295813606483
Hf 15.408979976104433 15.505187472904321 8.869593653946694
Hf 13.949137976733885 12.099609369848796 16.119883629953318
Hf 12.337398334268277 8.351793398009765 9.563943980240417
Hf 9.684760736769626 8.550001004978336 10.458996248360014
Hf 15.082625395242665 14.606919272106866 14.974091699672993
Hf 14.313821744286212 12.503983152156666 13.090643964495294
Hf 13.664233782267925 10.843863767274366 8.229110697314127
Hf 10.319305316301808 9.246493846632264 15.25087342714509
Hf 14.401090406126677 13.149269591211775 9.998679855084582
Hf 16.137375558593945 12.583022793980714 7.7271224356970825
Hf 15.64310137607596 15.176570460366753 11.998015908519582
Hf 11.063086258637156 11.678018816735174 16.704051813909807
Hf 13.871640675820403 13.900601167433539 7.097249966114044
Hf 10.575701524093883 10.703079745507022 12.394167884768724
Hf 10.530159863244895 10.2239546663332 8.278243901014324
Hf 11.349073613661984 12.913809472114545 14.178049282221092
Hf 8.271024300676357 9.318603357712895 12.876277033840257
Hf 13.744213333714296 16.94351061294313 10.74287877941042
Hf 11.587278686927107 12.228822645076855 10.007077572264478
Hf 12.409833959916813 14.751337772207137 16.05593125512098
Hf 12.51421257545301 14.574943240274356 11.829333479807271
Hf 13.263530367901021 16.58143630577577 13.625169256282591
Hf 8.628255031693167 11.59923430073511 15.000200166305582
Hf 11.515650057969227 12.621569664746788 7.110901852582773
Hf 8.178298335043415 10.992917222999312 10.323553352695773
Hf 9.597504377101208 14.091016215151583 16.202851105284182
Hf 11.937232006815774 15.092225995765334 8.98852094182307
Hf 9.550507827918223 13.695911501196512 11.869008124845637
Hf 10.289977735946488 15.957287291360274 14.199095357231046
Hf 9.18148049202655 13.119154386214625 8.598035036915421
Hf 7.035304847703931 11.87665453488959 12.683684540583087
Hf 9.14410587289535 15.708886079240308 9.639028473833232
Hf 10.984494619089858 17.014078173074378 11.472951524858434
Hf 7.672015120808251 14.31142962714021 14.038081993208456
Hf 7.043397320712303 14.029858198558129 10.765507350173136
Hf 8.244763507451728 16.35152050636275 12.151573070835989
