49
Energy = -426.3978167 eV
Hf 13.830508537857853 10.597449112969368 17.62247974834566
Hf 13.435537937834358 14.666873003460722 14.909362774292216
Hf 16.2940119972868 14.345736689641756 14.024570698188315
Hf 15.062366972136207 12.356152107938614 15.64664886893515
Hf 12.027527536206376 12.484431105816224 16.546678367952147
Hf 15.842791945273046 9.661196255277641 15.633932134784688
Hf 13.760840572251533 8.035085007470682 16.896841666193634
Hf 16.710462375602237 11.572322859368526 13.114593886320408
Hf 12.365638924027031 17.178136548310846 13.940212502462414
Hf 10.58618784530128 15.040826277177802 15.073330305533453
Hf 11.126456392922282 9.681602276139282 16.705898749346257
Hf 14.498954432104396 15.932492279700064 12.413353880764316
Hf 16.545854786821433 14.0255340349172 11.17748196223802
Hf 13.17357512088538 9.969952097387313 14.757835030837184
Hf 11.537077681429741 12.416999658343316 13.694653800767117
Hf 14.286684237343145 12.81039626242278 12.645341254707308
Hf 14.308017525421285 9.722201512066594 12.057881473796359
Hf 14.627559727413205 7.415491279220591 14.141462328094846
Hf 9.099047253098743 11.871115561522396 15.07184930553782
Hf 9.761261402954021 17.056444349166732 13.072193793978752
Hf 11.962057946671393 17.42740513788272 11.071325913677168
Hf 11.749573254425506 7.351953089094674 15.185615217356318
Hf 11.585617978104548 14.933754309812057 12.239670335484934
Hf 8.553067416786863 14.441899911940778 13.103394351950138
Hf 14.55351274315506 15.982235937009895 9.572219303857354
Hf 16.027779642944047 11.362521226323615 10.039591552012192
Hf 13.635658297912777 13.171066808514512 9.759104047859896
Hf 11.56606438564415 15.454900585840692 8.82230962465331
Hf 14.69788536662766 7.322853021158723 10.793444264542643
Hf 12.400924570613995 7.175793946354695 12.54024774532439
Hf 9.17077425023463 15.986073777304325 10.487374233917292
Hf 10.258253275317779 13.2170619225419 10.224036739464825
Hf 6.543884228465835 12.30229602050328 13.362890535399531
Hf 11.750399548858184 10.782269501143674 10.999004033988284
Hf 16.202064844139215 13.824110531975341 8.39811893403926
Hf 7.606028226385621 9.61743596668252 13.524320317241548
Hf 13.748976694887325 9.810991322092633 9.001063963386148
Hf 8.999679189859101 11.620978009807148 12.199651290009063
Hf 7.226478056480127 13.491032764555108 10.544243534802892
Hf 11.972295840471675 7.9661083470947975 9.990791900166874
Hf 10.515657234775636 9.390168338489293 13.44163769137374
Hf 13.752148031892046 14.54306017078604 7.199934836088389
Hf 11.575519379070153 12.552823248041875 7.730198686628411
Hf 8.943019465084333 14.165843555129742 8.076661455719229
Hf 14.61996207371355 11.874210803325939 7.281810423767763
Hf 6.593227710173074 10.631020514964126 11.016545631851887
Hf 10.775524450092348 9.845196308647367 8.359023871368604
Hf 8.38121107120238 11.351548006676676 8.858292015018295
Hf 9.119889416054164 9.02600182238594 10.735722404668412
