46
Energy = -399.7802371 eV
Hf 14.144166781500553 10.794566371200219 7.820497834503262
Hf 12.89685978188587 8.976364608206596 9.548680227641023
Hf 15.452036003491727 9.78492995252753 10.466785731743954
Hf 13.668082149528095 7.35064486238905 11.719532989221419
Hf 16.327656304972216 12.203349024643847 9.080150374220732
Hf 14.407627936584223 13.696139800762836 7.810211727454296
Hf 10.484710770773969 10.473512059427318 8.891923120957042
Hf 10.65434168247378 8.421506929449803 11.182538021408563
Hf 14.221104955681408 7.995994846925315 14.525001570706591
Hf 11.41914436082274 13.33788567104287 8.649794144018813
Hf 15.943567543256044 10.210114809520032 13.393838452406497
Hf 13.611501060538986 12.149196131109651 10.142440257033384
Hf 8.352215885169958 10.047651244957809 10.649946255256022
Hf 11.42965512236811 7.395291962990526 13.831924791276135
Hf 17.037477400994423 12.421667335875188 11.84619363452642
Hf 10.858954797666463 11.73815092366249 11.394189821840417
Hf 15.354709919378779 14.632473957728452 10.510253382604393
Hf 12.912643393579634 15.872496850852762 8.829885903044275
Hf 13.02782783556495 9.867958574025295 12.670936959641269
Hf 14.310257445064458 12.555427854108094 12.852243768842614
Hf 8.758101211908116 12.80687201247688 9.887337543093336
Hf 12.137416103819143 8.887089808976008 16.105786827858633
Hf 8.096816936445139 8.738548822905416 13.196587662495688
Hf 10.277059248705177 10.275628209990746 13.981160144854117
Hf 16.358544507305574 12.912890573109403 14.780905290869484
Hf 12.16854110403877 14.573556926211415 11.470183171925216
Hf 12.217583873920049 17.589795569468176 10.870024662844273
Hf 10.169019302124694 15.740761638370206 9.863653754060206
Hf 9.447641395545974 8.390711233258425 15.913657864770805
Hf 14.035949837233023 10.966046000455055 15.334768946962015
Hf 9.503562190448472 14.126686472858971 12.735615420760345
Hf 16.852460251114632 15.368286233589792 13.021494539445314
Hf 11.738575153030235 12.701072796468262 14.268379625097037
Hf 7.7221992886971815 11.714125305067345 12.829936389216096
Hf 7.7461893337382515 10.501392663441921 15.460411331786494
Hf 10.255860448318124 16.848152544689388 12.592937793719653
Hf 10.432482578820869 11.125582970986887 16.739355335648067
Hf 14.985175257173651 17.317138592043992 11.639517016353764
Hf 14.009803702200113 15.398166921633315 13.749375522505604
Hf 16.025459935060265 15.490825488549493 15.906793869642396
Hf 13.632498199956599 13.861401027743849 16.272699330826356
Hf 8.940856251088006 13.009560404010887 15.244439483628105
Hf 15.613346069479201 17.734440321081706 14.360712130931171
Hf 11.233465498869299 15.444625318553863 15.01857122871384
Hf 12.775026819176988 18.017960991220665 13.631424028038724
Hf 13.555374171284551 16.81564448517604 16.193583077048345
