46
Energy = -399.11410444 eV
Hf 7.653532024286074 12.149800715673862 11.140354941307226
Hf 8.368818705829426 12.753507263020136 8.339781559000896
Hf 8.041747495358923 9.977343294731687 13.034252528146231
Hf 8.749360699721324 9.849944886112722 10.037789574495577
Hf 9.457983038525686 11.3152160872644 15.718351703639287
Hf 8.60060445631144 14.730136099367531 10.805942672376199
Hf 9.228185479500302 13.193279880024264 13.342940322409133
Hf 11.157902221105719 8.405587807178083 9.616376740812516
Hf 9.934675120116507 7.992600684613541 12.109813715010311
Hf 9.9856960682298 15.24190429025533 8.460205468205277
Hf 10.203805823088006 14.275787990356807 16.062374128425862
Hf 11.033974118535195 13.218160348553637 7.021237051027095
Hf 10.546654376642595 12.65965582672675 9.873814881284577
Hf 10.220286289612936 8.823178098536497 14.642088961308614
Hf 10.41584780927851 15.85612743510401 13.500814461957225
Hf 10.794566790149362 10.506175506834296 7.705006746091766
Hf 10.614119954021406 10.791709262912383 12.363739807928852
Hf 11.87251636041884 12.274960654785424 14.612633676806636
Hf 11.296302213488566 16.227811760237532 10.801846447405278
Hf 13.89493218853275 7.9144149111225275 10.431031143142418
Hf 13.321186520333884 9.150591370076716 8.012365849731294
Hf 11.616661568854223 12.207938861396714 17.53841293246276
Hf 12.26516920531178 13.601578140963204 11.919061642463761
Hf 12.869800362538328 8.991255539308845 13.163146121114258
Hf 12.328888694394106 9.901088370283576 16.18906102046161
Hf 12.959516242066954 10.804259210414315 10.505341112310365
Hf 11.426472435856995 16.865461952651465 15.8857594283375
Hf 12.849463550902028 14.595708414702948 8.96341103277085
Hf 15.542810236262333 10.21982073743831 9.445314735784017
Hf 12.76438003426336 17.689692901200438 13.461130329713642
Hf 13.33374447418538 14.98540930975968 14.412249618048163
Hf 12.970004820770772 14.826079374444099 17.311971904979334
Hf 13.538297640616738 11.96966405060151 7.838744411253188
Hf 14.45090204227004 11.864867364969808 13.19939665232235
Hf 14.333200658408185 12.266973501418907 16.269818909359515
Hf 14.185645788006244 15.873989922081279 11.488107923153322
Hf 15.648743350394396 9.251442791843699 12.19798229325293
Hf 15.213085410164911 9.656999341207264 15.065638367833937
Hf 14.988316799914424 13.007532914334483 10.461256686168126
Hf 14.125300782835506 17.282010906153477 16.114032915576992
Hf 15.561257314354544 16.87868612882817 13.828361909905322
Hf 15.759377675946975 14.909425784257984 15.97588840261553
Hf 16.25519174181563 14.230814904686754 13.082243113970064
Hf 16.98060325480648 12.022689610398032 14.880042282661968
Hf 17.955469662506513 9.652456620422374 13.802085749732557
Hf 17.311126538238884 11.74924026843473 12.01138531508778
