46
Energy = -399.76149898 eV
Hf 13.251557047451143 6.393222780912054 11.874953851651297
Hf 14.365376361792887 15.896025838911918 11.451777537295152
Hf 15.485426036095811 8.267660660225436 11.76249042061596
Hf 8.500786238122659 16.026126087356655 9.374446648010219
Hf 7.225499582145945 13.49823794031726 10.367679956207958
Hf 11.09877290286177 6.773563862984846 10.163521257532912
Hf 12.22702820865661 11.522090477637631 9.756182234135668
Hf 9.047803804790007 15.260432998313268 12.08433572089245
Hf 8.173627189513441 13.7414914397062 7.585061338387344
Hf 10.507922714931198 15.355256330555331 7.384401201019584
Hf 11.591194496192172 12.515626235157601 16.55063118872043
Hf 8.461630728922744 11.111966724221489 8.793508840028192
Hf 10.833101378487315 12.266939449595094 7.223616369078948
Hf 13.521883554368653 13.43220726683658 14.028951952330399
Hf 8.649891220726055 9.720314883718093 13.561882581301328
Hf 7.068917258972806 10.737775485440185 11.338179424696817
Hf 12.49425986881362 9.039445775263644 11.21253010899258
Hf 11.452288435441513 16.255984902692177 10.341239038395326
Hf 10.130250883168328 13.775090093523595 9.6679023959482
Hf 9.136075595806375 11.525902344347545 15.661650952426955
Hf 9.729469339267807 11.67094424716731 11.513123239317201
Hf 16.124300094446667 13.867073680093457 12.283355258784306
Hf 17.003757032065046 11.044880876228376 11.840098758058822
Hf 10.707081421145716 13.597024683877995 13.79873035251675
Hf 9.234550072438498 14.340249501113375 15.782365266970023
Hf 16.25120816197469 12.419080536344072 14.65333212513817
Hf 9.270916822355645 8.864387934014003 10.83781679157509
Hf 11.513968308830908 10.723645247584924 13.616634285749253
Hf 13.97672401625936 10.720744517212283 15.818292971764334
Hf 10.812606217122951 7.510497909742946 13.1054872133492
Hf 10.951103589783514 9.16015113141296 8.408470819757854
Hf 7.771149110272124 12.826137454714388 13.41207467508224
Hf 15.010185356794954 15.608190632061609 14.500558854279639
Hf 15.121948535825009 12.69625908854148 9.898614788168345
Hf 15.372277840770755 9.935455453304927 9.571135343573726
Hf 13.621538097082384 7.644081475909559 9.029441909129082
Hf 12.187812717060142 16.264536807457468 13.263529291557314
Hf 12.293354381527891 15.295042396507487 15.915865824534434
Hf 13.427374661309322 10.410990991891905 7.585784333402581
Hf 12.838656780471764 14.156705350541497 8.576351988876628
Hf 14.377817880104809 13.494437361988114 16.709563801596182
Hf 11.20127478381069 9.386108865759883 15.914038906367738
Hf 12.573343066283275 13.704001616358504 11.402707016376759
Hf 16.112314926270397 9.532882324091984 14.283617313155622
Hf 14.384343579938442 11.053035488814439 12.497225448019835
Hf 13.462827775310766 8.297265426985614 14.125530367536127
