43
Energy = -372.76108397 eV
Hf 11.8238933460883 12.995621879603048 16.818545792005157
Hf 13.384438887858641 15.132787473389735 15.060577457127843
Hf 10.615529493039139 10.286284784757434 16.5109660493317
Hf 10.321655662287785 14.876921248246186 15.046301667631326
Hf 9.229543575362879 12.228674676396627 15.51405348605611
Hf 13.359135266250856 10.506083414847259 16.69215865840037
Hf 14.792238458923826 12.55233618317068 15.31106530995512
Hf 9.461660906488293 15.689756445969003 12.268162332387895
Hf 11.806072136912153 16.709817133402222 13.442639607861455
Hf 16.184587596849628 14.805798565550909 14.191258048489988
Hf 11.982172730847557 11.640586286443915 14.36519535303198
Hf 14.4797120389429 16.406903990484377 12.411653501609914
Hf 7.152790571741579 10.690346143163739 12.335784295512413
Hf 9.6094108912628 9.855063839728597 13.609702625317325
Hf 12.224948576368387 8.709694425734874 14.619996777992297
Hf 11.599685559727522 13.909073233658702 12.646619824850267
Hf 14.346500742832044 13.612606915440354 12.43532814453501
Hf 7.030494158359865 13.04153730313131 10.64379515719711
Hf 15.162665227495365 9.725325701557406 14.587042014651042
Hf 8.921410045112939 12.88362603417912 12.870679239588762
Hf 11.958209670050012 16.054706562868578 10.61996993247424
Hf 16.714348002160378 14.654461480512202 11.434775420319117
Hf 9.745733079744653 14.103714644312628 9.960985485329484
Hf 6.623236775127975 10.40464272736827 9.574921989378389
Hf 9.284844951485562 11.222488758236317 10.404270918366684
Hf 8.575917830849486 8.466155188385109 10.719877120315218
Hf 11.66360542036959 10.073586301590515 11.69103298561146
Hf 16.67885568717838 12.066088035625361 12.988359095516227
Hf 12.464494729570223 12.555412642844944 10.113789944780416
Hf 11.22380860947935 7.364373018631452 11.931747602861929
Hf 16.053034912451597 9.189547164579833 11.323632476714831
Hf 14.048218791347391 7.6691059646802735 12.903127764885424
Hf 14.394433450710352 14.874004016616874 9.61904740772396
Hf 8.158896427255094 12.409346801606008 8.037910982757085
Hf 15.699527482314494 12.251763791443926 10.0762120968271
Hf 11.735749969669346 14.398944699076797 8.01804545055411
Hf 11.093592757296413 8.700491225342372 9.185164314719618
Hf 14.131627407464647 10.664305964398405 12.155185902921033
Hf 8.697220541311877 9.630106161368825 8.013661563527318
Hf 11.101593863399973 11.447661925680382 7.868393202484847
Hf 13.585851685901584 7.8307883489382855 10.371590840148357
Hf 13.889511631677665 10.108222441647804 9.0147941264417
Hf 13.878771021663894 12.694653218643738 7.686574803413159
