48
Energy = -417.4819209 eV
Hf 13.178591958786857 8.339643777962596 12.158715062617635
Hf 14.494249081761213 9.33803716798544 9.74808618717098
Hf 16.41975226293296 11.438334078851573 9.761417598098367
Hf 11.595522070325073 9.911636685018214 10.134922124887446
Hf 11.335849831009279 11.320834665251354 7.440467293533664
Hf 14.129026718548127 11.595286403574717 7.925076100581122
Hf 10.126726902070398 8.80358971059866 12.39197530275167
Hf 9.042643331741598 11.083379843734091 9.077768710794748
Hf 15.360146398840984 13.95886133294235 8.952742625883214
Hf 15.737031932586238 10.13362297449667 12.340337324304704
Hf 11.594890957322079 8.132864437542384 14.737113550461592
Hf 14.204090848172138 9.25688334651069 14.902092551486628
Hf 12.557713525835103 14.134309324831156 7.721027417728631
Hf 12.08570488169777 10.766618287185413 13.188096528318914
Hf 9.67346196160436 13.54557477753755 7.515006114702524
Hf 13.763796448307772 12.013363062571422 10.782796827813486
Hf 11.077019742284753 12.901080391731245 9.942276190204558
Hf 12.086798324475893 10.020721585807834 16.772565355967572
Hf 16.84499674350811 10.151722591132446 15.072413482910651
Hf 17.776526556149253 12.197162794959432 13.394559650088603
Hf 9.565126015152456 10.492592784249169 14.764994087407231
Hf 15.911844146628326 13.52548848712529 11.78988534303555
Hf 9.411754992869236 11.740812218029212 12.026929304200879
Hf 9.644152628821203 8.640048458980363 16.778447785200015
Hf 17.304379885263803 12.63933973444006 16.217228389623344
Hf 14.937093611375468 11.21871849107843 17.124145717604673
Hf 15.003420012018616 12.357280576048046 14.369449271893021
Hf 11.838094877977563 13.814235845320605 12.782158717872365
Hf 9.885097596735642 11.821763255476036 17.231074407826444
Hf 13.350052807730352 15.254601209459315 10.496621384278418
Hf 8.244062068894753 13.665856822228132 9.904899629011664
Hf 10.465862048866411 15.664062904771194 9.400628991634543
Hf 12.067285353778326 12.822034678723549 15.510535836540198
Hf 9.194591864063272 13.397431641563417 14.665885552482708
Hf 9.3672871616092 15.11293436450073 12.092976337086283
Hf 16.88898284593126 14.963121973120302 14.381124624318769
Hf 12.512081588715942 13.042979732732109 18.22391287326065
Hf 14.143886418986812 15.64634666845396 13.61925053482383
Hf 15.052782286778006 14.119134880922601 17.02002242443023
Hf 11.686399938184959 16.89302254930468 12.176918613396897
Hf 10.310704292517277 14.575289280794442 17.09563398684231
Hf 16.338325828969943 16.18323321726578 11.49799883243381
Hf 10.60541072138875 15.984471143699226 14.620527543515427
Hf 14.195013380931687 18.05307001704946 11.698622714782159
Hf 12.845416410173863 15.65646978549744 16.455157721231497
Hf 15.345770777713993 16.947757679743198 16.110057530140104
Hf 13.185230973640985 18.15907214964312 14.511369157084024
Hf 16.07892059909359 17.877101994211188 13.695546139620635
