45
Energy = -390.88460213 eV
Hf 13.945978954257571 16.153537009239464 12.327203121337659
Hf 15.985114548638231 14.353898785326557 12.156311579416089
Hf 15.800826441996136 15.62373611380003 14.813020865600263
Hf 12.982178232570684 13.592539736460184 7.27742178887129
Hf 14.18080144268771 13.940580661361697 9.979792579839119
Hf 16.486974150320716 12.694849228807048 14.138807318453656
Hf 13.272306138680936 16.999780791700736 14.895285811441113
Hf 15.166011893630806 11.700071838464204 7.877337277644426
Hf 11.237978137921253 14.948223056412552 9.310812168381819
Hf 16.28539735638501 11.680248494874663 10.85325676064464
Hf 11.105180100341398 16.933534274034567 13.127572833907818
Hf 13.735648358634954 13.794851135252943 14.655768121713852
Hf 13.548442613288561 15.359935852773255 17.160961705705553
Hf 12.354195437479152 10.718634633500084 7.0056984374939555
Hf 15.639850213618686 13.32475338552257 16.77976068200012
Hf 11.876060760732061 13.966588054990757 11.971085073273704
Hf 16.511726037437427 9.331923630824452 9.29936909882987
Hf 13.9885285934597 11.815211444078454 12.497438675313298
Hf 10.2538813822204 12.85799607915178 7.384247584275393
Hf 11.9218376883834 12.233789034779312 9.56220723029343
Hf 10.777226678534557 16.82273832483519 16.339670238021665
Hf 14.522781852547274 8.875993148868844 7.348186456078135
Hf 9.183603789202792 14.969088645036535 12.034697044797586
Hf 14.608878499963721 10.98246345949693 15.366392859747474
Hf 8.590899978457323 16.451292245631624 14.389324293514669
Hf 10.69992612025531 14.388734479197078 14.776593285430913
Hf 13.86034004056778 10.084568135560218 9.864918624333615
Hf 14.603548382006244 7.265264755343355 9.702777149671649
Hf 9.048396919647335 12.772190290240193 9.996245080140753
Hf 12.937516054444082 12.3839735091105 17.24001868877685
Hf 11.767303358404144 11.147340597126357 14.771816552853583
Hf 15.30624392563425 9.077643192732722 12.093872765839793
Hf 11.962986350307979 8.092515176526703 8.669265388579394
Hf 11.413775870679078 10.151613831855505 11.488441253521275
Hf 10.978212523463016 14.230182615088939 17.795176449260218
Hf 7.739194614883484 13.706884934720486 14.29109407219501
Hf 8.577747195872153 14.894168308959738 16.699825360493637
Hf 9.761128846051948 10.192508322906852 8.71069752545593
Hf 9.766866409447806 12.114527657442565 12.997143460149257
Hf 13.038260108145474 8.858719115520206 13.909457638890379
Hf 12.473106687488517 7.371073862833796 11.567926493042108
Hf 9.425412484249762 12.177831845814264 16.234645010585087
Hf 8.455167887711124 10.183144154062 11.342110381917607
Hf 10.111693431781239 8.871575236883894 13.453505559187587
Hf 9.80913895718838 7.863152970923568 10.65276265020201
