47
Energy = -409.17559547 eV
Hf 13.073927008428436 15.036395273697973 17.502411369591453
Hf 10.453317504540566 14.09441478989965 17.101116948212763
Hf 12.712449474763776 12.144451670730302 17.65467727330012
Hf 9.900622720698761 14.093100235957566 14.007256769430835
Hf 11.345253860966926 16.51618964870583 15.711242103694216
Hf 7.7047920239581 12.23073551312314 14.634462700093655
Hf 10.183264139792277 17.157691660775704 12.9368482043082
Hf 14.361910365166247 16.49868048920782 15.458549194407887
Hf 10.049641249003615 11.590326902041305 16.109349433565967
Hf 15.414768453257322 13.852892002803934 16.29826018031182
Hf 10.575441732161073 15.36469029099198 10.626550675288561
Hf 12.693515834129748 18.20362436414826 13.814885155704136
Hf 12.460526373587356 13.251992730121373 15.181346271279065
Hf 9.925664271693256 11.061811023351842 13.198895445831445
Hf 8.324256141087744 13.17759774557945 11.707594451895057
Hf 12.40318225546331 15.446068770116604 12.989018673897517
Hf 14.73288413379322 11.270910705857276 15.332633195258895
Hf 7.103074989004767 10.554837720292449 12.511747713373135
Hf 8.473477437723165 9.310078572342759 14.787403493555193
Hf 12.41356245696395 17.544122246051927 11.089497202390717
Hf 16.882855610266553 15.644057058737745 14.437751103008596
Hf 12.095791983756634 9.965065318359082 15.278157660303588
Hf 15.046081129668478 16.942025945456464 12.53762154905395
Hf 13.402195221421431 11.400403864705646 12.890471360025877
Hf 8.669952737454683 8.407639144676754 12.032360799960903
Hf 15.021281940351118 13.79460278709565 13.23396929439634
Hf 11.332736924242907 12.888924504552142 11.226554083083386
Hf 17.594383322689907 12.955728522218152 13.735477705765785
Hf 11.074380846537343 7.762512898030166 13.181425628539497
Hf 17.092742218033006 15.001015340771879 11.654234053815328
Hf 14.018799090542965 14.741632476194138 10.597995575303639
Hf 13.965350573373351 8.517746533959448 13.485622230265866
Hf 8.77331991528274 10.607146872864762 10.13946419877567
Hf 11.983305361278823 9.756037241094987 11.266761120984077
Hf 16.254841429116034 10.462385856771101 13.077745524476928
Hf 9.533297544015863 13.09826353524311 8.959033783213096
Hf 13.80268840072949 11.736131165398236 9.877141479522756
Hf 12.301148083202994 13.760493140999662 8.337631220684306
Hf 10.491229383172117 8.073747504759197 9.781730977116498
Hf 11.161498517354097 10.83190838689787 8.2751332435072
Hf 16.527598504222553 12.327061741475292 10.933726861841818
Hf 13.031328842852318 7.1420380624346045 11.022749015496624
Hf 15.198360958153222 9.072124076795523 10.893717360940494
Hf 15.381534881128928 13.46159350567772 8.342542724695011
Hf 13.362582062355012 8.99473467635715 8.670625455371841
Hf 15.965410863792702 10.611919789685384 8.412101107718373
Hf 13.690007883044846 11.5120293231697 6.9928791845172515
