51
Energy = -445.68969756 eV
Hf 9.396583740812606 15.677010957524434 9.110963413566042
Hf 10.087016773490406 13.7068050537577 7.292957745708055
Hf 8.084636737065583 13.07832955089318 9.226776878300074
Hf 6.8333691123243 12.325857967761076 13.21308701869284
Hf 10.068371287866647 11.084531960168666 8.274163916238216
Hf 12.664110140323054 12.513411251664529 7.256080639689516
Hf 8.541868162870482 14.508010444901972 11.809948465441664
Hf 8.93327773546692 11.262603737573743 11.429384087520367
Hf 12.29743120442123 15.30830746667836 8.475251072716109
Hf 7.2697752272310545 14.807192292015452 14.481116915703279
Hf 11.358008376828513 16.311262171867885 11.075601091193777
Hf 12.888806167172929 9.580177143031625 8.084148973683565
Hf 7.290486606908204 12.495996959223485 16.072364602048722
Hf 8.366017783005082 10.184078695650642 14.716300379509615
Hf 9.706262686985848 16.147510973809265 14.051692361178752
Hf 9.917115543872567 8.72115230455221 12.784566521411191
Hf 13.258096873436932 12.032270172224287 9.977759480619362
Hf 9.477799236206035 12.800116929712454 14.178139792013528
Hf 10.723027876378751 13.349347873185648 10.2278684639621
Hf 12.741907682160187 7.262808392702838 9.929722202130332
Hf 13.043990091375951 16.89858931701044 13.278019558474554
Hf 15.32951724223722 10.938891472701224 8.228539948919842
Hf 11.234020569969688 9.627028996352733 10.430358408212179
Hf 14.954250730809099 14.084755115911701 8.631993437265821
Hf 9.3033489322422 14.568808695937811 16.567503491651895
Hf 14.02409889982922 14.580602674993118 11.532186582454747
Hf 15.237601647490893 7.989566512381916 8.69657145900894
Hf 9.79844283204576 11.481767952940576 17.033821573607465
Hf 12.792013072598591 8.147335753692959 12.964396424656648
Hf 14.427013517272478 9.694428341285727 10.97568421821984
Hf 11.654501135550332 14.265193124910672 13.133998833273116
Hf 15.068614332118893 6.856065398048839 11.28504466260847
Hf 14.359583072908478 16.906920378184658 10.202911344861462
Hf 11.191999971961563 9.491779865963453 15.363602341313813
Hf 11.674237879861396 11.078501863200943 12.796788720095124
Hf 14.451626285678014 11.994960488575467 13.082823639951005
Hf 16.211312832392398 12.226349597653092 10.706734558724213
Hf 12.454569818564822 12.552792329466575 15.47773969545977
Hf 16.741111346360796 15.160960593413 10.595622354587364
Hf 15.84480967343705 16.56978071078661 12.770707643655475
Hf 15.812825068107912 8.361575629332238 13.400386648912527
Hf 11.481281461860567 13.490259358283357 18.146779487870976
Hf 12.00205777123264 15.582694656227572 15.947866209136487
Hf 17.119549079241345 8.930241238556432 10.829700636166145
Hf 13.078940525376346 11.129041808500562 17.71954887915944
Hf 14.011547934083934 9.873483658090645 15.122826833561117
Hf 17.044442822523674 10.805627958760741 13.18871362986888
Hf 14.613166346701956 14.98694685193888 14.84486858183931
Hf 16.769773313212575 13.833102423035506 13.229137192725569
Hf 15.4982327140011 12.176446909875466 15.80314822839508
Hf 14.0471660005636 13.976270167552581 17.496297548014798
