5
Energy = -31.32345611 eV
Hf 8.711205114170951 7.3627589112600145 7.403887167657247
Hf 10.366981102397782 8.32536704709389 9.2102159294014
Hf 7.025496002555727 9.189587194000717 7.879031554082784
Hf 10.788010744127044 10.100766105365919 11.054454059026297
Hf 8.561829164306996 10.265172654216775 9.729887770219706
