5
Energy = -35.86836268 eV
Hf 7.5520694167325635 8.679121951785271 9.313473843934046
Hf 7.965058412735673 8.820747550843928 6.640790130094351
Hf 5.8383388019950555 7.306815029670405 7.651546686968459
Hf 8.455556807881694 6.507929292672791 7.96154135773384
Hf 10.144741560655122 8.641150999918526 8.388412631051253
