5
Energy = -35.86969129 eV
Hf 12.832668249532503 13.437927643250855 14.002484414209526
Hf 14.0975847095246 11.177494763930897 13.006023862273219
Hf 11.211908396389434 14.6032272355037 12.076915881841835
Hf 11.528243770038527 11.857680823868435 12.231290161119638
Hf 13.61005445517298 13.385477151568184 11.407585746870014
