5
Energy = -35.86701622 eV
Hf 7.755023815133696 9.086894788877407 8.908522720447092
Hf 11.744251761102875 10.487820996549468 10.641552981551321
Hf 9.072936367953039 11.099288938851503 10.280462061183691
Hf 10.395921080725914 9.721955085895537 8.359440420747395
Hf 9.784328577219197 8.52376356164405 10.708453734889167
