55
Energy = -480.75870872 eV
Hf 13.809260859939837 13.65393968015109 14.9307889985862
Hf 12.78526477866405 16.15792949628315 12.76812803707558
Hf 10.549338563753134 13.031464808546685 17.163665174579727
Hf 10.29673859387899 9.812506152025916 16.002597064622453
Hf 12.991091586784323 11.316922800905607 16.966876085886415
Hf 9.461998156375381 15.86005352467045 12.401278853373979
Hf 15.7605020710113 15.367919075042288 16.265914806498433
Hf 12.99706119282682 18.931522535504982 13.956728169974436
Hf 15.221520945137534 9.723525123813168 16.24714177650771
Hf 18.296712523334246 11.730008975999905 12.68041827770392
Hf 10.63292755054316 13.076450672618327 12.150870409213482
Hf 10.665023539845985 17.38025407737919 14.538075875310458
Hf 7.768141579387055 10.74815899528409 10.320487951552483
Hf 13.216298636147847 16.668022465765674 15.812376993101704
Hf 11.67232332466991 11.421350184762627 14.298789673606764
Hf 11.791872816772326 12.778503874546661 9.006783110620498
Hf 16.222004065873534 10.135129146398286 11.304989812454679
Hf 15.829375929073107 12.414676403593928 16.890779790824936
Hf 11.039287004551271 14.502174958299344 14.619330110412246
Hf 11.544381492534658 18.199758185569294 11.496689184314771
Hf 17.48351952576131 17.73760106339509 12.436173472653605
Hf 15.689933268580909 15.475133619081674 13.200310083513015
Hf 18.04814152945649 16.323147595626377 14.740965964458942
Hf 17.54712133790918 13.492901985994852 14.736012488582391
Hf 8.899324165483069 13.460754501280283 10.041264698847167
Hf 7.874785032912407 13.455961430936975 13.02366869359367
Hf 9.27617992036936 8.740977148799715 8.753040568756239
Hf 8.681350398749377 8.302989207878172 11.42786222167159
Hf 12.975915318663315 8.650158440652975 15.052031979189977
Hf 11.981830529171331 9.672795871831214 8.245512388601396
Hf 9.501656833470268 11.39392000000642 8.08303333231962
Hf 13.274232253869553 7.045147174470322 12.604243481145142
Hf 18.42376711264644 14.970149324301806 12.219024918021574
Hf 10.702543184236049 8.089883054744567 13.40370416860582
Hf 16.27883571728258 16.089685202589997 10.37092696546011
Hf 13.223589240812181 9.862072401231444 12.250004091359056
Hf 15.336206679131513 11.533410353434107 13.732590551789666
Hf 15.646161133515184 8.565148715782774 13.631625292898661
Hf 13.505736895006601 13.305833583861984 11.726221910494445
Hf 11.339500710034322 7.522637511999001 10.469006236188985
Hf 14.73623617701571 18.4349800842143 11.780042103552576
Hf 14.437498798696332 14.21344735438077 9.126369899648806
Hf 11.321631051342067 15.300903063682894 10.278723140665388
Hf 8.581364061900986 15.07086179693825 15.542538561951126
Hf 14.177676194293475 11.258487790710769 9.660730815785913
Hf 14.141826891182516 8.329493409599369 10.041349677927546
Hf 13.23751088398736 14.23347221239018 17.695610811864423
Hf 16.397477495334638 13.105800489110797 11.109949197888803
Hf 17.592991958250035 10.557179016929577 15.205241164158888
Hf 8.670068585559424 12.184645255209475 15.373224713875365
Hf 10.669749607218149 10.457423335285856 10.666468401056816
Hf 10.828677225775344 15.905901569536354 17.22008951707489
Hf 8.954419108783341 10.598593293378189 13.151160981986411
Hf 13.548267455642407 16.87413860877154 9.780311306892646
Hf 15.69301239181927 18.103957279768213 14.628119926265455
