54
Energy = -472.24148909 eV
Hf 15.254157753904275 9.60209612127659 15.07511764602547
Hf 16.467041593141996 13.39400739927922 13.02084633020818
Hf 13.682505911970178 9.949402665748046 17.44432156265686
Hf 17.557643490614023 13.136091391554992 9.9640282624757
Hf 14.968543237745358 12.128574446828923 16.05752189766016
Hf 16.35609819082511 10.472507575149272 11.726649750616822
Hf 16.99532113072769 15.69210937129906 11.247608116738187
Hf 15.765755129206761 16.25033158991019 13.683138294309131
Hf 12.794568901236326 7.942271406471664 15.546934573722513
Hf 15.604279196043363 7.838115528074278 10.358809093912516
Hf 14.243239427149653 8.430647252240302 12.843851522555054
Hf 16.286614178193236 10.291462342231425 8.784734794002551
Hf 12.18126633774671 12.543366891778676 17.37274478934072
Hf 14.933387248533478 12.664151584488618 10.102639991456467
Hf 12.80755677817945 15.515713751407002 16.80021572313368
Hf 10.80347311775158 9.617511256584525 17.22472273960662
Hf 15.581094165729288 15.368837578325895 8.8208111929394
Hf 14.056804604978154 11.712106185486013 12.942670435759194
Hf 12.740219897843184 16.686035514103928 13.852330593041184
Hf 12.490976274076004 10.71627981962735 14.999246743055615
Hf 16.13477315384137 12.87331657255915 7.434898993236368
Hf 14.650828626981312 17.51629491511163 10.992464837644095
Hf 13.939486796892941 14.149293435756013 14.554093675033926
Hf 14.196342012714686 14.99519352496283 11.715470843601308
Hf 13.758313034635156 9.989150571686917 10.463615346655127
Hf 12.687034906172599 7.3393262167973115 10.434512805783452
Hf 13.90683127773598 8.398505283242262 8.11128527683833
Hf 11.351273593787296 9.951566154764226 9.003968343200052
Hf 13.918714751719088 11.082694663843242 7.194983328436691
Hf 10.198769269997216 14.738457592225162 17.673571644142502
Hf 9.94757820874431 7.9912806360663655 15.042805925409883
Hf 10.984264102587437 13.959254487733306 15.015537021046086
Hf 11.358729616283215 8.759507786223093 12.650662049098926
Hf 11.605067072178276 14.278217345141483 12.186691489622541
Hf 10.410343504428257 16.7588871592178 15.811258325357457
Hf 9.655624884967388 11.04461409772947 14.150201092004489
Hf 8.056014100968625 9.652411442102247 16.16107434689225
Hf 13.423984726402571 13.93778587505455 6.90057788187279
Hf 12.141682507306326 12.928334682743548 9.326541131117674
Hf 10.918660366221056 11.447748381085962 11.614568374972146
Hf 11.643452936055244 17.254584739995227 11.27516402920634
Hf 9.051619159562927 12.228476716120225 16.91866560841045
Hf 12.648507857256686 15.949993499138804 9.040163999820074
Hf 7.753388344764509 9.027053843568149 13.36614514399347
Hf 9.099614332614014 9.324668821870501 10.698639006959
Hf 8.232514848230117 14.702538918917893 15.492940781061218
Hf 11.179180319855847 11.893674199781664 6.806406325930949
Hf 9.667345998510559 16.209400088276904 13.124702923790963
Hf 8.68358439619008 13.638636685033838 12.66719236669847
Hf 9.86926469158609 15.231911512088246 10.119245875060287
Hf 7.025229130575577 11.845912880967449 14.617183166440618
Hf 10.58416732940393 14.494541662169521 7.476123457804766
Hf 9.329045044180925 12.226351617485525 9.30747522414538
Hf 7.526334945071299 11.345209506498751 11.759880396208171
