55
Energy = -481.23105682 eV
Hf 7.0616904133083915 11.050065965352093 9.673281191877399
Hf 16.860777168877444 13.043529589443843 11.145577239647492
Hf 13.752774277509868 8.85939525134075 13.685925966690313
Hf 9.742517019633791 6.527948305962979 9.986624692460595
Hf 14.402985471914388 13.544419932504427 13.383204125788685
Hf 10.00421926912205 9.746635080326852 16.47864402460464
Hf 12.45237189596846 11.5089862872608 8.782843270332227
Hf 10.942937364327857 14.131189908047913 15.893074650503742
Hf 14.054676265109125 8.37858735392333 10.638343518343488
Hf 9.647879626460842 11.570888487082314 10.955721658507127
Hf 9.43195459472225 10.983427959449296 7.966553399858705
Hf 10.800292582419958 9.320692645179557 12.925424025297541
Hf 7.290240915101509 11.116341544682177 15.76113516228819
Hf 7.18172846839514 11.451887146409113 12.755372537562513
Hf 8.15345923108998 8.918364108399272 14.263742564929958
Hf 12.763725986411382 16.653233796162006 9.515387397308979
Hf 10.475600928095325 15.935453514915112 8.078461009576934
Hf 16.02428821389465 13.375121880040703 8.342318860855324
Hf 10.553754096474293 16.51343098190854 11.274851695172247
Hf 12.101266619405132 6.712531148657773 12.032795027635736
Hf 14.024988275742809 13.571302577201832 10.43420165755888
Hf 11.33803855224654 7.451386348682792 14.893995364312527
Hf 9.370934183047273 6.6996587772308 12.87000593083257
Hf 11.524076667942294 14.061902383279334 12.851323586697735
Hf 15.84372348849499 10.85739242136719 12.743866094439126
Hf 15.280325800447848 10.86960700641369 9.615301301259294
Hf 7.869901574588744 13.930208242270467 15.015949475499044
Hf 12.233414721299976 11.378252045597337 14.70327497216385
Hf 12.85124602588038 11.118756224384303 11.725196345205482
Hf 12.965222826109827 9.209424309309158 16.487538090116832
Hf 9.22262108204985 12.383788771608309 17.155016864704525
Hf 9.574657961275316 11.96833794371317 14.130893408524999
Hf 17.025404579979856 13.186171164753205 14.17711825497671
Hf 16.553728580593667 15.50065854494297 12.435884142174936
Hf 15.494288168644708 15.78968850596361 9.722579120156112
Hf 13.85001594650431 13.815621114272316 16.259524348471626
Hf 12.668412822389472 16.028105288794276 14.827510362138552
Hf 13.660227532080627 16.30396393836505 12.172011758375396
Hf 10.717370966981319 13.288892485123933 6.9583296930825105
Hf 11.091276024881951 9.023120066669243 9.95265546548289
Hf 9.731185784053398 16.04806296899555 14.038163433245558
Hf 10.67459234283535 8.03751805467497 7.324492285361126
Hf 8.138724684009675 8.953342398121197 11.39002880973632
Hf 14.950308434043063 11.174988356441824 15.488049895042757
Hf 13.589255225837979 8.92970081151854 7.753887128237222
Hf 13.328195278883037 14.620133468391533 7.635406199231263
Hf 12.07063992677492 11.642147868697586 17.51711325696392
Hf 11.768328762319346 10.527807942988506 6.149192610635607
Hf 11.164166899224595 13.974303887923108 9.859203088479589
Hf 15.568737154591698 15.73895988974256 14.936453366888022
Hf 14.39037024021372 11.653013123973077 6.807823475659684
Hf 8.702335518162169 14.210069672574448 11.903548245356673
Hf 8.156566388597538 8.51813337228489 8.608930781050882
Hf 12.464138374376486 6.5881235658249455 9.107449243963776
Hf 8.459728796654211 13.621615570855365 8.825089924732517
