54
Energy = -471.72430113 eV
Hf 9.423255527453806 16.82484422366967 14.613885794369224
Hf 8.840362270865986 13.898804685677561 15.905969486539869
Hf 7.668686840252778 15.190232238985283 13.14857972381129
Hf 12.070019789438101 17.37818587299655 13.640162904658391
Hf 11.285226961713628 11.960239164584793 11.535536267781756
Hf 9.417183626519005 16.39074319941355 17.5414114918992
Hf 7.631981986016525 12.498665871592703 13.454244040896146
Hf 11.40546430762079 14.380320881828203 9.816430864068167
Hf 12.404312005358939 7.56619326248764 10.149977502353966
Hf 11.022467755493102 8.846077155718907 12.318270053380013
Hf 13.750203473731421 7.568311357797632 12.737767673923745
Hf 13.95083562978238 17.119379788220126 16.140089973005463
Hf 14.970217515351546 17.16984415650018 13.121888813148878
Hf 12.650617960890314 10.516491703356781 9.47337104059057
Hf 11.240014165103286 12.00757751735983 16.742477478881217
Hf 12.532119878194212 9.293175094640572 14.744208729566738
Hf 10.489563653194882 14.04056048207262 18.477748046124844
Hf 12.909506336278994 12.886348994948916 7.643693834737676
Hf 13.323256813098642 14.723681155345936 12.729926113184263
Hf 14.007220356184012 10.195412128997136 12.042323285410498
Hf 12.199142047123393 16.396434524378353 18.508570836480544
Hf 15.271499570261211 9.407030146543466 14.626792650640983
Hf 10.032753206001306 11.022249359040217 14.18762532374096
Hf 17.113148771935176 10.298739410848713 12.603394245581278
Hf 15.780401144779267 15.652319046213814 17.89167502610255
Hf 13.391273252003216 13.691715498422564 18.056020901695074
Hf 14.253768217537749 11.212857973732158 16.616567171900634
Hf 11.588789615236191 15.10620548703682 15.9709060744228
Hf 12.72796773070705 12.267290069952034 14.265647524116948
Hf 18.550308114983476 12.686741431702197 13.540382141427363
Hf 14.11826880042413 12.986246477816307 10.375994008141944
Hf 17.859264901543824 14.270326206598233 16.038530699304754
Hf 14.884093372170048 8.520634334299208 9.42562444175869
Hf 17.07857562785919 11.42040710174963 15.595463267016045
Hf 16.157439812759737 12.89963967917978 17.904070594180542
Hf 10.260647219038598 13.965998823821169 13.420176000469793
Hf 16.455975945342836 10.923508670757144 9.797576213295743
Hf 10.163369487319867 8.991199208416633 9.474513161256029
Hf 8.697561166265004 10.669557506287724 11.444891511775284
Hf 15.59085895369802 12.605899849013573 13.202493908068314
Hf 16.66741441845608 16.820447744783923 15.476464097379662
Hf 12.56709058777599 8.79470496054419 7.521865331757036
Hf 14.95078569882419 14.296231149656528 15.48387244768331
Hf 17.459638659397747 13.212142916521605 10.966632014095648
Hf 11.281977220330885 18.083371732004064 16.402326197844722
Hf 17.24080746734803 15.225797813667034 13.213373627468359
Hf 8.65412596290677 13.594802957487518 10.911834445518872
Hf 9.933107388805146 11.839285560334263 8.923290799596721
Hf 14.867494373054482 10.755107162655486 7.55646540967421
Hf 15.747036721692256 15.593325955565547 10.63369384050941
Hf 15.95341087578164 13.447497301186276 8.278633105179734
Hf 10.071939301875215 16.315703136947224 11.708570921213918
Hf 13.835550756971745 15.343782507528603 8.536672349040828
Hf 13.02629830164412 16.89903730130776 10.870243932160015
