50
Energy = -435.65038751 eV
Hf 14.275362989157575 10.682562397822839 17.633450934846188
Hf 14.287236697524914 8.88984602507139 15.404371372414579
Hf 11.925269729073003 9.39031099989709 16.932233044568644
Hf 15.965305022002205 11.451348342375363 15.282316330318132
Hf 17.78789397523532 13.359008144882667 13.313603745835591
Hf 11.680500817477636 12.200981480990949 17.83932155510308
Hf 14.37059437787416 13.487469007993742 17.194911330590905
Hf 14.71198146499786 10.067680449118678 12.886292884613287
Hf 16.442868736870533 14.368781446744109 15.555410702214425
Hf 16.903316423297053 11.278345104256843 11.166760852884547
Hf 13.180407060869221 7.693226059396985 12.02035031744233
Hf 12.984322325574565 11.492051008193416 15.109126674460905
Hf 14.854153346160203 9.275125742824528 10.009868477058443
Hf 11.57430461878118 9.027554688072255 14.014039330851627
Hf 16.13060404482595 15.938602817462105 13.294212370758336
Hf 14.341780755919705 16.57035041410737 15.951957515201821
Hf 9.541056095544748 10.877252866579159 16.29338888791733
Hf 16.7526643297407 14.120314965382098 10.686125533907862
Hf 15.069063276133708 13.047044915110245 12.800944978831291
Hf 12.040131552408905 12.936110851121418 12.42580310148738
Hf 16.01444186922924 11.42783541097148 8.1063694512029
Hf 11.979135988481893 15.045001486690532 17.167159109638625
Hf 13.515060032344438 14.621676933757673 14.419774525526465
Hf 10.28555865452349 8.116986509677679 11.51425662271286
Hf 10.638376071592823 13.43662548638757 15.003851420147303
Hf 13.446181315849401 17.372856296376824 13.230926952736489
Hf 9.839935852425821 11.283907121353565 13.105917738390943
Hf 7.791319780053237 12.383575272840238 14.747990200926685
Hf 14.223944058938859 15.571661302841905 11.118256788822725
Hf 8.119602948453677 9.420224416839273 13.59841292983725
Hf 12.305935588002821 7.901365051759368 9.331173850852595
Hf 11.316552009274425 15.72760850565065 11.95030309704705
Hf 14.473833416500756 12.319577870637692 10.008159170707122
Hf 12.252961953580296 10.267933885318234 11.066705938847505
Hf 9.176747571536563 13.712103455974288 17.205970242999822
Hf 11.32939670360539 16.474669194086324 14.888672412998554
Hf 12.272967792757846 13.792438675118799 9.510478971119214
Hf 8.923762734393092 14.104931959627551 12.560943464746595
Hf 12.118395934383935 16.6802260872996 9.315099105775023
Hf 9.903565272823743 12.036302149483825 10.408576433826305
Hf 12.99757515329482 10.438676170543523 8.082171582682395
Hf 14.476874237444802 15.20615396325791 8.28268349060472
Hf 7.182451070192212 11.870160010242229 11.897976036218996
Hf 7.974428330772522 9.60821924057801 10.616279937980025
Hf 9.693546771879205 14.782682406988219 9.290630591544685
Hf 13.63476382588353 12.91709370357918 6.884857940429474
Hf 10.023672931633179 9.539169973710042 8.661679094254001
Hf 11.76506104878535 15.062528721907617 7.057934930125935
Hf 7.877221603410827 11.74328278805925 8.735069443456739
Hf 10.631492341843025 12.384878102074373 7.514015374873363
