53
Energy = -463.24365728 eV
Hf 8.530030730880114 11.449201707651058 17.65192060208696
Hf 8.73574588272677 9.17918245348743 15.672917191955257
Hf 7.025645481312554 11.178232529193671 15.009878423441844
Hf 11.10491038547824 9.75542635438303 17.16572865737469
Hf 7.353636993024161 13.687427286025242 16.02638882388468
Hf 11.844279609196185 12.566324999358978 17.72380278494649
Hf 8.963544263824732 10.551944358655987 12.89881527403949
Hf 12.94327105464725 7.523780650004016 12.453743821818152
Hf 9.957551610375793 11.740693644981192 15.417781852129202
Hf 11.28332543183735 9.135343988549536 14.274066709930377
Hf 7.464192561597299 13.346725514028423 13.056764883056559
Hf 9.759183972684452 14.37775994149853 17.25827719219768
Hf 14.119191616392964 8.368518072476306 14.814335742803564
Hf 8.137511838829278 16.04803437660185 14.531564112594333
Hf 13.346952733319796 11.042297031027235 15.734028878421926
Hf 15.942512456307448 8.079595809194373 12.525978789634454
Hf 9.971854983335223 14.174666082496914 14.032974703263166
Hf 14.091786133107156 8.183942770123938 10.152799785549442
Hf 11.631642720070777 9.839580061017932 10.751646022255976
Hf 10.04252482548607 12.7943341576734 11.133784690029563
Hf 12.36317387036164 14.57489794587779 15.423816271573939
Hf 14.187786810368802 10.179673610982245 12.360601930672356
Hf 11.877025483314469 11.756711082455535 13.1474732230542
Hf 12.89725386407213 15.675979118367122 17.816974241492716
Hf 16.12111730884792 10.274153432055476 14.75034524461075
Hf 14.629422786581245 13.310916521544165 16.882406237342572
Hf 10.458180262810192 16.86908568633834 16.35212343770595
Hf 14.450870409649944 13.314186097748822 13.847886441162542
Hf 13.119507926120162 12.338136902663603 10.47364399244084
Hf 12.104375101061164 14.789551836923165 12.312518689210561
Hf 12.987132323094372 17.530462215945903 15.528204237842942
Hf 11.197864549761977 11.811543536436755 8.511784006581166
Hf 15.151836811954624 15.704496523910322 15.62339875803854
Hf 17.17486260903431 12.94829902565582 14.457235968008257
Hf 13.8552200399525 10.473689304065301 8.43453890398644
Hf 18.0501478124382 10.507357251954927 12.607064202741734
Hf 16.447941844111202 9.824537575101282 9.983326172502967
Hf 11.320501813361652 14.673270634353381 9.23299810795717
Hf 9.236945938245057 15.58534812274593 11.72071156881511
Hf 10.792923977641385 17.17501560273782 13.56101237415022
Hf 16.22998738517826 12.509833984854831 11.61576434154719
Hf 14.24447584996669 16.845739403625473 12.945790368985799
Hf 14.50120638016947 14.833166024017363 10.373506239828547
Hf 13.424981005901548 13.517599920399812 7.574331126742751
Hf 16.60767201018506 15.251369326787753 12.697426615074171
Hf 12.525153591602713 17.15826214888508 10.735188018859791
Hf 18.905432349980845 13.35246798525124 12.292724413157933
Hf 16.073870847820544 12.474981246063932 8.43975933721257
Hf 18.466460153745412 11.80560504278454 9.978682225625674
Hf 13.353482341569963 16.396981362307574 8.164386631243195
Hf 17.58059068712901 14.630515917828768 9.989331632177366
Hf 15.531093522949632 17.274617018017555 10.030098834935975
Hf 15.837138530626364 15.28567127957522 7.793502849335617
