5
Energy = -35.86880047 eV
Hf 10.501780028388632 7.795779612582406 9.537013929250977
Hf 10.73265156345268 10.391865419163736 10.273538750540657
Hf 9.344696447838109 9.740036796859801 8.047140916326402
Hf 12.124256262173633 9.481741469359148 8.064173082067187
Hf 8.285318455779578 9.110974062323312 10.526535683866022
