53
Energy = -462.14143034 eV
Hf 15.083549234834768 10.380417320060634 7.2948350913946545
Hf 13.170246897990655 14.574345419465473 7.63358593236289
Hf 15.62667719533571 13.208575030507875 7.699797178516189
Hf 13.180518283335505 12.093639450022083 6.258964792209307
Hf 12.031677429138247 9.85060221304247 7.7868128333016475
Hf 10.796851143413056 12.744808044882301 7.751243702092553
Hf 16.502302828890716 11.216885471679301 9.664608383392164
Hf 14.450210024620198 8.9979347080252 9.677252493042458
Hf 17.277776179319876 13.911700975577444 10.54207941305973
Hf 13.334363177814161 11.931133692620044 9.087825210630347
Hf 14.491861537101126 14.25874665973048 10.304043228130402
Hf 11.490666867396813 14.96555139684252 9.879809358800514
Hf 9.4831320996215 10.682098468809537 9.497994100220138
Hf 8.913012431752346 13.493124173074404 9.75108523870642
Hf 13.865491074419268 8.282034085293203 12.590939767969287
Hf 11.126768652592386 12.283737143862663 11.258725066329184
Hf 16.43054709983429 9.390702687470009 11.840247452000806
Hf 16.921126027189985 12.127226500606286 12.823966903209055
Hf 9.584088718146882 14.843096682398546 12.247187849501266
Hf 18.21232681615186 14.526515833746108 14.320709689976248
Hf 11.737852216058663 9.273995787202937 10.782332268890361
Hf 13.971858449926223 17.022232926248826 11.911095374475844
Hf 14.250977888985574 11.396987584816163 11.888598158149222
Hf 12.558682549292921 14.477367552049323 12.579700802334168
Hf 15.701824438292455 14.910581382377435 12.840365134940686
Hf 11.217532258718823 17.371269138773755 12.850658155740861
Hf 11.1822979891486 7.651562391950844 13.174126806661228
Hf 15.118624291430526 10.036273973757849 14.372235450645002
Hf 9.310004861994067 9.650579497032712 12.59560415387264
Hf 17.771124364703745 14.619312806918204 17.330902762283774
Hf 8.384992611260419 12.23885187731045 12.329506200900713
Hf 12.06076830945314 10.378971890892027 13.944595785907962
Hf 15.693210505507684 15.080071786593143 15.702560308118446
Hf 13.076481362276118 16.222639237757512 14.853868878891438
Hf 14.132069257518076 12.760124766448355 14.634077383633889
Hf 17.02597663709011 12.33909888325903 15.754285061466831
Hf 9.986626486304862 15.87361268217221 15.227397351414176
Hf 7.880378087392038 13.958328147998014 14.585610726151886
Hf 15.8159588464091 17.564021363931158 14.210125526910064
Hf 11.3416777507143 18.46386285184239 15.645345307989674
Hf 13.710223986593045 10.784333226177715 16.694732302737297
Hf 10.609815622053723 12.962973343013198 14.373343307210424
Hf 13.433705638236829 18.981919606283448 13.911356464636825
Hf 14.299210276269582 15.672940848234388 18.179257281682606
Hf 12.749305599930004 8.196083441753903 15.586294886385126
Hf 9.913015965357861 8.736772771137442 15.338217789332246
Hf 8.444850227425425 11.196738962976191 15.31767315522093
Hf 14.052766657785112 18.187693283673244 16.672800977511518
Hf 15.248966427385573 13.077611021072851 17.7272278273582
Hf 11.690458960094496 16.49093913546618 17.551478563514305
Hf 10.893353082995452 10.934538436471993 16.910629727650473
Hf 12.42132058200439 13.660265180351491 16.898124639174256
Hf 9.398103956972621 13.46906897764634 16.935761796126855
