54
Energy = -472.82493653 eV
Hf 18.52996552277745 16.159362488003506 11.819623371133545
Hf 18.097587559271467 13.769135619450482 13.331993490460183
Hf 17.799663432630236 16.48376933435093 14.64517022191531
Hf 17.226711854182007 13.9868154729793 16.13798104403468
Hf 16.685319642958053 11.378598419986165 14.945397939153851
Hf 17.27410319279265 18.52082962410989 12.560162255160312
Hf 16.980200332646447 14.123498606278714 10.497047637159431
Hf 16.27881448057053 11.499855149846312 11.969337459242059
Hf 15.70578449498144 8.883105494069131 13.357168890520493
Hf 16.400760324967717 17.147960030562544 10.089451504773164
Hf 15.682430284130284 16.150728430040793 12.604232857419424
Hf 15.013378515549233 8.975513667357626 9.710300054857322
Hf 15.249287369941607 13.710581178452125 14.116561368511936
Hf 14.740610513658073 9.528357638733787 16.230171451451252
Hf 15.348028596541766 18.33083399033075 14.653649672548688
Hf 14.997968282630257 15.88869381996886 16.09458067087619
Hf 14.511191702893651 12.55127388308796 16.69554472480592
Hf 13.835440712724736 7.242945947916041 11.853508162609913
Hf 14.80977591634416 15.007114453283751 8.851887789212086
Hf 14.845784371952957 12.109229443530563 9.37799931966344
Hf 13.914972571103505 11.15040406252458 14.0892976897729
Hf 14.473545414914708 18.74309529289268 12.001954006192731
Hf 13.987593940943771 13.783444320470933 11.446254290187305
Hf 13.212103736243815 7.852498177314027 14.483713381724275
Hf 13.580027499336568 10.244046485581444 11.438622800595084
Hf 13.239139253271874 14.924870312386082 18.248205017997257
Hf 13.024808052568428 16.719796335078133 13.73358044396299
Hf 13.086269894752517 16.69745229475987 10.548148506798112
Hf 11.149601611667762 14.91807776829962 12.047763009888586
Hf 11.441270225741775 12.044960176924072 10.896967974543863
Hf 12.724516198324213 10.575744379016356 8.518244080902885
Hf 10.47573140911696 7.986890719766442 15.315170549202975
Hf 11.826408139475202 10.507130211217024 15.91573617804273
Hf 11.564564022709028 12.643867942516634 17.938122892838887
Hf 12.396855504757985 14.279984630453395 15.557871097994658
Hf 12.044472074974573 8.05970165623545 9.852644263302958
Hf 11.006265158355726 9.441593123785035 12.732879749468571
Hf 12.265760656449329 17.06290576458877 16.50608360292094
Hf 10.204746134733252 16.40971051255883 9.776458003464391
Hf 11.011051203334294 6.639923255585717 12.703179427420556
Hf 9.0181255018138 10.558471499612025 14.816197832368541
Hf 12.103743033670492 14.10066732841555 9.196957079628973
Hf 10.77324396269302 17.77340359129702 12.275226320424643
Hf 10.464549529954663 15.21253713218029 17.555545576806303
Hf 11.037515014281155 12.311663849177807 13.722115826954093
Hf 10.086829688235822 10.17752643879387 9.356037859402841
Hf 9.31467028874375 13.246053125283243 16.03496748129464
Hf 8.50590283678695 8.1541993154008 13.346512356256822
Hf 9.239764300374718 7.994658178120879 10.773636317178031
Hf 9.934150396854454 15.92005268035135 14.681696929682493
Hf 8.617122307574393 10.841943223324758 11.821468105164142
Hf 8.501017320710696 16.053189602019696 12.012584910624197
Hf 9.03017666844589 13.691313021363998 10.367016874844262
Hf 8.373977416671023 13.538869319371333 13.29888912865819
