52
Energy = -453.48174535 eV
Hf 18.320276918977893 15.327349880215438 11.314392402900497
Hf 17.620742109962972 10.829023026770829 15.237126850114578
Hf 16.81687883336855 12.93819640853142 10.545040113171586
Hf 16.4478759019577 17.73894297425848 10.644696820700396
Hf 17.0653633739152 13.703269214838645 13.568736348415737
Hf 16.961011297957604 15.357066290604607 8.89072543783191
Hf 16.690174719860764 10.647127292186452 12.402502212378923
Hf 16.47082891806525 8.293314633463817 13.816536596354245
Hf 16.01122606824018 10.860300551008626 17.72820260353813
Hf 17.303605582343447 16.877192882735283 13.30512747043251
Hf 15.710729323041486 13.22542213670507 16.15996710097024
Hf 15.901604333613856 16.218169877034043 15.68862679637093
Hf 15.471881305622935 15.350003987440799 11.54326042738107
Hf 16.44932101841942 8.398026774972587 16.539030766330846
Hf 14.061505140760818 9.066622876881942 12.39578892705226
Hf 14.522146412976285 16.491524748615987 8.747638744136111
Hf 14.59165940445094 12.469540378864641 12.604579132106645
Hf 14.330245440483091 13.63614355888625 8.958314155413388
Hf 13.310024514662238 11.872847119857852 17.540124320489333
Hf 14.148314326451999 11.02334126566132 10.044345828114556
Hf 13.041834624967402 17.515163563857293 10.79935049132176
Hf 13.816062471965035 9.013174529433122 17.51276122354469
Hf 14.572509426096222 17.77161954165231 13.343215696763748
Hf 14.819595603285993 10.450263933188623 15.047620810033152
Hf 13.918986894262744 14.878881782422754 14.305393078567436
Hf 14.019748949709811 7.573228946737744 15.01011476133199
Hf 11.981317989620685 11.09259475680376 12.534716668188354
Hf 13.552898435515804 14.95105761195211 17.288907072233656
Hf 13.231681525948009 17.348259150063324 15.781501819552696
Hf 11.631933600836213 16.709506532098676 13.387352083205247
Hf 11.851295290071322 12.753947012626837 15.244923306707076
Hf 11.988989418000255 9.672277009401181 15.219457342500402
Hf 11.299680987671936 12.501584959286449 10.283483783353445
Hf 12.715420746108629 14.665406378225384 11.534599667431534
Hf 11.01902742725956 13.650586217263031 17.964404009187025
Hf 10.440656619997242 11.05520282532078 17.133559044999522
Hf 11.938758957581276 15.13732798295379 8.705672434413822
Hf 11.739679360614577 9.509424208954265 9.847216491296628
Hf 9.525028420144366 11.02464736190045 14.119569915965709
Hf 10.060123259445023 13.761998028154283 12.907493108633266
Hf 10.243127951395794 16.141895688328002 10.905287297195132
Hf 10.838694088602182 15.711315057023413 16.072941645555602
Hf 11.200265001075499 8.394076909917663 12.80198894478496
Hf 8.625006133594033 15.93892059706498 13.960887534864254
Hf 12.194177663007833 11.83009619321515 7.805804215723493
Hf 9.00186922275922 13.452983638465598 15.84064409853654
Hf 9.159793730158587 14.03340631877328 9.059555345701948
Hf 9.453054199443962 11.06149101169352 8.724196476911965
Hf 7.95383655955726 12.220865829329492 10.946121953950993
Hf 9.36217606308663 9.778814877927667 11.246859708779075
Hf 7.691966785331973 14.935717063562796 11.40613037415628
Hf 7.290443364487843 13.258007525040439 13.59838639797514
