54
Energy = -470.40293125 eV
Hf 8.309776482984779 13.083289606562532 9.780471480559305
Hf 8.832884432186644 10.631735951008425 11.144133957876353
Hf 8.449918627589096 15.630202858977569 11.327021166349342
Hf 10.159876303592576 15.053275580121309 9.003983925987225
Hf 11.16972219718105 11.859494536452342 9.547581442858965
Hf 7.333421750084928 12.968561912079167 12.45740464963142
Hf 8.893954886731699 7.899800746291383 12.040620851642018
Hf 7.440969450353973 9.94278559077829 13.57522815594637
Hf 11.442175726971383 9.837582946391493 7.782997137054884
Hf 11.346620192397795 9.00904981742105 10.946524755900741
Hf 10.142836030182329 17.619556116530884 13.034961333996035
Hf 10.129683209536765 13.189818326904156 12.000647402293623
Hf 8.582413379966304 7.526572334142376 14.726775071606788
Hf 10.248773009573878 17.58006858090593 10.172636255562633
Hf 12.168954540927809 13.870964306514601 7.4173944900862105
Hf 12.69111179979593 16.476427658506353 8.949724136081722
Hf 9.015441705049628 15.099138456565514 14.256392572054274
Hf 10.469882103070224 9.730621962022742 13.802179169381452
Hf 11.25931564071454 6.96712165548299 13.552622317890663
Hf 13.316671105149268 13.670211639559652 10.12160400572264
Hf 9.095103096312586 12.310983767511768 14.692199180505643
Hf 11.778966544503158 15.645837032826506 11.796276968491213
Hf 13.595163778821064 9.728898213600043 9.544461824635208
Hf 13.811569174800923 11.72106069493422 7.641662954208841
Hf 10.757964617097286 8.085146495386944 16.297055027402894
Hf 8.667291489623235 9.963937728710297 16.212564678513708
Hf 12.601844298535788 18.335228328243577 11.469570509073375
Hf 12.032808467758864 13.714239094083421 14.66534538155486
Hf 14.098456550915497 9.162857733227469 12.429133623598911
Hf 14.427318016058978 14.18762473495044 12.849794201484785
Hf 11.3702737004149 11.06990169035119 16.325513495166582
Hf 14.67889594885578 16.292730672966073 10.970349234218546
Hf 15.5815328778607 11.713186680432969 9.87660624348528
Hf 12.634101518847574 11.591289058055905 12.335564229327238
Hf 13.103686086319925 8.650673039707602 15.141603234122194
Hf 15.090991823877742 14.38926763133815 8.21081571686388
Hf 13.508991424830745 16.78618000690887 13.927827036851792
Hf 10.988040239426171 16.608483287876975 15.574071603079789
Hf 10.45361393495057 14.051449011262982 16.95503971864181
Hf 16.026075974370972 11.679416931186994 12.801032450675837
Hf 16.801181391471665 14.264585005095514 10.848216970824788
Hf 13.202274611237122 12.885521600264877 17.362961929623314
Hf 16.91802630089762 9.319610848953785 11.409186748334006
Hf 16.33986282660945 9.13070499803489 14.263637549166958
Hf 15.290725781595402 13.921253433866456 15.617163369785366
Hf 16.812902887717204 15.937918493914124 13.343887648920854
Hf 14.14109478320626 11.219750169092027 14.953230327840963
Hf 18.299419152690113 11.771970731622103 10.856219951424514
Hf 15.77580215477833 16.662168050159465 15.867332845162187
Hf 13.113418280582858 15.598080576646963 16.815114982305964
Hf 17.179803836557667 11.699928916685037 15.560286218979815
Hf 18.65512290985761 10.602691849775992 13.39712783889294
Hf 18.43176366074883 13.500058021757093 13.299137477729941
Hf 17.91363028436326 14.819269667239718 15.804491163451608
