5
Energy = -35.80997791 eV
Hf 12.76733917653996 10.912556122762563 12.648339648475858
Hf 10.729249821889413 11.178731351934006 10.873899852966542
Hf 13.260672849183717 11.959529865750131 10.102687161340429
Hf 10.250180028442564 11.74618522876569 13.530685290765474
Hf 11.845694730964551 13.380211069496461 11.997102372577727
