54
Energy = -469.71743529 eV
Hf 10.031640340914931 12.008510152006746 15.871002357976963
Hf 10.778660568523687 8.681387127180901 10.486848400878953
Hf 10.40647986799566 14.502094404320706 17.69897733043596
Hf 10.240343451534374 10.05480342981556 13.349845005340832
Hf 12.130133948523248 9.572750914092257 15.672637962469524
Hf 12.55981213973033 8.095133507282444 13.09884433383317
Hf 9.47049948754152 13.070384834292527 13.1628010491288
Hf 12.594501487193293 12.321566769674247 17.128403990143624
Hf 9.941954653501453 11.32714795834538 10.725913367678885
Hf 13.416653557110005 14.986585485022202 18.464746188235484
Hf 8.5448909014099 14.491566416449372 15.563327749748845
Hf 11.664958492658174 7.9303937924280845 7.933838953016475
Hf 14.586039602753456 8.179004366221166 14.978436385324043
Hf 14.856915696371598 10.18163409788236 16.859306588341404
Hf 12.28124805509236 12.076925706527645 14.087451719933306
Hf 9.385180013368231 14.38111393298411 10.557112493714177
Hf 9.857658492540045 10.085769668876859 8.121918103910035
Hf 15.28692314423096 12.748649055358067 18.7537178018391
Hf 12.554994992728195 10.541355608972719 8.739217033454578
Hf 9.372507130104047 17.234280511838605 10.570837585529182
Hf 11.481546705886057 14.496280806991889 15.19203766513751
Hf 15.791717107065612 15.278572925474219 20.04211073705678
Hf 11.076583006555799 12.956567523924864 8.537453092217058
Hf 13.042304390612344 10.557028618058906 11.674584424362685
Hf 8.302842039550713 15.992217433625694 13.072137558486572
Hf 13.508488239514243 8.111255067325686 10.258159785551076
Hf 12.18473492346893 13.430745912225282 11.209358031534528
Hf 15.576483898736003 8.645218083591065 12.357661081685904
Hf 11.192925551508054 15.997374955443494 12.499080974466766
Hf 15.036392544367855 11.206249377667563 14.063767213127308
Hf 11.601037868688987 15.828176066010961 9.486275844604332
Hf 9.947054464153952 17.03738805342212 15.490201667074023
Hf 14.765796670696258 13.84560393662839 16.00609367679177
Hf 15.419339870542409 10.303631991607377 9.843313767223545
Hf 9.681300165535164 18.523889281567318 12.983686568695969
Hf 17.03861435850341 9.480231224405125 14.889296971454035
Hf 15.419242957439444 16.935681680978796 17.831032212139686
Hf 14.203454261535228 13.236098854630255 8.913503423707281
Hf 16.967232152362993 11.993461988963677 16.480077119123532
Hf 14.07564968177181 15.111432177366657 13.511734181124627
Hf 15.421273445448575 13.052818181472828 11.527949575145882
Hf 17.149735578438165 14.676477905454888 17.60654162039904
Hf 12.05532587429637 18.433515982544158 11.21024931191797
Hf 13.323922096691335 16.676759495328977 15.914908398611228
Hf 14.083315557522788 15.838989518970594 10.804866668291208
Hf 17.417199740217757 11.045703735784866 12.154070277853252
Hf 12.10871067066141 18.468625731291574 14.122531007391883
Hf 17.100853001923614 13.528825884258271 14.021726867728296
Hf 16.3188376265772 16.29354844189584 15.09105004946981
Hf 17.170220190339652 12.318489997093831 9.308546814979081
Hf 16.542689459169782 14.990677560750234 9.529768973587675
Hf 16.73562348292746 16.020439812118624 12.20338227152225
Hf 14.641110351646244 17.90648916568349 13.150744716772989
Hf 18.353798486564028 13.770476638142545 11.41585064754064
