5
Energy = -35.8721666 eV
Hf 10.914191422272577 11.590373734326363 9.856628799274905
Hf 10.197597104949695 11.25493122508137 12.446757308348891
Hf 11.324436666208461 13.6570740107954 11.656458949784666
Hf 12.820305775441522 11.326326793331136 11.765885564290855
Hf 11.30372058549807 9.119929092629404 11.05742943230244
