55
Energy = -482.65970413 eV
Hf 14.847558350653625 8.617021898573485 8.748279263663
Hf 16.135976576437276 13.61140508607505 14.492512793650059
Hf 10.868072443142049 11.00307307882596 14.568201189397712
Hf 7.514328043651857 13.818931992296529 14.581453369643935
Hf 10.252465159710889 9.957359151967907 17.211285017000765
Hf 15.333133249077765 11.760159751783622 7.681091435206677
Hf 16.558455792543615 10.840453214593119 13.435182491523815
Hf 12.420995991769228 11.917931801933934 17.22536190279636
Hf 11.809512219976932 14.850159087766533 16.64852031457324
Hf 10.401698223231886 10.345252378382014 9.041883007780333
Hf 14.349499175140677 16.151458466329775 9.623323851823384
Hf 11.130992396807638 17.048885727610344 14.690208562444198
Hf 12.237714587153036 15.448269122192366 7.538818934111275
Hf 10.505304209031427 6.45482539618008 12.617661325309363
Hf 8.056774544571857 9.769832430171043 10.56709283469319
Hf 15.098401595293932 11.191911244412896 16.05849272287773
Hf 8.165967108172048 14.618858133799836 11.783201401623433
Hf 10.862994309814052 9.323039785939853 12.02142748058656
Hf 13.170709587739669 13.197285368678736 9.113884961007516
Hf 12.04824250293064 8.05519121331599 8.32402599287452
Hf 16.32972498649126 13.837978607909456 9.577318673130259
Hf 8.295686869764422 8.339052290301161 12.938768195505594
Hf 14.493947747645867 13.93854236291441 16.826300808741532
Hf 13.89775695586957 15.84389500082565 14.609357695278439
Hf 10.154617375407142 17.056876712932358 11.942978909181132
Hf 8.20936884021954 10.18456671806358 15.36455365333273
Hf 13.212212960440544 10.287038759298376 10.153306662446198
Hf 12.796532179363645 7.189530618449329 10.838475751983708
Hf 10.340841685576073 14.865620566398944 9.766084083985314
Hf 8.438080885682822 12.463684313633841 9.83128422375371
Hf 10.612709595969246 12.890537166584613 7.6426833916118415
Hf 13.560784196862338 10.25671778749449 13.401944407195568
Hf 9.533808474997738 12.711186296556804 16.520603796826812
Hf 9.780924659066407 7.50843110659155 10.140966332327787
Hf 8.275482738406609 16.523270740364136 13.960173126616306
Hf 10.317860830958104 8.023013342836919 15.055132975029222
Hf 13.126819614699203 13.070840374568155 14.49199350151094
Hf 15.301962885732772 8.491455359391798 11.827205947684272
Hf 17.424153096201124 13.16709830927301 12.002814847595886
Hf 12.892489975933033 9.1247962447451 16.23310907177389
Hf 14.58443379931172 12.757644681044072 11.813797723647141
Hf 15.373456196645128 8.587974215675043 14.777256509463232
Hf 12.454782213426665 15.12373509431225 11.86178394396433
Hf 11.844455491970848 17.350838151316626 9.810000171834911
Hf 13.222454607355445 17.723175160016726 12.290291800816854
Hf 9.062022226808626 15.550355944034719 16.33019943893703
Hf 10.266320355355807 14.312310415995356 13.903732436385383
Hf 12.97472652918498 7.347839197170078 13.79806067581947
Hf 16.318394355077675 10.866077888918454 10.384977769164047
Hf 13.10754342866111 13.06228566116627 6.144660895624272
Hf 8.505576941716686 11.637985292181908 12.779892962566626
Hf 14.998749501885383 14.666282662861338 7.220174513755505
Hf 12.803392276165724 10.465200653636495 7.210042589066944
Hf 11.134907080070375 12.304394227898067 11.401282388231115
Hf 15.607322374224845 15.511563743809967 12.199981272624758
