53
Energy = -463.81505473 eV
Hf 11.805780867866801 12.76026502129578 18.254214636036625
Hf 12.906148883653714 7.8246776484901694 14.9299277061866
Hf 9.945477090351737 8.582650217507403 15.668677878253702
Hf 11.906169711560954 10.534146946563228 16.26562737574008
Hf 9.370744838252335 12.223505042627043 17.0821855829942
Hf 14.365182920024498 12.316717225401359 16.872667813386776
Hf 14.24873948692085 10.706771983149192 14.422082951029665
Hf 13.193528235233044 15.076642298152217 17.332717550299257
Hf 16.540517643834477 12.69927378572297 14.34787205554846
Hf 10.44358765505054 6.6859823315679545 13.68439342725499
Hf 10.238352759988617 15.030320810051055 17.265843098680218
Hf 16.03001265775668 14.6440712193933 16.692106725514694
Hf 12.61534356624808 6.856022799677699 12.097085384593537
Hf 11.383371717223763 9.449987656119195 13.263721329677093
Hf 14.480601426244728 8.897883929453329 12.315618221959136
Hf 11.398590421434971 13.304941461228283 15.37020819626358
Hf 9.241462057561986 11.220354603718647 14.454029937476356
Hf 8.45899657489328 8.731314967626771 13.197731976049747
Hf 8.524091322231836 14.18207801230807 14.931954338394664
Hf 16.741315143390644 15.756676207915474 14.262641083800215
Hf 17.251643716762143 10.196688264735458 12.297102019761468
Hf 17.966216132536605 13.000394059673773 11.801129222393277
Hf 14.575165407051559 16.98935005511744 15.771610313409115
Hf 14.185757664548367 14.406243251491142 14.463369725091828
Hf 12.479607650721357 12.353847514433365 12.784633712904755
Hf 10.077059615683755 7.784846945461299 10.940221255649616
Hf 15.228974216472078 11.880006301353307 11.651746605918179
Hf 11.85217766886208 16.189300372255115 14.549674970253209
Hf 9.279417374198859 10.7480167147898 11.242935644262465
Hf 15.688259366143802 14.780831502623785 11.871501230086372
Hf 14.251622412862893 17.067564697435312 12.927260228079462
Hf 7.147049993807283 12.205959618986235 12.801606082576985
Hf 12.442727320005352 10.52217366478319 10.555307367291324
Hf 17.428776621324417 11.323459803905736 9.619953414430173
Hf 15.285837119990587 9.485037909003946 9.60995318188234
Hf 9.733380791111564 13.515461518253348 12.358358203328178
Hf 12.541597159166313 7.954778646287023 9.429241278582538
Hf 13.126823195206764 10.11924862581474 7.723788463113619
Hf 12.444826697251093 14.998050531274545 11.74240655843123
Hf 9.361900629093288 16.55039224252474 13.129944359782666
Hf 13.761600317810357 13.321920428777599 9.61926693661292
Hf 10.369826852485476 9.867798023942385 8.629966523047939
Hf 7.2739005740894545 15.00993118255729 12.246108382342653
Hf 16.678368418718364 14.080420183437889 9.202827334106697
Hf 7.836422375226473 13.107474201072892 10.173194011058609
Hf 14.381303213369343 16.26699224703132 9.828092637906508
Hf 11.538560460274734 17.49917470823932 11.425694458405335
Hf 15.350705436727129 11.92905116093595 7.621007206591696
Hf 10.665540353312577 12.826289836101472 9.495863382239763
Hf 9.326118730719628 15.743203518145807 10.351831874940544
Hf 12.412941892048266 12.835673866494094 7.0949963232899185
Hf 14.514753663379292 14.737232123297424 7.284019750083807
Hf 11.964550629889791 15.408641420973161 8.72525174094341
