55
Energy = -477.86606476 eV
Hf 14.362837543821891 14.708013076495728 14.223400494249333
Hf 8.97998732624395 9.79247533760708 12.68223529772125
Hf 13.723851348304972 9.388565894586485 16.78496185050674
Hf 9.368757860296705 14.269053610673685 15.241415172970648
Hf 13.892517979436432 12.867796976151057 11.38207501298151
Hf 14.443894477363333 12.859936887832589 16.64094253879064
Hf 14.305428991614706 17.58532203517472 14.080150322196744
Hf 14.011620804492452 16.135897491690386 11.63007870643026
Hf 16.391632122707456 17.182286102736008 16.01461058079458
Hf 14.340762019649032 11.010634338930391 14.217021488963837
Hf 13.967062320040633 9.613420582557497 11.602938709925052
Hf 11.743865964184469 14.266146493427637 16.83787892765423
Hf 9.338105862040344 11.499560119399392 15.216879764297452
Hf 16.451092855980097 14.330704285805915 10.92775584460996
Hf 9.389960176609444 12.87114290957586 17.84483776703774
Hf 14.22335659403273 8.137166955037351 14.0443692064424
Hf 16.421340425498858 11.380267182665406 10.904084567324734
Hf 17.06999942037421 11.292336372540783 15.975694651922723
Hf 11.84355785331201 12.874765716164216 14.058903479824563
Hf 8.475161867987758 14.429523615172684 10.104453523292072
Hf 16.295657436560305 8.540682263356151 15.976269804126895
Hf 11.723035052317801 15.926497405603941 14.27363645179118
Hf 8.4503544074591 11.393473536128399 10.082685794109382
Hf 13.812994456638988 16.315440793448133 16.816356857039157
Hf 11.684913453438526 9.826501132455125 14.240460112406854
Hf 11.407237770319902 12.894729906641762 9.015490950617954
Hf 17.04609806827894 14.370323544414816 15.984269398551584
Hf 16.481472834593372 12.845050927052467 13.409108166620271
Hf 15.965776449847164 12.88333816350367 8.693844244102252
Hf 9.230849187780393 12.918239293389181 7.328763738172588
Hf 16.727841275228787 16.02508185515075 13.417033106694143
Hf 12.207039719213963 17.173354494327103 9.427431128191511
Hf 10.059277205246861 15.601654178555682 8.090673968207518
Hf 16.697337890823388 9.678069241471668 13.410227238573453
Hf 9.485012525551747 17.131830978837097 10.239400743376315
Hf 10.021340314434692 10.2159266805243 8.047907804708798
Hf 11.327049472489772 14.908217601969902 11.315515756419394
Hf 12.155251832128638 8.624087870113778 9.378475233174909
Hf 11.805941577682253 14.368734593701236 6.442653724997906
Hf 11.450517886294469 17.7352267913319 12.132186661972714
Hf 9.4345002918579 8.6858765562229 10.190794143631596
Hf 11.794123236185436 11.446680933785151 6.424620802406969
Hf 11.29905358166703 10.871554146506428 11.29460554393113
Hf 13.746505979525905 14.787355946288757 8.897510733486087
Hf 14.074575791490457 12.897697822596141 6.751081839956911
Hf 11.390525467890622 8.036139605064818 12.077173306673844
Hf 13.743157267358576 10.990230920037432 8.883802238784554
Hf 16.33841968598976 12.834312994373477 18.74602980484013
Hf 9.255365060856885 12.89580058115951 12.581566481808062
Hf 11.709254371860652 11.46810759069875 16.814459596510236
Hf 16.118137801347448 15.670592791460368 18.32512679493645
Hf 9.03076300487151 16.007731888367022 12.722763324380754
Hf 13.773869094637538 14.317799064928256 19.04974352031564
Hf 16.0269664737644 10.028572510707429 18.298892081255296
Hf 13.721179669840359 11.426258821066334 19.0409404047552
