52
Energy = -454.51402617 eV
Hf 17.066781917877208 11.838828952413365 10.266682034024631
Hf 15.239551003978972 10.57594207927999 8.21207741861944
Hf 15.871291870273843 9.225964723069398 10.858495080394416
Hf 15.760376015411836 13.56543539482569 8.552064577339193
Hf 13.300214855410811 12.697430295759334 7.118871587171302
Hf 16.767703152826236 14.359750717958017 14.203752020984478
Hf 16.330566287272166 11.504220201659376 13.181087602896197
Hf 13.876393721205917 8.140722816738556 9.120794212491374
Hf 15.964160214817989 8.3760864908588 13.648025148074195
Hf 15.682126129178975 14.303769717304267 11.528556527294269
Hf 16.228045933188604 12.596697746730019 16.09610690689873
Hf 14.230542917584136 12.05039313288632 10.489635247702827
Hf 12.211781717571908 9.891296240006785 7.607175342343837
Hf 13.56890585209023 7.372610607955974 11.878486143376234
Hf 14.613147268655997 15.095175523365308 16.278484838942283
Hf 10.500150387629112 11.951439349618749 6.641631553536399
Hf 13.303085648450796 14.867744276954184 9.275721332225105
Hf 11.023347430295434 14.661040207342664 7.424086849299227
Hf 14.979623225022989 16.613113987068616 13.776006766196605
Hf 11.241662538282236 12.533216307062963 9.3552968187894
Hf 14.06160254607642 13.270319096147006 14.189947042879371
Hf 13.87863494859393 9.973918700280375 12.980286110485205
Hf 15.127837006031736 9.997982128024045 15.980368241557507
Hf 14.724165460282816 17.01434696851488 10.799272753748602
Hf 12.100264424818157 9.941415727968609 10.647574296390303
Hf 13.307594155141878 7.90470244499891 15.057734780252863
Hf 12.789405325865918 9.426102347338372 17.56186997642052
Hf 10.929534936141819 7.762781022667911 9.8038165711633
Hf 11.137322598515013 8.391414640735784 13.030899185366197
Hf 11.97599847540437 17.34039795349156 10.137062560671568
Hf 12.376428650584055 10.913629087580757 15.20224964686469
Hf 12.759916294163775 15.318247659396585 12.123434283799645
Hf 11.91664923812146 12.239133632944341 12.265684710363223
Hf 12.870211199135886 18.155097030482615 12.724606214484602
Hf 9.320258960918228 10.297867654400637 8.689575983148304
Hf 8.656450412801409 13.277601898314316 8.370328515508994
Hf 10.47491906111608 8.744154176334664 15.921820953357587
Hf 13.656896553380053 12.337381699653545 17.389184417575358
Hf 12.177045010836778 16.536102782539594 14.909450230056784
Hf 10.123745018382944 15.077785730648111 10.276759815122874
Hf 11.642305598093648 13.864911799505167 16.01766456776948
Hf 9.704062065705774 11.052854886964393 14.056263515015221
Hf 10.460171030645226 11.2000991792797 17.356609630525654
Hf 9.176018758934557 9.571176554972228 11.425904302817019
Hf 10.190976248187788 14.007596043220826 13.329985079744914
Hf 10.194479791908547 17.03385379524461 12.590659034914903
Hf 8.754743404755144 12.434314242060003 11.213475009018511
Hf 7.873950397835598 10.548932165218085 16.03425862719491
Hf 7.8843991965412785 15.230037237750693 12.13811077296886
Hf 8.801424047306691 13.172171480716033 16.33416842398587
Hf 8.82942597451081 15.652647545220681 14.963153753221125
Hf 7.4293844520624495 13.083356478737995 13.937011590666419
