52
Energy = -454.13946901 eV
Hf 10.072784387027983 11.75306081256091 17.25681337334472
Hf 13.423985925989367 12.09350813288686 17.40479382884303
Hf 11.562125984510365 14.329325614102004 17.94653583725759
Hf 7.53038697315263 12.176169349785965 16.014300784630358
Hf 14.882342079546602 9.622973283957322 17.150346195289167
Hf 12.021079355573999 9.782475869925506 15.829969149861212
Hf 9.065716706638288 14.605092549191344 16.478812132687928
Hf 9.200149149079337 10.249837766339626 14.74243929375785
Hf 13.988811330547405 14.924084972112311 16.60709822103043
Hf 16.13523926836968 12.200267365472536 16.449815977140794
Hf 11.656799410171772 13.20021744876593 15.41878950789212
Hf 6.861766692915594 14.427306475789113 14.549103419268809
Hf 6.847649758188474 11.713154035404662 13.231193393886315
Hf 14.42007939489313 7.890718377325436 15.028618917995454
Hf 11.58372423233137 16.254840796714348 15.612143270443225
Hf 14.287682355566917 10.745983968840228 14.65221977926854
Hf 16.910206604646806 9.49175074068475 15.006369625907285
Hf 12.826024254805366 8.735170274488961 12.725448790526679
Hf 9.225221042165659 13.034568998532919 13.678435629960749
Hf 11.741551551621857 11.362170406922337 13.086883254565642
Hf 9.216469886065932 16.104513657561217 13.80284289540937
Hf 9.32728178055735 10.414452660740041 11.861855806941213
Hf 16.823648396728725 15.11600867435434 14.557001618417404
Hf 14.436694393938847 13.538583589297986 14.218068216987641
Hf 7.383594703312119 14.53639162593985 11.772286652563412
Hf 15.942000344816087 8.01369081445612 12.503342985447501
Hf 17.098944600498474 12.348060543166307 13.751150500825482
Hf 18.153677778586385 10.15291805503384 12.339377204775285
Hf 15.245358119305253 10.699007572643701 11.876300698641675
Hf 7.626226324840695 12.03898541520683 10.342247857260855
Hf 14.26648494470311 8.566583284664135 10.143337458952837
Hf 11.938248713996948 14.809554665041226 13.035553256428384
Hf 12.080748618669961 10.557231370897611 10.164141981822725
Hf 10.432962861895264 13.15582872556967 10.80286178418353
Hf 16.95668994441607 9.358772574768837 10.01346018904397
Hf 18.657538440215642 14.255325723693915 12.29144371994582
Hf 8.315956763595395 14.379676000077685 9.078493809534296
Hf 14.401100223538633 16.531739777645885 13.359879901220426
Hf 13.490800577491433 12.939914181294743 10.99608791380245
Hf 15.812707193341916 14.531551781790563 11.72739313491986
Hf 9.836282069993725 16.21451567869565 10.889098128001823
Hf 17.32368927034465 12.329819896535852 10.382211765567147
Hf 11.67181401495579 17.55559230701606 12.781160444738886
Hf 17.33690736114862 16.85545464610728 12.304727148216013
Hf 14.940288325717402 11.247402347630578 8.934108806930377
Hf 9.788828774559542 12.11543908087226 8.258822862777608
Hf 12.841452533525205 15.788460779564337 10.542506589846285
Hf 10.942001306947851 14.888682622027774 8.427454000917583
Hf 17.720887349996485 15.378293371704613 9.82611088248191
Hf 12.61352834631584 12.680903496196061 8.175206834750686
Hf 15.421283337382242 17.029365344611282 10.299143497905568
Hf 15.019865259004838 14.469376300061764 8.74285045488101
