54
Energy = -470.82772168 eV
Hf 7.854229391085194 15.223387484014342 14.796590097384518
Hf 7.362325992869872 12.927748397573872 16.189060439906484
Hf 8.638762701651448 10.469506566341696 15.159981828257322
Hf 9.262089772808912 14.79716269837706 17.455203906195692
Hf 8.262013128496433 10.260683014864128 12.149309390498578
Hf 8.887980587763591 15.215588665348035 12.013384158988124
Hf 10.222832200664833 16.640621898787863 14.936603608206084
Hf 9.31966233405574 11.769351324034346 17.731191025153286
Hf 7.938792094174712 12.781531798668915 13.250440675242809
Hf 7.939190723719819 12.430981033618764 10.30631634725835
Hf 13.191279022078263 7.665317494858509 12.334527075211135
Hf 10.286825440341321 8.284342821640406 12.18141168163155
Hf 10.153392298285366 13.26139222031495 15.30670238294887
Hf 11.86193689795074 12.919906162382993 17.89814982416509
Hf 11.475047670727932 10.349958047413175 16.385799827123876
Hf 12.142003455384879 15.564644386911285 16.694351533998347
Hf 9.819058271507656 10.069231903151252 9.780885537048155
Hf 11.024688698322409 10.713026887626173 13.543483144395415
Hf 14.147410731695805 11.073725387591216 17.210132901509102
Hf 10.22864302779552 12.7528770452895 8.487664156932823
Hf 13.00619782402193 12.419381669060167 14.933040586357269
Hf 11.510889821758092 14.720614680437876 13.065775779562784
Hf 13.029650302252351 17.73079740224535 14.303192636343383
Hf 12.901531490897334 10.355798294747617 11.280366865296452
Hf 11.829061203752929 7.978163318810812 9.88496823969395
Hf 11.234559847195081 15.484476668902255 10.141080565480449
Hf 10.501313300598222 12.592679729528921 11.361434219388244
Hf 11.04898769373473 17.378243512252656 12.18732155517332
Hf 12.449625813000273 10.370188663773655 8.357724431845464
Hf 12.816762818982344 13.099390831535645 9.380424916668986
Hf 14.63485662698261 14.067602536020406 17.360092875024772
Hf 14.012538207306857 9.763991359709586 14.453433904049366
Hf 14.584892898641902 8.49298805411474 9.805344934444243
Hf 14.044141555411853 16.15728651250868 11.4869441802817
Hf 14.120097204236233 15.061059338921421 14.485825110075387
Hf 13.475066322104894 15.828085883835557 8.369904712300533
Hf 15.931648858784335 17.20214700056358 13.860128815873114
Hf 13.863360353042234 13.122180084640764 12.00511921682706
Hf 12.698650375526206 18.087584293634826 9.795184311011857
Hf 16.165857993676138 8.168323684796025 12.366493068948362
Hf 14.730746349953982 16.945456099027115 16.53584601831985
Hf 15.880649909040857 12.340440289578844 15.25103719018765
Hf 15.923801568504013 11.039624042654223 12.372101752118757
Hf 15.156321513921924 11.441025509563843 9.271351374733694
Hf 16.81933990010721 15.109410671252125 15.701501091426653
Hf 17.04192598070498 9.747660115916236 14.740633530292365
Hf 16.513657303380196 14.344036854473009 12.841422235490894
Hf 15.712254791502994 14.406330035210146 9.725466139974474
Hf 17.20648290989132 9.688169914617514 9.989974514266274
Hf 17.238305304661125 16.38420796461244 11.17206304770294
Hf 18.348731736165238 12.229127877582147 13.8042976035547
Hf 15.580160871563075 17.299310933713883 9.230287642184614
Hf 17.916932172556887 12.454783503751496 10.844856291597333
Hf 18.56165145123285 9.892629296887584 12.311798703442198
