50
Energy = -437.12638555 eV
Hf 16.439555428211367 13.006793265344069 13.396713284449623
Hf 15.550958943988299 12.517022870290623 16.347490991683447
Hf 15.294006298151592 15.698894436171345 12.105890762373637
Hf 15.159312685253521 15.169489082435504 15.038716503556305
Hf 17.647965835734052 14.45049860048258 10.980368039523642
Hf 16.740790177749076 10.376135709983371 14.561732164526646
Hf 17.678257233873186 11.547910137737565 10.970558222011373
Hf 9.95061520233856 12.871266466985661 17.19247011055295
Hf 12.610612570667344 11.262103993328669 17.219483455856135
Hf 14.928190973334496 9.55715302712172 16.647253083090455
Hf 15.218889366609046 12.971520981036884 10.671260866899017
Hf 10.512545816596603 15.639937681208634 16.29391334609881
Hf 13.47980071633979 13.837320014405234 13.166338944396076
Hf 15.586405741725134 15.356733242392256 9.015497109925764
Hf 13.96491436951815 11.117424328603954 14.489869625972771
Hf 10.018816618657752 9.928875257596722 16.995412139568217
Hf 12.371425437822552 16.392682428191453 13.89515946721789
Hf 12.734992079964304 13.872804391606918 16.009183344746745
Hf 8.00016595084232 11.234699520563144 15.658968947088686
Hf 8.081669167913391 14.262460890385837 15.306396634016764
Hf 17.312289147820806 13.050967016522073 8.58244955116618
Hf 15.34341388377437 10.195647590009894 11.892884964107212
Hf 14.828348077242053 8.28109357902642 14.103255150564289
Hf 9.261506083944342 16.74159130200952 14.132848120155353
Hf 12.310755770917623 8.772788418078107 15.529359995618512
Hf 10.502579766834858 14.25734579961417 13.700224951272677
Hf 12.424912508301842 11.425463468686885 12.083410471837611
Hf 12.669870314493329 15.32124335799515 10.635760725843404
Hf 10.829177728774576 11.48430047340075 14.741297557251809
Hf 10.200182386075163 16.332848365983264 11.50285481280081
Hf 15.747785780433508 10.622120204645428 8.79579940925224
Hf 13.082063083527244 9.77519041808257 9.947339298591809
Hf 9.355864568853526 9.075732058350576 14.109790050541227
Hf 12.135304000543295 8.446848734287167 12.509517409163944
Hf 12.779384363238114 12.730547362555972 9.143993821946756
Hf 8.228528729506257 12.038887790080379 12.996193048031834
Hf 13.044931642715428 15.271135399959846 7.667186490359402
Hf 10.206465851671076 13.229453810268883 10.986547632919777
Hf 14.879262990371094 12.999529968173183 7.062270706734469
Hf 9.925884718567053 10.096776030131927 11.295567476237698
Hf 7.992170955719535 14.797207897451598 12.30671974608175
Hf 10.524804620227973 14.429754647230578 8.563680012218
Hf 13.161844835999997 10.534476381619669 7.239606615863541
Hf 9.23769486346243 7.394938187375459 11.641295665790937
Hf 10.952997612858146 8.04730042102471 9.44753508760571
Hf 7.211949455689871 9.421268154628919 11.970194313270229
Hf 11.982179180379259 12.959724515690912 6.415317664799758
Hf 10.461334315076199 11.076978679887755 8.537720534819428
Hf 7.789221683175385 11.680222055321602 10.114858500956455
Hf 8.289738484128046 8.92919866197224 9.298522646644232
