50
Energy = -436.52380042 eV
Hf 7.508416490006306 8.87531040076073 12.232086735820028
Hf 8.911471627404007 9.82593740223243 9.836807025219112
Hf 10.095249850929738 7.317617480246203 11.668926186494938
Hf 8.61675081586633 12.912849791062612 8.844741230792906
Hf 7.1980551247365385 14.569465086244758 10.779846758156676
Hf 10.599072100962934 11.068767269874977 7.750561558462803
Hf 7.8103270106478995 11.858550842032392 11.864159303639624
Hf 11.849636997249469 9.109541520404061 9.785413016938282
Hf 9.002597822030822 7.893437728589487 14.36699792094847
Hf 13.105406442952114 6.909068334911808 11.60032913956812
Hf 7.896610055455313 10.503752184785313 14.597160346424717
Hf 9.42752103374595 15.74361698355218 9.403548751414975
Hf 10.049467766010226 10.060293022562222 12.732069630008368
Hf 11.466956769987059 13.862369866071045 8.344727762076351
Hf 11.663905336547497 7.312850517207728 14.168706344442985
Hf 7.597843370613216 14.378800556648065 13.568855744704047
Hf 8.58723163170057 16.695294585684483 12.062186576077677
Hf 10.812750405495505 11.854581990669224 10.446479721099044
Hf 9.92051042666479 14.198679171242961 11.857626490970237
Hf 13.362144705036778 11.506762813312072 8.343682722911336
Hf 14.755503315419576 9.081592583864712 10.416871296171385
Hf 12.919755951385948 9.389593010329765 12.623870752584487
Hf 9.842409221701471 12.571335173347943 14.260370160148547
Hf 13.535918189255538 11.584376220650196 11.156734651098503
Hf 10.92074262008144 9.941228896523711 15.658186032811315
Hf 12.782449119012025 11.797199718403679 14.320542757151083
Hf 14.382996705900165 14.199039732147149 7.940444457021683
Hf 15.746300760340256 8.6626704830923 13.253069682400392
Hf 10.131191703910781 15.631216693769828 14.538412500486277
Hf 13.748575170377187 8.95063954117318 15.525219615455539
Hf 13.191902736587624 16.598456295205143 8.93605143512337
Hf 12.755675611360473 14.806081885157568 13.645472767823076
Hf 11.460033028083638 16.67556510702133 11.423180051349927
Hf 12.309690882008454 17.657895073949852 14.05411789540663
Hf 13.330684830394404 11.252456862007612 17.121725744195984
Hf 17.29621147083434 10.228989604232035 11.18208797478158
Hf 13.327077936367765 14.397308314311998 10.652086071037461
Hf 11.518940920560777 13.359877383402521 16.427450433606246
Hf 15.956720850938847 12.645598096818054 9.950800273482143
Hf 15.574371865342414 11.65130761177809 13.125037436131306
Hf 15.938374745510682 10.864929259470612 15.934451815204092
Hf 12.66347535261173 15.98018456370517 16.28380753849275
Hf 18.029044658152653 10.5110302982041 13.896341043485993
Hf 14.945837529230168 16.494853787702784 14.723240440883533
Hf 15.882054379940222 15.610115656339767 9.86863632932287
Hf 14.250135152154588 17.050909451216505 11.845066003949606
Hf 14.5820381097639 13.653460323694867 15.797562885721817
Hf 18.072264208281926 12.812442562216185 12.083724102699867
Hf 15.727346741461655 14.571911679207059 12.653494562328634
Hf 17.369061552896863 13.224541576151049 14.784128900552176
