55
Energy = -482.04009298 eV
Hf 8.326303332948289 11.482701417147062 10.568930345989202
Hf 18.62814432360846 14.123705672131265 13.000062742293155
Hf 15.23540180888253 10.703691652807958 15.104654324902642
Hf 11.158174813184928 7.945895791522565 12.563413759857669
Hf 16.01814801349554 13.872155196097617 14.560567242346112
Hf 11.543952101370174 11.11024372719709 17.63873198626981
Hf 13.551450012919192 13.04013068620875 10.23788793224357
Hf 12.832733541993367 15.888626901129168 17.43115194166733
Hf 15.629575657765285 9.633274365232651 12.25559978716848
Hf 10.715563456616696 12.319049743502363 11.856466095422162
Hf 10.735520850177844 12.13754082800138 8.90255361674909
Hf 11.993854749683791 10.82988814718185 14.566689990522923
Hf 8.331519643830395 14.399105455016981 15.58301809372217
Hf 8.098398201513382 12.945992607765383 13.079451637038387
Hf 9.195557747413282 11.557248714555971 15.674520927195635
Hf 13.041069368322242 17.461264135183963 10.517959985364024
Hf 10.156134056869911 16.98777952704572 10.51578159904929
Hf 17.37330518331296 15.234853801171946 10.378011148657333
Hf 11.363661634958566 17.824627303026233 13.079515164853708
Hf 13.606316783586667 8.32106586632759 13.885655697634133
Hf 14.93351829679661 15.192785389979344 11.911297547287568
Hf 13.341704608460144 9.109788368860233 16.661067361948916
Hf 10.754227978749947 8.64468991175597 15.398217628020959
Hf 13.115983657624385 15.643074783862247 14.420128629032982
Hf 17.831926142141533 11.4987815891161 13.999862733423951
Hf 16.502328744394443 12.500231662532668 11.587457251865477
Hf 10.419844200119835 16.487010219288884 15.69888317684679
Hf 13.413576352170129 13.041468908059871 16.12799385012742
Hf 13.81760891640905 12.562211855403643 13.09796686121026
Hf 14.594392821261195 11.291922817735927 18.09447927348584
Hf 10.554187785151505 13.93416288809173 17.423506264253202
Hf 10.767928907571967 13.67305018994846 14.484286394636054
Hf 19.716809034848737 12.926983766325796 15.42014877435857
Hf 17.082206916771963 16.57357209358399 13.281132625333543
Hf 15.921577983283592 17.58521395652104 10.696863551700684
Hf 15.505552231114297 14.336218796284493 17.649798832564954
Hf 15.445046895840946 16.706976657189998 15.8029856806541
Hf 14.379827785410093 18.08225683950746 13.130596544680301
Hf 11.658326221466776 15.050668496831399 8.836818913632953
Hf 12.772372284236846 10.325258408482453 11.579494701541218
Hf 12.842923787616606 18.14633412256128 15.59861507771676
Hf 12.59582281354693 9.984759680023641 8.563935787346505
Hf 9.247340270129408 10.030151365246768 13.030016795955895
Hf 17.258471702717614 12.181555042923915 16.773578132683316
Hf 15.174700508655135 10.547751710092776 9.526173565598208
Hf 14.703910313317646 15.590906652783168 8.863901755676753
Hf 12.9604570393124 13.380774924623923 18.928555978379563
Hf 13.553839038392693 12.606151729258487 7.6249496067205085
Hf 11.762039958984666 15.082712356002048 11.727143978545795
Hf 18.08716423784847 15.124603361912502 15.908948152268726
Hf 16.185967305200037 13.146849513586735 8.754087884179203
Hf 9.04053966741002 15.831908616729754 13.04620480948865
Hf 10.26862030621676 9.43969085138928 10.227644268410646
Hf 13.62903983067047 8.04919545306008 10.726427890861823
Hf 9.05505428601581 14.301109594500863 10.425829812925352
