5
Energy = -35.86918228 eV
Hf 5.912609711607501 4.468848671316172 5.123893839630009
Hf 4.885857885865286 6.613614816784675 6.532444994524965
Hf 6.925866669175784 8.039230977535537 7.795763604379686
Hf 7.0483732401991395 5.296895083033538 7.515404627080087
Hf 7.291214034002948 6.873931395125124 5.325319407427416
