51
Energy = -444.62066779 eV
Hf 17.74538151845253 13.915703660135733 9.340655274071853
Hf 17.936472587265232 13.566013603713797 12.086979310327957
Hf 17.226498110347226 16.206589571896128 10.998455694354037
Hf 17.28228802364973 9.88346508486275 12.63400016343123
Hf 16.319269483380165 11.465779444587902 10.50576214038782
Hf 15.547932334114373 8.556230799252551 10.628465928152375
Hf 15.704573970803953 15.683307458043622 8.433470601806386
Hf 16.04982624428025 15.330337975321507 13.622535832872405
Hf 15.519807165533091 12.713405296258227 8.005088927377248
Hf 15.234752071845278 14.180036284295221 10.839707537050922
Hf 15.924422245729133 12.397413494497311 13.711832943660779
Hf 15.70860596875436 7.621288714596692 13.304272999085658
Hf 15.949958056445906 9.898969842489706 15.184821837249048
Hf 14.31537056105649 16.738032160415674 12.050054874047206
Hf 12.744997896718084 9.460025923314616 9.767627050738223
Hf 12.904667669524228 16.186231355317464 9.653415429523024
Hf 13.281684960799899 11.435271403365563 15.350013868782304
Hf 14.352368922670497 10.143177767697255 12.674166776617724
Hf 13.321178273175835 12.303035722613785 9.98738225531632
Hf 14.647107876252237 14.039163144746377 15.928279865986005
Hf 13.337435127177113 14.263264809988591 7.6610023334213455
Hf 13.101062842015567 7.553906661532492 12.067840858933838
Hf 13.44996281537632 13.83625231903665 13.249159144976135
Hf 12.021692787189094 11.546186870015594 7.37454947349871
Hf 13.617855923311945 8.342072272651226 14.999479956760013
Hf 11.596747817535183 11.300107855130765 12.524548881226261
Hf 13.201228627963562 16.4529902534916 14.812499754410615
Hf 10.528178255280805 11.635652461837292 9.872454384917658
Hf 10.598478892449874 14.12043431513297 8.06550666438337
Hf 11.992906629961091 14.835927625852113 16.7366278167968
Hf 11.037191481162914 8.777889929058869 14.134277098666795
Hf 11.32097279007125 9.572756646515037 17.058104808759456
Hf 11.509089624885204 16.914140227166072 12.547586934742453
Hf 10.083033992774165 9.300171026966336 8.308779083994018
Hf 10.275398707361992 8.75219718050142 11.089020971456035
Hf 11.175539781702303 14.282440746371744 11.058521160465261
Hf 11.634523628206379 12.29776983299379 17.827087621272632
Hf 10.721736194127832 14.280244186952375 14.080206728040412
Hf 10.325969627799724 11.595511111678013 15.231089943178084
Hf 9.022557557211677 11.815631881462242 7.511817267500073
Hf 8.661383114411862 12.820157781822768 12.359782519712846
Hf 10.021990322793297 16.631186554094583 15.198084373550014
Hf 8.748661676615498 10.071987786463563 13.08312069324649
Hf 8.3237434884305 13.601037253260698 9.671294741575057
Hf 8.695734735866827 9.253298258381692 15.870145404620557
Hf 7.970633920710876 10.596076467609132 10.030066121832554
Hf 8.95323932948344 15.804199872822764 12.370933109665994
Hf 8.987780770716013 11.237610059483956 17.79680056694003
Hf 9.272337067303264 13.99719299179277 16.93222498926801
Hf 7.794076910933832 14.721279985673357 14.574356571547249
Hf 7.515009630695217 11.943423789311987 15.360645412549681
