52
Energy = -453.71510628 eV
Hf 17.03394316925026 15.250146370032764 13.906861851816844
Hf 15.48210674694568 16.743775655030344 15.82741473826815
Hf 17.242336606383674 12.118791376275329 14.039022322105572
Hf 15.908001130592398 13.918483722035377 16.297732436922704
Hf 15.822558498285765 17.908282696759866 13.124202743238616
Hf 17.14706679346112 15.952310213295751 11.168148714682188
Hf 16.334488549971162 11.187971945531125 16.765565344430684
Hf 13.12657925195593 17.67643558506136 14.556464843169428
Hf 13.974830318182946 14.822405591902909 14.364530405252657
Hf 15.190653122776487 13.386151788946883 12.086073120079343
Hf 13.092899668909082 15.292330441967222 17.00827152709129
Hf 15.409871618180782 17.891320259584838 10.090760329767813
Hf 17.314045013800808 13.059315408382428 10.588044984564192
Hf 13.236593582487195 18.731005512122746 11.804982875108044
Hf 16.278279811217335 9.333756690338085 14.69257312533318
Hf 15.289492601788313 14.989528945927338 9.170133182670796
Hf 13.816642718939391 12.323993501021869 17.619746201009264
Hf 14.121082283658131 16.034514867047562 11.71477134633588
Hf 10.934231761085478 15.920153729052446 15.334400185550756
Hf 13.976317650888603 9.592630082962364 16.70157015481747
Hf 12.441183939281078 14.235803658705098 10.104596552137403
Hf 15.848478650881445 10.520518097213676 11.999022785775947
Hf 14.42356652648853 11.515318831214083 14.516119107462163
Hf 12.650800992613991 17.019651035683022 9.529172183805992
Hf 14.566476326501103 12.007138296201218 9.445063748192304
Hf 11.799261886163166 13.68942270148138 12.775926837232017
Hf 13.007247129108062 10.9761477904651 11.906681934829209
Hf 12.653444899895486 13.150617145642508 7.408887510036977
Hf 11.780331953407423 12.871446778615804 15.418989061282945
Hf 11.980756078401246 7.720098009300539 16.213962904363676
Hf 13.692676227878804 8.58391043960633 13.488716543616212
Hf 9.96252839652669 13.798227653364517 17.063858547578146
Hf 11.312245151136326 16.50737691790377 12.393693632722712
Hf 13.682977235136365 9.025450039567682 9.89232066814619
Hf 12.996568288165802 10.406804796501131 7.461734312494138
Hf 11.38117142149008 9.8887141480549 14.384785686823557
Hf 11.18588378362104 10.532549752577832 17.264784714818063
Hf 10.176354682463849 14.149944192284648 8.177793870369046
Hf 9.15751378436181 14.194885146185934 14.073624750434387
Hf 11.285211735837233 11.611030975060604 9.586374465830547
Hf 9.413760560712994 14.379429795417124 11.094455641711203
Hf 9.934437520258287 11.62396868970992 12.192769018124237
Hf 9.321515906156762 8.6262260816449 15.934630453189074
Hf 8.999967190261543 11.495583878155543 15.126679935820228
Hf 11.056585254912818 8.714480643173014 11.45833207756292
Hf 10.695885768851443 7.1177563505600006 13.87297660184797
Hf 10.090354086404666 11.25357058930857 7.193535594596982
Hf 11.062790898593157 8.781242359531927 8.598193441989578
Hf 8.293628164821147 12.478397228073474 9.369907895717233
Hf 8.680015426731371 9.215170253612778 13.144278108321041
Hf 7.392561163735118 12.152004932255423 12.266214850370234
Hf 8.760426521422545 9.884026104807447 9.94693970790156
