54
Energy = -467.65366469 eV
Hf 19.15681922120202 13.794801464895423 14.240857458627822
Hf 17.644634504279352 16.270482802701622 14.44374737092587
Hf 15.618087109332274 18.878527040300952 13.542245722299171
Hf 18.85791022744399 15.260647801668169 11.90722254628252
Hf 16.97141199055746 13.866151295385958 16.162829199078413
Hf 15.257080342278817 13.523946649110325 18.525973008987545
Hf 15.136437583335645 16.07079182473144 17.151538783516063
Hf 18.538701250779088 12.319639217411291 11.749160368559492
Hf 17.69119634124972 11.40533905807641 14.595211688309638
Hf 16.333272281436265 16.68480432304248 11.625919309306072
Hf 16.550377496308876 13.90125827598066 13.000736202095702
Hf 15.5576960654412 11.263015063535802 16.824306735021246
Hf 14.730556981585883 16.106809331399408 14.271106121207461
Hf 13.809541571974973 18.559810357246324 15.574849715310435
Hf 12.832507655496414 14.847022991065007 18.546297166950374
Hf 16.81253496595909 9.894747084594291 12.295842699663556
Hf 13.639680237859528 17.570905955999315 12.008574194255509
Hf 16.846326456316696 14.33013061948247 10.00992567775278
Hf 13.893406604235048 13.708976501233627 16.01233702151646
Hf 15.565941561185554 8.866103706547296 14.523946774628989
Hf 12.078287420355428 16.131340406540577 15.912877954712641
Hf 12.800903946790644 11.915620146033609 18.082182506786825
Hf 15.595053666625395 11.818420865662546 10.54455647694792
Hf 14.664817452822653 11.574980581464297 13.773634873595142
Hf 13.972338112076784 16.399726423323976 9.113174398307931
Hf 15.63079657024589 7.099431608465881 12.395186595552893
Hf 12.630171129507982 19.941399637467896 13.518338505917447
Hf 14.009436378111443 9.351310370964232 11.873054953551218
Hf 11.154080229388354 18.994525039935773 16.016328996753295
Hf 14.224905292485756 14.5324379345537 11.134830737041481
Hf 10.93215079399988 17.42125105570641 13.492550601387013
Hf 9.280864085693706 17.025191840837994 16.003855128977047
Hf 10.447587082401224 13.825801511733747 17.311008783701396
Hf 11.631765708013095 9.817289389930544 13.498955825246625
Hf 12.16457342765135 14.78415410142702 13.040758973030426
Hf 13.132672932379899 7.396523123272878 13.976623007310057
Hf 14.311828246382118 13.512090367603902 8.382941556524383
Hf 11.360987330603502 12.253221658182113 15.022709819209977
Hf 11.444561180548414 16.961474587136294 10.532550812539036
Hf 13.232817482365911 9.813053462536365 15.90732618341651
Hf 12.472124164244363 12.087134955433259 11.607718258927934
Hf 8.458877417193719 12.515072564546925 15.51134332048976
Hf 10.007856441819293 10.800471276478268 17.164710910585374
Hf 9.766178470162608 14.74606442200567 14.464168439655396
Hf 10.769948008120991 8.327422307662998 15.85402256418663
Hf 12.935123908362783 11.022924722385419 8.962022927386384
Hf 9.620930424110288 15.131823475483616 11.52074055527039
Hf 11.700242241360304 14.381139986589984 9.462678133376823
Hf 9.678788109073073 12.205328478336556 12.613931828201833
Hf 11.574690534331078 12.61507461825731 7.0696213444884854
Hf 10.838075534453838 9.795976104856406 10.729490806149744
Hf 8.968474465472873 10.004412180975267 14.571317025255285
Hf 10.042565346940641 12.12270837892678 9.473389833404195
Hf 10.657988752873266 10.039515015600989 7.765325549903641
