55
Energy = -483.35679371 eV
Hf 11.677994222298395 11.677994222298395 11.677994222298395
Hf 11.677994222298395 13.25401224629532 14.235532427140997
Hf 11.677994222298395 13.25401224629532 9.120456017455792
Hf 11.677994222298395 10.101976198301642 14.235532427140997
Hf 11.677994222298395 10.101976198301642 9.120456017455792
Hf 13.25401224629532 14.235532427140997 11.677994222298395
Hf 10.101976198301642 14.235532427140997 11.677994222298395
Hf 13.25401224629532 9.120456017455792 11.677994222298395
Hf 10.101976198301642 9.120456017455792 11.677994222298395
Hf 14.235532427140997 11.677994222298395 13.25401224629532
Hf 14.235532427140997 11.677994222298395 10.101976198301642
Hf 9.120456017455792 11.677994222298395 13.25401224629532
Hf 9.120456017455792 11.677994222298395 10.101976198301642
Hf 6.826758753451078 11.677994222298395 8.683121140684351
Hf 11.677994222298395 14.672867303912438 16.529229691145716
Hf 11.677994222298395 14.672867303912438 6.826758753451078
Hf 11.677994222298395 8.683121140684351 16.529229691145716
Hf 11.677994222298395 8.683121140684351 6.826758753451078
Hf 14.672867303912438 16.529229691145716 11.677994222298395
Hf 8.683121140684351 16.529229691145716 11.677994222298395
Hf 14.672867303912438 6.826758753451078 11.677994222298395
Hf 8.683121140684351 6.826758753451078 11.677994222298395
Hf 16.529229691145716 11.677994222298395 14.672867303912438
Hf 16.529229691145716 11.677994222298395 8.683121140684351
Hf 6.826758753451078 11.677994222298395 14.672867303912438
Hf 11.677994222298395 16.778800848292445 11.677994222298395
Hf 11.677994222298395 6.5771875963043405 11.677994222298395
Hf 6.5771875963043405 11.677994222298395 11.677994222298395
Hf 16.778800848292445 11.677994222298395 11.677994222298395
Hf 11.677994222298395 11.677994222298395 6.5771875963043405
Hf 11.677994222298395 11.677994222298395 16.778800848292445
Hf 13.25801901432252 7.561427146759147 14.230054343100646
Hf 10.09796943027427 7.561427146759147 14.230054343100646
Hf 13.25801901432252 7.561427146759147 9.125934101496144
Hf 10.09796943027427 7.561427146759147 9.125934101496144
Hf 15.794561297837646 9.125934101496144 10.09796943027427
Hf 15.794561297837646 9.125934101496144 13.25801901432252
Hf 7.561427146759147 9.125934101496144 10.09796943027427
Hf 7.561427146759147 9.125934101496144 13.25801901432252
Hf 13.25801901432252 15.794561297837646 9.125934101496144
Hf 13.25801901432252 15.794561297837646 14.230054343100646
Hf 10.09796943027427 15.794561297837646 9.125934101496144
Hf 10.09796943027427 15.794561297837646 14.230054343100646
Hf 9.125934101496144 13.25801901432252 7.561427146759147
Hf 14.230054343100646 13.25801901432252 7.561427146759147
Hf 9.125934101496144 10.09796943027427 7.561427146759147
Hf 14.230054343100646 10.09796943027427 7.561427146759147
Hf 7.561427146759147 14.230054343100646 13.25801901432252
Hf 7.561427146759147 14.230054343100646 10.09796943027427
Hf 9.125934101496144 10.09796943027427 15.794561297837646
Hf 14.230054343100646 10.09796943027427 15.794561297837646
Hf 14.230054343100646 13.25801901432252 15.794561297837646
Hf 9.125934101496144 13.25801901432252 15.794561297837646
Hf 15.794561297837646 14.230054343100646 10.09796943027427
Hf 15.794561297837646 14.230054343100646 13.25801901432252
