51
Energy = -444.86972333 eV
Hf 16.41724894758471 10.340909284422922 10.802438732794267
Hf 15.43020688135235 7.691035825631214 11.809279966637597
Hf 17.006189811508808 12.91419492411974 9.788226837237252
Hf 17.771415390831212 12.40904992060201 12.592275318280887
Hf 13.005581275506357 6.994593126145889 10.617504621631836
Hf 17.03949828936582 15.019081124527473 11.552270221344832
Hf 15.142107490752325 7.664106377887094 14.575828179544075
Hf 14.22552931662907 9.142979657337804 9.27795973277526
Hf 16.25330338986033 10.15051782483695 13.643044590791067
Hf 11.492752126933496 8.389533549421444 8.633342336830655
Hf 14.37531664948824 12.083816489709546 8.908234033242676
Hf 14.911518255914798 12.790607264703786 11.889122772653932
Hf 12.627712330051148 7.126602198365204 13.393216638508678
Hf 17.03219342866789 12.156674819533485 15.7001991994531
Hf 12.411492949940373 10.632839672705959 7.401317537131511
Hf 14.855739428776062 14.814680101253822 9.701378601508758
Hf 15.761889331717638 9.804344441056875 16.401959700216665
Hf 16.340409979731014 14.453311983513434 14.258371794996249
Hf 14.405906750960208 15.998120167065444 12.331224746692465
Hf 13.517737346537928 9.762775439547434 12.474870807492739
Hf 13.08516714459687 9.277412786148119 15.628389033619067
Hf 11.826190852063785 11.033437289405047 10.262069509822318
Hf 14.103170723294262 12.135533708994478 14.948135270740254
Hf 9.73036644132523 10.712464919399256 8.4428848686863
Hf 11.532337546650922 13.182139243819563 8.250881167708595
Hf 12.218935247510371 14.020148036969884 11.043448154014696
Hf 13.857046202772615 11.3569980211027 17.701389370784586
Hf 10.716013470847914 8.310661069563686 11.436663040897098
Hf 15.115408507963123 14.298466741447092 16.810818086818188
Hf 13.092053776234868 15.1581821979573 14.78084855248551
Hf 15.284278090022282 16.99895398426145 15.220536514885755
Hf 12.539097737370357 16.954250486797918 10.36178753494934
Hf 9.997929430728076 15.81555506956257 10.013532207563545
Hf 9.484932377819064 13.007109995760759 10.102361226836768
Hf 9.050735225576718 10.77587771430032 11.82146626778365
Hf 10.560164483250404 9.311310368100377 14.069630657386362
Hf 13.387994496563739 16.512128421383952 17.35441117901621
Hf 11.351521396109245 12.104283232022437 13.360806798760365
Hf 12.705937517677743 18.54477818246239 12.648779724968444
Hf 10.888894435057829 16.113516289485666 12.91978832336149
Hf 11.065522561146159 11.203692351476526 16.406757114197898
Hf 12.340626088836563 13.71368276212108 17.198002796424724
Hf 12.653301634873749 18.23566782743609 15.36577961043282
Hf 10.646171073978655 16.61124389196731 16.440146546232267
Hf 10.234211318119876 18.44701818073835 11.228657870900543
Hf 8.179068719296273 16.829130968794342 12.213055753989114
Hf 8.896617399902889 13.850130825324909 12.742842003729415
Hf 8.79046116841329 11.51432984868636 14.59060389445495
Hf 9.9334570122996 18.501123297891663 14.137316787158142
Hf 10.153483148657902 13.857787506283724 15.430334016428567
Hf 8.409297791087221 16.002366780322156 14.75926914952309
