50
Energy = -436.22075237 eV
Hf 8.86783548603714 17.437611561161685 13.245966593520954
Hf 7.317609251384602 14.965041248747012 13.603477139942886
Hf 11.553142939982235 18.748361397661693 12.767578916933969
Hf 9.23906673570604 15.479600723908945 15.718474871842197
Hf 11.268800967205914 17.462097203434492 15.165000197893587
Hf 10.18961846100738 17.661208194636284 10.56178189812275
Hf 8.617498163507078 15.234348237878994 10.961101102530398
Hf 7.822937729328361 12.782940368742015 15.3731041326402
Hf 7.694590131864861 12.24823053201872 12.41748752215556
Hf 11.122158513526605 15.910334933114864 12.623518852648214
Hf 13.70929414628426 16.85559337398151 13.694788895991277
Hf 9.87860845422316 13.515833008319495 13.751006994629213
Hf 11.368363387699091 15.150995638465808 9.568467667070411
Hf 12.40211634951066 14.857236333866677 15.466037062430702
Hf 13.131087076985033 17.08255971575422 10.829380980013909
Hf 10.743636547893463 12.625729085778316 16.314646310014474
Hf 10.350890509814157 12.884874074511139 11.065365801011017
Hf 14.724050744647712 14.411732964242713 9.363758023437098
Hf 9.696464359705116 10.545207089100392 14.50894896409081
Hf 15.204234386461653 14.04273606861709 14.35887835283546
Hf 13.316037985267396 14.355835517420275 11.996276691977565
Hf 16.04513345523392 15.16544227320135 11.779813568407521
Hf 10.054513797444027 12.818792300278359 8.248440234391895
Hf 12.34853227971722 12.015369519393142 13.891366851816976
Hf 8.193056927933299 10.910190413275766 9.865827711690182
Hf 10.347597526668968 10.116913787273498 11.795524362270722
Hf 7.621662513470565 9.369209516468489 12.349730162155407
Hf 12.524150859472543 8.621693539039565 13.433619772289427
Hf 14.0683136277215 12.333017716201507 16.374463983740288
Hf 12.623950208006908 11.853128802323443 6.939833068038341
Hf 12.701848531788563 12.304131501923129 9.61405392227498
Hf 15.317945723917596 12.337419794588175 11.64131544420446
Hf 12.585457711330466 9.978803437461076 16.077002818371874
Hf 17.545430315485138 12.667651340082253 10.20192475090341
Hf 17.758145421890227 13.348424844945061 13.045083517508445
Hf 13.457682498069367 10.062334792230882 11.222177131798471
Hf 14.85995422679432 10.48915121533984 14.135715335897059
Hf 10.821237734822915 10.078861581758233 8.702060969985501
Hf 9.761557335449774 7.602905820107859 12.937001617976101
Hf 9.013799567840563 8.175064823865187 10.184697604255172
Hf 15.367461067795011 11.887478453993358 8.272302185110194
Hf 17.15017222747663 11.757966192346462 15.337151240557183
Hf 15.49369987589482 9.89295467547841 16.912938740696948
Hf 13.706622066853262 9.592274499957224 8.386643418947967
Hf 14.570755310675858 7.757076350914763 15.262931700563593
Hf 11.782266068875828 7.7521114465701135 10.709329233118483
Hf 16.25282398706184 9.891515478728458 10.027945706916878
Hf 17.6595366379714 10.508251789383715 12.541521311963328
Hf 15.470797231110613 8.163163073657314 12.448486409361244
Hf 17.130940807070402 8.854863895635148 14.815066202486864
