52
Energy = -454.41585789 eV
Hf 17.11264971118011 14.04549314633928 11.739101097480164
Hf 18.680130776300366 11.62111871120415 11.945637997965354
Hf 16.855869612442348 14.465607872273432 8.87054088410959
Hf 14.151229246048494 16.99608791730797 13.121209634657495
Hf 17.524000951648897 11.640668135361722 9.287383666544192
Hf 14.879756706156078 13.929190775800024 13.815891008109862
Hf 17.375577163227554 12.620361618613654 14.337374119976785
Hf 14.832717803778204 16.084322505131308 15.801262876196159
Hf 14.691481118921137 15.249045130521631 10.611217382034054
Hf 12.803350767653022 17.944275828852675 15.525313802667725
Hf 16.085949664087444 12.577171550866245 6.978439195842919
Hf 17.231852437636892 9.245411589134093 10.919938101236571
Hf 14.272160193271683 14.72386992479198 7.719178642401936
Hf 11.16486457740622 17.76469045007206 13.219658160703917
Hf 15.73961986234549 11.379388730893304 12.254749098122247
Hf 17.664962247434314 9.795534582062505 13.77789843918915
Hf 12.22734901493884 15.250612103850582 14.507611129725925
Hf 15.038689669371584 10.67072392640063 15.042066195688701
Hf 14.595996653608077 12.439024569588835 9.514596102419521
Hf 12.174915924900963 16.383084545848 11.05261064849554
Hf 15.402594275421723 10.046779033009514 7.806862804878713
Hf 12.195801085626357 15.794995995297858 17.43030185397754
Hf 14.053528737794604 13.528267036083664 16.70386650607718
Hf 12.720312607619375 13.474774525072101 11.992018090499943
Hf 10.195323697012919 17.197073905188915 15.858249879256885
Hf 13.305004161244618 12.032774151040732 6.893136100434084
Hf 11.865075939505797 13.9947939708784 9.315291988004562
Hf 9.937984991309396 15.050434537611705 12.207640733683984
Hf 13.137211194323104 10.814162439646909 17.453644835854192
Hf 15.294072651702873 8.505939940402007 12.926280223750023
Hf 11.301886659975137 12.975080256723746 17.897655003633613
Hf 12.332235417959314 11.916819268893569 14.908269114341126
Hf 8.08110097706357 15.94621634596253 14.502105488593424
Hf 14.245491342170057 9.295645043301077 10.291130702734465
Hf 11.680342752214935 11.176936467182271 10.161581486104158
Hf 8.98016978570793 15.184632630971034 17.44787416534712
Hf 10.524913402491189 11.9077890556669 7.567659674640358
Hf 9.718682023410407 13.6393572530485 15.207993799859908
Hf 12.2922642731613 9.442357177332017 7.928351291214218
Hf 10.195223395517552 12.03045394315466 12.743004133377829
Hf 12.696412669379928 8.977814644090758 15.42048333099179
Hf 12.915719653691601 10.138913499932903 12.743549135365104
Hf 9.07977333865745 12.487342972340295 10.010056631427124
Hf 10.368892683199805 10.335728554475349 16.665859967911338
Hf 7.694769714579098 13.452480319248277 13.035386058692596
Hf 8.547018311575131 12.33465816660587 17.559135292042612
Hf 6.914507568370658 13.730977516147723 15.813723600055877
Hf 11.34363895576931 8.391689460161388 10.734653510966725
Hf 9.535724767769098 9.68772877163621 8.803567479768843
Hf 10.27896373015719 9.22012688565254 13.84427599057543
Hf 8.848460377969607 9.946423029264956 11.455449766810194
Hf 8.097116106981824 11.137681053886611 14.852108283434266
