54
Energy = -473.0602172 eV
Hf 14.438561274957078 8.675375246777886 10.042612352238846
Hf 13.112318352642347 7.27782506785465 12.209165624760821
Hf 11.531761872618048 7.782995942454375 9.883656584242285
Hf 15.810628039397365 8.183477822706799 12.797608266101838
Hf 12.39689529792985 9.692832077974552 8.056755720991674
Hf 14.022311404353232 7.211095276357071 14.900188573414018
Hf 14.591447217322061 11.431830154901846 8.989159324155754
Hf 16.869840229155336 10.560053226378953 10.725602889378122
Hf 11.230807404179343 7.211119650937205 14.540543886063986
Hf 17.716007657946136 10.720670294364243 13.858005500323477
Hf 18.681075086962334 12.49022775036175 11.843071303896387
Hf 12.107922889025726 10.499480259872527 10.807568791886757
Hf 10.152440315438943 9.00530273490546 12.3329180819662
Hf 15.360452186362146 9.679770598029625 15.580275921626068
Hf 12.571736852054311 9.630475638521103 14.04918028208353
Hf 11.402145944077224 12.469431796656593 8.685375245305314
Hf 9.790421842362658 9.941722178879594 9.235296951365504
Hf 12.442421001897833 8.978199939247943 16.75584765470884
Hf 16.6031101662265 13.427537245118142 10.008297626981738
Hf 13.768024174738777 14.419524304445087 8.86195327421369
Hf 18.534926096345895 13.725843014508815 14.503838948363367
Hf 14.914430672627446 10.742514330373975 12.687129297074234
Hf 13.825451400277382 13.033246439359717 11.392586364479877
Hf 16.171966353823098 13.477291059864394 13.195910633474668
Hf 16.68020539010956 12.090193905710418 16.141036029923484
Hf 11.0819412803039 15.427700140314084 8.350344489012489
Hf 18.102611852040265 15.185178723675918 11.904137554906779
Hf 13.829781751606992 12.355091463863744 14.916570040142195
Hf 9.883706871777335 9.595580683811798 15.240050086134314
Hf 11.13059926346029 11.901636617729475 13.33213532365266
Hf 15.226269281499258 15.754347298876663 11.245381883210014
Hf 8.8834026048103 14.062333367266515 9.415741623499306
Hf 15.545511340028838 14.577556056642798 16.102876691045456
Hf 11.234783788645545 14.265592118233425 11.032647739961067
Hf 14.068414538127845 11.660041090001558 17.566108981304488
Hf 9.285774649279674 11.899136905427495 11.251034223453965
Hf 12.688365470121957 16.93320438712099 10.317106137496522
Hf 13.75990060225945 15.132729214012542 13.749876115449805
Hf 11.241502286021825 11.790293737889028 16.42252750687234
Hf 16.324523810013783 16.351932651762866 13.954223700421554
Hf 10.760391179371775 14.398362017754502 14.648707322487297
Hf 12.706541944795768 14.489580119279443 16.79646219371684
Hf 9.743235742256172 16.741099651649265 10.665211791139047
Hf 8.594724884673328 14.642913936752906 12.435393989256005
Hf 8.64682696947068 12.612181459143155 14.788899841420513
Hf 11.53803104779762 16.646689643869244 13.068852266965045
Hf 13.972425453838705 18.24158558109774 12.873724743723331
Hf 11.240291316275332 19.066466065733835 11.820591696755343
Hf 13.647426740458618 17.262758860303066 15.656477857728447
Hf 9.66916166962678 14.209500545658543 17.192927976724167
Hf 8.158404908514393 15.492099463563093 15.209008163762459
Hf 10.611872303078998 16.88747051473965 16.20138662811067
Hf 9.11832162635837 17.83549200539758 13.678897748001392
Hf 11.655878372323809 19.08440342228951 14.575034758983525
