50
Energy = -435.99782097 eV
Hf 17.42816767058719 11.358247551372752 9.122876842308077
Hf 15.185653770248576 10.501470021054542 7.6083328354295245
Hf 15.955239480108398 9.16280171839132 10.036987024499107
Hf 15.662615192369971 13.413618503374757 7.830057705950529
Hf 16.815012641764177 11.32547822172003 12.059706265686575
Hf 17.51070186374949 13.87419898079536 10.464531692879206
Hf 13.643353967601312 7.728175405446535 14.311697306149771
Hf 16.646053616389807 14.011255104002364 13.403060345029534
Hf 16.693555824231527 16.39246996667108 11.788536503829755
Hf 14.751000385911578 11.81658062235377 10.097396284969241
Hf 15.950063321108743 15.967713562107118 9.084605969139796
Hf 14.503551616396672 10.316173264471292 15.193823320978302
Hf 14.36718549826362 9.614429225215941 12.258256115877137
Hf 12.892300084653339 12.22391126172977 7.702158083999665
Hf 12.86617761194031 9.666850995574118 9.623496151616715
Hf 10.795224932842054 7.371567312054036 14.144426943034706
Hf 12.56469592382368 7.242050047596043 11.59933264546703
Hf 12.06274682699262 8.95365136021272 16.28562678463964
Hf 13.171502933824062 14.994539541142839 8.724951473977688
Hf 14.695298030694618 14.47686303320641 11.252019384036526
Hf 14.03206921737725 12.46587797793459 13.263088929291326
Hf 14.472448932545943 13.771856094438917 15.947186422380131
Hf 13.995882210219118 17.136779154997207 10.768747177819199
Hf 11.980004884242122 10.30398087853685 13.740446481407913
Hf 14.441109301241378 16.103627229208495 13.667112430306291
Hf 9.782395353032026 6.494205875791645 11.50700205265159
Hf 10.459287203055416 9.379105025748487 11.523531798308793
Hf 10.700061282246756 7.674759895758913 9.172248967719629
Hf 12.01452282533944 14.43257182989556 14.50730907391956
Hf 10.510851874901451 13.556914613568253 8.558725205036954
Hf 13.194947853328916 16.469469569156473 16.226265534791732
Hf 12.267081294342375 11.813712884460715 16.24224617197582
Hf 11.848533384499005 15.396001672080633 11.55740414378682
Hf 11.636644632948087 12.301177621840926 10.915789145266505
Hf 10.23670076574985 10.52450860106116 8.786962041213464
Hf 11.79209650457069 17.3170942082065 13.893599674470392
Hf 12.045636039418682 14.316876401497641 17.488769287380812
Hf 9.471349698263126 10.111332803582934 15.059038960852977
Hf 8.193109397389039 8.111087547235867 13.114647385905304
Hf 8.109916669967864 8.571601586884563 10.217108376580422
Hf 9.712727189717382 12.875942834814778 13.40017349498884
Hf 10.20610743101539 16.0280361854811 16.113265272763996
Hf 7.946217062543379 10.776961483856528 12.345534202520582
Hf 9.170248335702388 14.848660211280961 10.662407453142722
Hf 9.570300197309672 12.969046450599532 16.52564311653483
Hf 8.459488128116723 12.302100782434124 10.072318943453114
Hf 9.363908982787981 16.00902730915733 13.179692845941723
Hf 7.293331209333454 12.003506691554053 14.839247419681522
Hf 7.130810311076362 13.722544792189643 12.44135653012054
Hf 7.82931253791062 14.689711561528496 15.085645984702934
