55
Energy = -481.92988773 eV
Hf 8.187901282168987 11.262184829151185 14.805513181919144
Hf 15.130727724110201 13.173856327666815 11.153042457070569
Hf 12.775136732971852 9.391723528548175 16.580913956218033
Hf 10.547878529954772 11.098761333994045 9.005637268047753
Hf 15.280073384828516 13.251285415157506 14.156753605066363
Hf 12.954474863639241 13.66868039201259 6.483994012780612
Hf 10.265149038533236 10.823206464882308 12.34341806010535
Hf 8.144435484329142 10.290137362365101 10.13691500022858
Hf 12.434986733510026 13.641190939009983 9.392488451636494
Hf 13.202519973863758 12.092971696488954 17.770830847729123
Hf 10.527542405447763 11.37667053868128 16.741771890973524
Hf 12.586886142068975 13.953805233352101 12.53227395443224
Hf 9.725634058633966 15.713469872938193 9.456212436853086
Hf 7.499755637068091 14.96378565734522 11.185704013469438
Hf 12.897108353321011 14.18607364113262 15.693998245183138
Hf 9.934972910012192 15.88291043181352 12.623030462137976
Hf 13.1657487561834 11.03884496998458 7.936010779117028
Hf 17.629942401522847 12.44263120996411 9.836404259227104
Hf 15.57064169524067 10.304438166922795 9.422094824033172
Hf 12.891592185651282 11.182260142511241 10.940883371442713
Hf 18.079231953912245 12.473443243678348 12.653633722377782
Hf 15.276402258067906 10.768621879295525 12.657731708498785
Hf 12.726087079345657 11.217497159184957 14.386807675394074
Hf 8.00298970230684 13.030611025642395 9.177419813691936
Hf 15.328036487154032 10.817404804611025 16.078589614638844
Hf 12.1644166600242 16.019656522400258 7.875486715622593
Hf 8.538364388227452 13.48601023119092 16.629421525730923
Hf 14.818586736864704 15.577529686820926 9.526001365493888
Hf 12.382625328175719 16.451923596718874 10.84846280507841
Hf 11.050693783836634 14.207437872731408 17.89743188224723
Hf 14.895431244049016 15.923687559817997 12.584176239496907
Hf 12.404335633920404 16.75498763190083 14.046513315655963
Hf 13.857896944488882 15.014781714158126 18.26320788857521
Hf 10.250028915242837 8.49475876746662 10.648704641531367
Hf 17.740468157600557 9.91392036997751 11.256953627272491
Hf 17.786436336777932 12.251003979071756 15.432589279708319
Hf 10.353870450435437 9.195206123474387 14.795913954808126
Hf 17.365994097519888 9.676067988207615 14.083516596967089
Hf 16.00068340753566 13.814374243071711 16.913814303774455
Hf 10.27369044898727 13.83670372965167 7.400347405802816
Hf 17.384395848158718 14.989029735408984 11.283868715169
Hf 7.7462587694525125 14.291074653653233 13.9790876053842
Hf 9.83493972434392 13.337697472863274 11.249997490483283
Hf 8.057500554065186 9.153857112553577 12.692539540949795
Hf 9.852027162331641 15.893361679478108 15.658177790810917
Hf 10.36519161967938 13.263053581521488 14.341491506528193
Hf 7.134002493745214 12.071593549298347 12.048774571022522
Hf 12.258466553527802 16.769523350617128 16.928829796844976
Hf 15.411247281232063 8.169389858908765 11.67213407695989
Hf 13.089656125898323 8.61536565804827 9.78345694659378
Hf 14.880634099085425 16.292377447282558 15.726614088962599
Hf 14.708629371377855 8.445592624920009 14.568353760842667
Hf 12.51407573704703 8.696039432666502 12.726393170546078
Hf 17.47117124074272 14.911401824724006 14.361751384677293
Hf 15.217095111778823 13.010795735060784 8.198584394187163
