51
Energy = -445.48561853 eV
Hf 16.648219098164912 9.350630034285144 14.684757310062373
Hf 14.550045439654111 8.643091169239941 16.653441621964667
Hf 14.769633994022277 7.2458176084987285 14.094352214923976
Hf 17.767229259276185 10.7938310448979 11.55465192632787
Hf 15.140128301435276 11.573407172111823 16.503787364101527
Hf 16.22676600266873 12.045630847429791 13.866070415124703
Hf 15.452564532319967 8.986961308510566 11.781028940018983
Hf 17.672068140478412 13.633515079473257 11.999529368474875
Hf 13.914731128283636 9.942844896153993 14.211629005661768
Hf 12.229901066555588 7.799939369472707 15.30267634676847
Hf 13.167569538789982 14.137047527027747 17.15451722121858
Hf 15.571463562678025 14.31636990457171 15.608199678214365
Hf 12.281161455432688 10.63901059733337 16.510704189053303
Hf 16.20247854940004 10.198566053336473 9.115274335574535
Hf 17.484994614314648 12.65942605201071 9.317870320934752
Hf 15.215541312163879 12.08488034695008 11.041929122972242
Hf 12.536101785899731 8.120141994633919 12.26385464998966
Hf 13.171789802296177 13.036636585475605 14.557235865844186
Hf 14.995881985710277 14.689133761512524 12.80790371918317
Hf 13.337136981902063 9.822857486914197 9.660703539654405
Hf 15.927265533900123 15.012362879317223 10.082412446330704
Hf 10.509518427412631 9.598623549136493 13.898296889723666
Hf 10.552640517542322 12.833429805241073 17.557436941584612
Hf 12.405626307237188 11.240155120239757 12.164378544341623
Hf 9.495309883268897 10.355617553085786 16.736923257285962
Hf 14.676814617058719 12.9359686165779 8.264487055238293
Hf 12.996712761553622 14.180887689025335 10.263169930895822
Hf 10.302398228706577 9.77100295652898 10.91966329778261
Hf 9.994740003357533 12.361692939729979 14.667158363870348
Hf 13.36496928426995 16.024622941809636 14.78964246686511
Hf 12.772613023344627 11.195655620406217 6.834869833320007
Hf 13.853924933337614 16.098331243981495 8.451041658626608
Hf 7.645039373829675 10.389139475995366 14.76104814297383
Hf 7.493417798019938 10.760202585056836 11.861287309362801
Hf 11.519264045341204 11.979935197149855 9.277212450993122
Hf 11.503167535004179 14.84586683308656 12.636328003987213
Hf 7.876317466307712 12.819874788507157 16.408960157319722
Hf 10.849369177310194 15.154544622968507 15.616800486945683
Hf 12.127772822758562 14.128226569511217 7.207171697199227
Hf 13.606343347388943 16.770084682314135 11.394660697004953
Hf 10.686899821668502 9.619647909621722 7.996152493716561
Hf 9.703931327186083 12.695968054511235 11.71290785764735
Hf 6.87536149693457 12.770557701365354 13.685882524264493
Hf 10.056795036850794 12.182817422424733 6.816253923963941
Hf 10.700921549660771 17.277053651459674 13.077625564444267
Hf 11.27472266073378 16.578916627302988 9.91463601218985
Hf 8.525267757076548 11.495662774254933 9.20145337638283
Hf 8.600509331943204 15.00045704340192 13.690329920449223
Hf 9.472882759304955 14.262031688717597 8.894259517382766
Hf 8.874990052597798 15.971297785675691 11.182186867897292
Hf 7.201526101244337 13.606920033298103 10.91574368234266
