53
Energy = -462.93556795 eV
Hf 16.35123174507592 9.894577598982556 10.658679032597757
Hf 15.02869587319478 11.712742598559835 8.804103524869543
Hf 12.838051550939612 12.658510549510291 6.6897960845225635
Hf 17.106160793614308 10.19888416334649 13.344741595703564
Hf 17.343756937522055 12.573029603723088 11.802420189673429
Hf 11.583452739840466 10.765848834971244 8.51137132281952
Hf 14.888372242646009 14.419808967336252 7.560544762481215
Hf 14.664145931529887 8.586415931992908 12.68912488403368
Hf 13.58199925714161 9.327062515072972 10.067273173290815
Hf 17.652526879982897 15.337034640636789 13.508711916491439
Hf 13.316365915863765 7.622296728382924 15.24059206956835
Hf 15.79107663168127 8.839624897141993 15.415817384262981
Hf 15.58907253780127 14.400663232183577 10.418644317527358
Hf 10.532238296577697 8.497842046059695 10.04670814275799
Hf 14.384057413446136 11.771546070880767 11.753145400898012
Hf 11.421917257831394 8.310094652372214 13.032244188073943
Hf 17.98488025075418 12.63246204885954 14.586731605911185
Hf 16.736798753694398 11.185886891265273 16.988333944127845
Hf 10.197990284860055 13.394607303569092 8.099241999131475
Hf 12.193618125338801 15.325687481651304 7.187190767270361
Hf 12.891974748247357 13.386354143652301 9.422583500428262
Hf 15.085365514180843 11.818124425585953 14.985704568243985
Hf 15.226325637102915 14.327098879181115 13.435291799421577
Hf 11.365624121820803 10.70716756683144 11.489321154406749
Hf 15.034823200670717 16.92655709530741 12.075136644732744
Hf 13.884319589956316 16.604046676830837 9.196014149998128
Hf 16.479430070034272 14.249241223193497 16.283367151961425
Hf 8.949812206934254 10.850199687704245 9.563386367845636
Hf 12.846537788293771 10.33290661517949 14.379025129856531
Hf 15.387440872256287 16.808117139180645 15.338004485229707
Hf 8.687655520220455 9.450286329339841 12.151389985030702
Hf 10.735400797154734 16.012386167587803 9.533995776285263
Hf 12.829561769652368 15.158061752200712 11.707340881200063
Hf 12.270956037171901 17.907036201649916 11.193691334698137
Hf 10.360203792256124 13.3196282869529 11.165165851446705
Hf 13.846751250519768 9.79319256148824 17.207553991197138
Hf 11.021213161308294 9.073298603071422 16.061714543982447
Hf 13.476523000954272 14.655377181732812 15.71053565104901
Hf 8.206212204604633 14.676246565686414 10.528351628554926
Hf 11.58092051387362 13.47252778112386 13.921594837916636
Hf 14.300945953560204 12.764321317414446 17.832148995574165
Hf 14.586694861944936 15.6877221187677 18.094467948591983
Hf 7.5517317784724165 12.053140825302277 11.741128832115312
Hf 10.080031615202978 16.333182684118135 12.332083107626744
Hf 12.759373822089223 17.144855065427688 13.938507145838967
Hf 10.473381071782445 15.933566295363953 15.395833376175577
Hf 10.016687723761205 11.206559089159645 14.117740949005583
Hf 12.715880494624582 17.240363541978788 16.776357312597327
Hf 11.81626782083559 11.855423923909928 16.678327910570772
Hf 8.559572537534581 14.022926126729068 13.578633684252244
Hf 11.719902019110913 14.711463217371396 17.89921703440338
Hf 9.466887607759098 13.352794915273646 16.158966517892516
Hf 7.369380753868375 11.476143254654012 14.49563179471418
