51
Energy = -441.61955344 eV
Hf 12.665111237922945 11.858681217387495 20.558877922108795
Hf 11.349283206232878 14.06957157327552 19.22037254598435
Hf 10.136542215552653 16.327252434774056 17.159104230621924
Hf 14.260213722400687 13.920132581606008 19.400123460717047
Hf 8.74991179264507 18.27865378779743 15.804063982639235
Hf 13.09046714081549 16.183564980434518 17.80131293429678
Hf 11.91038095093548 18.35610477728764 16.014508660776563
Hf 16.21478575333928 16.0634954397965 17.70904544773057
Hf 11.212328567396225 11.37646626636157 18.24719732658435
Hf 14.189975136596258 10.900429863595825 18.140622574354875
Hf 14.853991191257844 18.062591400807072 16.369179931323778
Hf 10.1092035202164 13.480050440875988 16.55437707387269
Hf 8.805793771757747 15.579063425680312 14.641767103902918
Hf 13.007172573511369 13.307661818448906 16.81362213086049
Hf 16.176529057723684 13.05670802790617 17.327675891511984
Hf 10.367903983862947 17.790237786409712 13.652229023455392
Hf 11.851274203921088 15.620680880859265 14.852996641185962
Hf 18.112609917590486 14.621492195553571 16.032374066157494
Hf 16.792202216966032 10.169065311818018 17.018849848882706
Hf 14.741004702661465 15.296470039477795 15.402252090898706
Hf 12.08880318660376 10.778106964862129 15.48073829476008
Hf 13.860030438752466 17.618326401660333 13.62304026070968
Hf 14.51290500315862 8.81058602701381 16.09470891048077
Hf 10.151783980296335 12.793701645478306 13.63693981837145
Hf 17.078158403006462 16.91192161070569 14.844013338031834
Hf 12.936964577565508 13.09343597845312 13.747308229695903
Hf 14.659010361060181 18.12200404276727 10.860521668775554
Hf 18.82392965093929 14.428239790360792 13.190220590698118
Hf 13.779253895930516 15.380917251967045 11.740259394027122
Hf 18.188512566654 11.924352411586618 15.137216573072063
Hf 11.929419026983972 17.772580495755246 11.072262345328372
Hf 10.57501851180305 15.3380880167027 12.070713677893343
Hf 16.77214653707144 9.289760777019112 14.219641146804278
Hf 16.281860764769092 13.801328124746952 13.56424035235868
Hf 15.072465670949528 11.464847339488946 15.084900960260683
Hf 11.573504892369108 10.532038815968003 12.583852974426117
Hf 13.847866707092939 9.06941313370681 13.32198482323355
Hf 16.56759226614997 16.384642195628476 12.012957024356801
Hf 14.771829495979892 11.726014461129964 12.021388155152001
Hf 15.706128032935998 16.13179750350821 9.019281851107115
Hf 11.973999048233113 15.438529218494574 9.373725389262612
Hf 13.315565331203318 17.642797119221452 8.391587376790968
Hf 13.435484978465285 10.119191678369445 10.311206532608663
Hf 17.803363320903223 11.453694395433102 12.24660463130319
Hf 11.651501824669847 12.74984403759884 11.010275771837113
Hf 15.980991208329227 9.141434382838366 11.453918337726963
Hf 17.00005338655473 13.860184390912352 10.608745493994338
Hf 16.27004818170648 13.720550336196476 7.699873368412018
Hf 16.211330249708507 11.221768695640701 9.61589653022456
Hf 14.17499197625407 13.292716238209751 9.489430391117462
Hf 13.807667237748246 15.057321972781178 7.132756453564592
