53
Energy = -462.80204269 eV
Hf 12.695092819037173 14.479857197359923 17.203416196319637
Hf 11.457847087564232 11.804195123356466 16.77868575284453
Hf 14.287958295981852 12.022007043297242 16.114806322720668
Hf 10.293788615187962 9.279209359607153 16.514774518726682
Hf 15.5076280248401 14.539658670689974 16.9566184822185
Hf 9.828797647577602 14.35150497814395 15.894739134259263
Hf 13.281206412988869 9.290951063292587 16.917999611860576
Hf 11.31715404084289 16.748216673806922 16.362400703173428
Hf 9.476077535916817 11.446082379756499 14.548841643686282
Hf 16.337577466705266 9.902474835621366 15.753228300543222
Hf 12.195019722453718 13.082429662998376 14.420912919525552
Hf 14.281362417989499 17.23140853753849 16.653404174480105
Hf 16.27517116477452 13.394291255654217 14.302414362243649
Hf 16.748454264454086 16.27769908470707 15.267938040539448
Hf 9.650395024883066 8.378938364532319 13.933582422269497
Hf 12.09570920129019 10.025668967652788 14.255265632954556
Hf 8.949068448783846 16.36655221307641 11.245285262089542
Hf 8.179518854527332 11.333700590034805 11.90120532475193
Hf 15.209128192042604 10.775690964944967 13.20952849122726
Hf 9.26843667870011 17.173154668140477 14.267001067756281
Hf 14.082579997541101 15.543343216280116 14.466837925043016
Hf 8.508659082833299 14.122327132484157 13.259675678957306
Hf 11.245226192193693 15.651402846426267 13.522552230881187
Hf 11.848201058702786 7.2757396910121805 15.468110598824968
Hf 14.47123320190052 7.934792875355459 14.550212024834677
Hf 12.382630116370457 18.324522774316556 14.392131109084717
Hf 15.229792324575692 18.142943618310024 13.89000411930778
Hf 8.163795372698363 13.729173317108103 10.525146042000554
Hf 11.725085705861664 15.071509962834257 10.801594490069988
Hf 10.77676845532406 12.430527129136076 11.926054636024173
Hf 10.900583353739679 18.21862449774079 11.983333822876824
Hf 18.06242610991044 11.039047207631805 13.49282341602854
Hf 12.107703790956771 7.408868179249819 12.602010105391898
Hf 17.06512521345397 8.447619705195 13.466544109994535
Hf 14.090298179982426 13.521330247172052 12.06377468712072
Hf 16.994009183968565 9.837137740834098 10.950544791322717
Hf 16.881533784665365 12.727412706404227 11.52928947598328
Hf 13.195781146158204 10.205390052988461 11.149495146620472
Hf 11.11054796364981 17.306334900065387 9.350483194785395
Hf 10.41730114886613 9.52289614798921 11.40774138219712
Hf 9.830023188841015 14.785998765485308 8.476219754754277
Hf 14.937913972093584 7.6447037251332475 11.608262135201457
Hf 16.181758069047305 15.834864230946971 12.367249508508026
Hf 13.665839751230708 17.265153351160443 11.618138257299206
Hf 9.766243120132314 11.753590590917801 9.22416548914231
Hf 12.600607921422247 12.941681236041473 9.269545311777105
Hf 15.183896270843448 11.753308505543469 9.445635519943922
Hf 12.491880023192573 7.780461062636731 9.800716782953636
Hf 12.51618234364923 15.312556333334868 7.725580068752447
Hf 14.899311162167962 8.913919665001195 9.061656170847627
Hf 14.632561292833797 15.040456961870648 9.782503648932389
Hf 12.454026493822356 10.305392539988146 8.37728120821684
Hf 11.266775072142053 12.853157216826519 6.811162036923493
