55
Energy = -480.77968478 eV
Hf 12.311338239767556 17.06735468225102 16.253706544300556
Hf 14.294324522783372 18.276238285041448 14.56496143227873
Hf 15.0833847825828 16.65081880643086 17.128851823528127
Hf 15.158360202978963 13.997853859356649 18.43870604554412
Hf 12.430535917359691 14.952797958855456 17.973023576271082
Hf 17.055988293029078 17.041589913114603 14.693696338765935
Hf 17.215970421594076 14.601098153941283 16.493253844290734
Hf 9.78459857848812 15.905356800334966 16.906347116372316
Hf 11.4501598199698 18.392539060448485 13.962100695994216
Hf 13.167127657722942 18.44376183708741 11.609646407583108
Hf 12.925116598590341 15.980774805509691 13.128340836951619
Hf 15.839328318578918 17.88484687428167 12.288950343612383
Hf 13.02158025845044 12.234329936669148 17.273120445977533
Hf 18.903798291479724 14.918558800200662 14.215040130765606
Hf 14.352611200988349 14.317169210425769 15.70000630573725
Hf 9.765726605137587 15.881093287119599 13.806272044615744
Hf 8.177605021248585 14.157540125556054 15.652524578010045
Hf 15.830477332731823 11.840540891042648 16.71258017756224
Hf 9.880029695254493 12.93617960982123 17.72368364076804
Hf 17.953593650803043 16.106084058464496 11.741164963632023
Hf 16.086505221572793 14.597323808703031 13.180842519610922
Hf 10.50822337258272 17.517603838739184 11.5714394852036
Hf 17.623171852790225 12.311659884364234 14.559974145024547
Hf 14.75517003273774 15.884267701026584 10.644264942633695
Hf 11.14746998275351 13.789098819329713 15.421295790360361
Hf 11.113576753185367 14.085473310873866 11.512529245280197
Hf 11.944485242110606 16.198238028205374 9.59322613364231
Hf 9.072837864320388 15.38663715025037 10.437239401678431
Hf 11.080892206256197 10.520608605514601 16.281969573857495
Hf 8.82344416154756 11.49917356027792 15.224693636111681
Hf 8.453861454685935 13.229653182396724 12.891980046584179
Hf 14.047052468572604 11.732764283460035 14.396119326445724
Hf 13.947502174280364 13.180372728940213 11.763925972279225
Hf 11.164335977482766 11.713299613664798 13.361624367372745
Hf 18.588964992323067 13.299547765898557 12.042709281394028
Hf 16.4487443787038 13.712642129988508 10.181540298785206
Hf 16.45710076699614 11.421922027678962 11.845630147755159
Hf 10.421779570643558 8.959602589311048 13.979086277886939
Hf 15.911952033638618 9.64605541127065 13.933992014440404
Hf 13.372609716189045 8.916506410409403 15.194275772409773
Hf 8.735450774454415 12.560604789856486 10.144734954646008
Hf 13.544040106301102 13.739013381363945 8.830333356679754
Hf 10.658195947358076 13.484146569763134 8.433719390499233
Hf 11.918530577488463 11.47435957438512 10.31883789909005
Hf 9.023800037445085 10.382049707552888 11.783464262313448
Hf 13.313724835750119 9.496253929523178 12.28148804971447
Hf 14.85720719662911 11.165391917451768 9.207382786594456
Hf 14.885860774411867 7.183341579381886 13.222597269647958
Hf 12.137437019637625 6.896317415901753 13.355734134597308
Hf 15.64535901668192 8.693824921160711 10.775039897773128
Hf 12.511599853619987 11.402014211554494 7.524245103529126
Hf 10.008160179717775 10.273168430255406 8.821785376624675
Hf 10.81546689349328 8.223161364431885 11.06043351959331
Hf 12.958154651209524 8.9581643907473 9.05897037998614
Hf 13.39085303805742 6.854386545581653 10.872074482559992
