53
Energy = -460.98015872 eV
Hf 17.072984092488696 9.354814071446556 14.156398941028403
Hf 14.858198904244913 9.423229428635807 16.222073544343967
Hf 14.882462558263638 7.722089323407975 13.921196322455842
Hf 16.563321135791128 11.907708455303819 15.446292638591364
Hf 14.448752600164756 12.37654182746777 17.4812079730532
Hf 16.733159371277516 14.264887974912607 17.26598489731026
Hf 16.155814801176497 8.511451142063885 11.421888661391097
Hf 17.47285699790576 11.90494353693457 12.656241482600596
Hf 17.701731007918212 14.413767299297493 14.429053033576444
Hf 14.79037729455927 10.479379629804995 12.67314087799623
Hf 16.365314565801835 16.673791704608966 15.916658195910895
Hf 12.182341299805552 8.727812581705331 14.731003856894763
Hf 11.96398637270667 10.378361678799564 17.197783546186123
Hf 15.163838453850309 13.809449684441185 12.516897136735444
Hf 11.906053622232962 13.428933682020537 16.637354870578534
Hf 16.552343690874714 16.539765100562043 13.043507826221393
Hf 14.104820711930394 15.624375299845195 17.735584738376463
Hf 13.276013049908471 7.630882325711557 11.716345104654533
Hf 13.46370196625033 11.522156416329784 14.905000218073482
Hf 13.682018319233665 9.613411441669147 9.737695591649842
Hf 15.781287614587603 11.863941604238349 10.235888656342915
Hf 14.716368345982202 14.367152048709954 15.264263435474394
Hf 17.155334217038366 14.520449677996037 10.710748915188393
Hf 9.474447559674822 9.24911373722804 16.02492130600549
Hf 9.405067059292632 12.003608237692468 17.03993382711482
Hf 16.918203550230942 12.795466803282672 8.029438702151861
Hf 10.565698877714851 11.33609652969021 14.532248101561306
Hf 10.775922875629645 8.625696826432025 10.138574943542451
Hf 13.886968202815325 18.15518413669597 16.294385036105105
Hf 11.936612750711078 10.194921139813793 12.074160347419198
Hf 13.600885166776479 16.78246298763095 13.696181997897543
Hf 7.7308526117290715 11.20834601239486 14.913901770034919
Hf 14.656330003072068 16.37184242250642 10.977008678633931
Hf 14.796272556076516 14.51867720544585 8.831524566568019
Hf 11.675642599659874 16.32345352590978 15.999968864042373
Hf 13.105094027123497 12.56059412064403 10.626030099534596
Hf 12.115691700340024 13.947328667799844 13.70348591310231
Hf 10.303050452915079 12.649897228371838 11.826359188483915
Hf 9.186279896437284 13.937071595932526 14.551587437235492
Hf 13.910433985727165 12.068370606628694 7.8505488212366545
Hf 7.623667423190706 12.239205096619397 12.219781924611576
Hf 11.765205309784209 18.76140094851863 14.556628061552141
Hf 11.074954184741799 11.237827584537191 8.810358442469463
Hf 9.163722548688085 9.47281878663108 12.837860690947398
Hf 12.092761159174568 18.043098610471873 11.357462853853631
Hf 12.665171981546205 16.81071006528841 8.844417279082307
Hf 11.691704827278112 14.163704083291014 8.276296903638505
Hf 10.474151211240837 16.542958740094956 13.257299105934244
Hf 8.413646977883525 14.993739758802729 11.855449733730334
Hf 8.954343882015603 13.447179202077889 9.486365655581054
Hf 8.706621552960057 10.572780816134344 10.18517027630945
Hf 11.93075294437888 15.158390138477943 11.09764644392912
Hf 9.922286597874132 16.407485574694444 9.710572277196182
