5
Energy = -35.80939845 eV
Hf 8.38547874374734 9.96180820917132 7.864123270131012
Hf 10.339901711320492 8.831780925351227 9.365233325833355
Hf 8.211246928722806 10.157432441150021 10.612216420035606
Hf 9.435907500020006 7.538463725772507 7.068376970884229
Hf 7.856096338371117 7.739145920736567 9.318681235297687
