52
Energy = -454.25802867 eV
Hf 15.920431984589074 16.85575691024172 10.124730276917797
Hf 13.570718409576186 18.650660062621842 10.875844200945918
Hf 13.893045784181556 17.429605971794036 8.193998435261483
Hf 17.055560508702975 14.13726560194869 9.642199260699995
Hf 15.142503100284912 14.772068800054859 12.231571065535867
Hf 12.56904342883884 17.172592344981087 13.562244228625584
Hf 14.782942076715154 14.641186343520253 8.157277909501515
Hf 15.67709497009765 17.322295103420025 13.108150886888447
Hf 11.302397184422944 17.8301614042095 8.882365661243078
Hf 10.803056919330201 18.076895114342538 11.518099316421214
Hf 16.99230977186048 14.605220215561898 14.376828903937891
Hf 12.264579256230197 14.076910492240863 13.13725501419702
Hf 9.927381480800035 13.157564023407454 7.8032666617768935
Hf 9.795417410103974 15.449210774092052 10.01097503177469
Hf 10.980586521768206 15.122491967395177 15.486913356691641
Hf 15.182648049476672 10.23376225623781 12.026602169289296
Hf 12.840958493116378 12.24840907854744 7.65423412836766
Hf 15.819046103461453 11.615787817079122 8.657317169578816
Hf 14.992184338931635 12.408846573328159 14.111970946851276
Hf 9.908480752941639 15.93284701248246 12.939521773180791
Hf 8.628486708180198 12.268051947938751 10.176733776710412
Hf 9.099437456039166 9.495761547583434 16.36377935259418
Hf 11.936107893365651 15.167418234516708 7.886171849025663
Hf 10.68123177081525 13.815789225970432 18.15167418124457
Hf 10.926069217663589 10.957414784608032 18.01628581130574
Hf 10.628980426048757 10.642411759283762 8.848473570823849
Hf 13.094132297703402 15.183573941329625 17.693090739151927
Hf 9.05686296987282 12.463424887257833 16.12886864569988
Hf 14.218285936604504 15.117401335407417 15.066794688808026
Hf 8.242528866602363 10.505143439603325 13.889425839002644
Hf 12.742654997646785 15.986413938650582 10.611292800735324
Hf 13.147003530914517 12.722270896360428 19.01145876839026
Hf 10.04126769138681 10.07975439151 11.691057043912513
Hf 12.57989707655085 12.796155929058932 16.13739051454651
Hf 11.43835888509823 13.094430218101447 10.205648644043713
Hf 9.595199227415218 12.930294219533412 12.963894861683322
Hf 10.92277925674533 10.897808869857249 14.65125508978782
Hf 12.568641162126267 11.271793435963865 12.275519383510087
Hf 15.326367350321977 13.007422636748835 17.02399339830664
Hf 10.357935820606516 8.140700293501737 14.060581147830302
Hf 14.40086987404711 12.789769696825143 10.524595179693087
Hf 13.575249078662962 9.658062021578534 14.67453211424751
Hf 12.776366658516716 8.32637253602047 12.133114357137947
Hf 17.825143182661183 15.626997182224008 11.894474033006297
Hf 13.390674126517467 10.191302550391269 9.648077529838762
Hf 14.06680270037196 10.371888065758771 17.59132903082427
Hf 16.26774107479954 10.12447146049866 15.536405006164332
Hf 11.76820384593756 8.35522944039983 16.76031933251417
Hf 15.388844574826052 7.729951607470104 13.671045673962135
Hf 17.26189905290382 12.68537159712825 12.114943984427047
Hf 12.902526035734747 6.772546169638308 14.610373882560875
Hf 14.763987401431628 7.80376870177394 16.470751116442404
