5
Energy = -35.87064582 eV
Hf 11.639544182150978 9.704367093483231 11.976071831389506
Hf 12.859557772798599 12.0942596386287 11.594562374129657
Hf 11.096616164536567 11.797325715114885 13.709109770148233
Hf 12.058004442399577 10.613589726354821 9.399744540277466
Hf 10.211624099182053 11.821628973190144 11.081774662949005
