51
Energy = -445.44139028 eV
Hf 15.302662073829476 8.038307835929892 11.624475286959461
Hf 16.406923308954276 10.325745674615389 10.560702285350866
Hf 15.069751072314775 7.383811064405376 14.47124534775513
Hf 16.80740813097414 9.70466510891348 13.473527230916751
Hf 13.474978563661534 9.69681725970734 9.781269156047225
Hf 11.126664496264686 7.928738234177355 9.933168545316686
Hf 12.599994278539375 7.86577752451326 12.570836060924508
Hf 13.220049780698766 11.856306881085162 7.672132936715965
Hf 16.472797225714036 12.835384064451166 12.270903939448315
Hf 12.237830369035297 7.160087220365492 15.4483860653714
Hf 16.25826556637985 9.462533561109193 16.32335841750271
Hf 14.224743433664976 10.69575760312297 12.396618927946925
Hf 14.165346106748402 8.016287140850215 17.28657791432253
Hf 14.585034792212861 12.540445954854345 10.177387659479384
Hf 10.703449933132598 10.463638710851333 8.359709629417573
Hf 13.563146961768059 9.75846173629603 15.045179786477979
Hf 15.66966828146431 12.055948561660035 15.259446336304768
Hf 11.11482628477667 10.273966755923722 11.808778389079798
Hf 9.594448199333472 7.803900784819321 12.273501494567997
Hf 8.745585434266985 9.489989173643938 10.197969818229964
Hf 10.747770204269985 13.42569705910918 7.555581688646668
Hf 16.285569589735815 14.64677356423237 9.652006681794461
Hf 13.326980587662527 14.798569388390003 8.534715951157057
Hf 11.864637642888715 12.50605109434653 10.067844971452708
Hf 11.635651168204944 9.463200104307608 17.18466683682078
Hf 10.595302556096849 9.299356228588897 14.499266978107958
Hf 8.878403048271057 12.309092693129166 10.516117057082829
Hf 14.134257338071446 10.94270642576628 17.603292123988393
Hf 16.397659652292784 14.693127541917649 14.536340912805828
Hf 15.130316971165856 17.13428068761461 9.550292750832257
Hf 13.827646649592845 15.3875652370255 11.417244886593828
Hf 10.688393096560725 16.20460122398893 8.199643332006533
Hf 10.687672377690342 14.964576236100527 10.998512496802428
Hf 8.482998522205945 14.81887863184762 8.949662338195385
Hf 14.196308055089576 14.399775133093787 16.327615763098425
Hf 8.220284193617877 10.436062125689165 12.872720286871935
Hf 13.762372829434172 13.488399147564758 13.602184728412423
Hf 16.481609887301417 16.303336200341633 12.110545010059477
Hf 12.066006800981942 12.305464438911384 15.820430162841705
Hf 12.258695732171876 17.533587830869912 10.091544965897622
Hf 10.39468089779311 12.957235000880358 13.315715961437744
Hf 9.073179785732414 11.369580093984089 15.487569586819856
Hf 7.6421795802928845 14.871550020949265 11.491333919543468
Hf 14.364534185720599 16.65578868085944 14.344033273892201
Hf 11.723195859454314 17.198204930182833 12.813545032130822
Hf 9.179636702466059 17.209342408631848 10.569573458729396
Hf 14.406063335613778 18.27066791674946 12.00548089088188
Hf 11.764507577814364 15.246396186815915 14.834677569858954
Hf 7.619050987360728 13.287500798035614 13.88965318283199
Hf 9.484383514049533 14.029520282211486 15.949008730375512
Hf 9.075135711550379 15.888900259024778 13.677853961168868
