51
Energy = -442.27786323 eV
Hf 9.65261608382074 16.12889468312778 15.346512658300114
Hf 12.650042941724093 15.332456171327228 16.559797913609646
Hf 11.951545455595916 17.56586547248567 14.968059969465065
Hf 10.245043972188663 13.516614300947484 16.97643905981072
Hf 8.454180685704053 13.715349741036293 14.756440501902665
Hf 15.677767865518407 14.616162627787594 16.860230367140918
Hf 14.689741653239736 17.002277639325936 15.24908373298461
Hf 13.14074610186804 12.624004222184535 17.527212382257012
Hf 13.431419280712493 18.795001786934098 12.932602435265466
Hf 10.930324682368866 17.15373086598481 12.356853322833855
Hf 11.328352662961404 14.441439925324303 13.976088604026554
Hf 10.915684208677844 10.779169012542274 17.62962107589224
Hf 8.913965881293358 11.09654509602148 15.695210227382459
Hf 9.03152047859344 14.955559924437393 12.14578411881443
Hf 15.79405801945013 17.705106359879263 11.880052269146448
Hf 14.41252454685007 13.41694489092655 14.803555323448313
Hf 16.615488200505464 15.328443161939914 13.89332939540815
Hf 13.638057905820478 15.863842730945114 12.760420450648455
Hf 15.87268457017859 11.374442140598317 16.68882860868119
Hf 10.941302106973346 8.79970760151496 15.405512484759122
Hf 11.7035903584624 11.663395654140105 14.997385207215906
Hf 14.969267497126909 19.86409799238823 10.380940318471847
Hf 9.2230368970274 12.015359606556924 12.612508545904795
Hf 13.427584779353833 9.706986672200141 16.728357339440368
Hf 13.079019765335854 17.89358171325345 10.299849168294044
Hf 15.613279990303681 17.452574029981168 9.052869954998442
Hf 8.997589778438691 9.262888668670143 13.5034679887136
Hf 9.347745575029315 9.45893386262588 10.86325239527059
Hf 15.91215484090187 8.631563682456314 15.854928998751072
Hf 17.437753352882414 13.081834928479728 15.217632081796937
Hf 11.853639936257476 10.240428840654047 12.290373229130896
Hf 8.883706067672442 13.295047099951168 9.894405317793286
Hf 13.557418088436492 7.707651359011076 14.353026345462046
Hf 14.604892205066843 10.40871767042994 13.847767168059711
Hf 11.561194102046441 13.312058998664499 11.2089372036195
Hf 10.711671180945244 15.576757373872773 9.533432736478263
Hf 14.477631863802003 13.039926130165735 11.935347706629862
Hf 17.421485229926216 12.788206822947213 12.298186984169966
Hf 13.885913164921766 15.133262236314492 9.897591040017138
Hf 11.05854059697325 7.527282291852645 12.444634112406426
Hf 16.59570908010042 15.17132695857475 10.9365484171532
Hf 11.73044584013039 8.575388246308881 9.803705185100162
Hf 10.720297715186645 11.185532382787471 9.006682745840445
Hf 17.48686298075627 10.395750301172313 14.187713162014179
Hf 16.20031234677758 8.042742030722529 13.167303541600617
Hf 9.8729578366988 13.67803700149549 7.42481596846629
Hf 13.929925407457347 8.254419651748632 11.467881842611186
Hf 13.551700622365528 10.955685372807398 9.93455619755459
Hf 12.46455800192959 13.332887344032416 8.334216849067928
Hf 16.233337101798526 10.31802995987976 11.286126901561657
Hf 15.931487694557784 12.792721519481356 9.563704342909148
