53
Energy = -463.14067153 eV
Hf 12.598164282600036 17.602411800395117 10.555439388721052
Hf 11.646214025473707 13.987612693049917 7.3896483795163785
Hf 11.956506966735072 11.070958708856153 15.933977347837558
Hf 9.618580030410078 7.267895837703955 10.353568600114356
Hf 8.326256583279447 14.37073475766042 11.760254243570591
Hf 14.407925219618724 9.783310511943379 15.938718311229747
Hf 14.071793154758222 12.218284106211081 17.77070343496028
Hf 12.011759333250227 7.151359382794005 11.846858478676257
Hf 11.251208246641744 13.11333552649176 17.85831061822386
Hf 10.459484991785597 15.544675108667922 16.80405403550015
Hf 12.119481765880547 13.928244913565157 15.170337869881171
Hf 15.774895504818444 14.77047936687114 12.42125261582944
Hf 9.377544496324107 13.113964424847218 15.488055136550775
Hf 7.721680584217646 9.182923651210293 10.797849459461519
Hf 15.978698775604483 12.06547096401471 9.626158452279697
Hf 14.449358069694703 7.412678901003016 10.30899813153126
Hf 9.570419888919721 17.07329128582267 10.817784849924891
Hf 13.326914402250074 10.14605607511487 10.250947815412195
Hf 14.246204803847744 17.976191799734494 13.112625307529784
Hf 13.747334993035102 14.9403164052782 9.522031577927903
Hf 9.465433241922296 12.16759943987351 7.4206904693380595
Hf 11.821941914626603 8.323906031924738 14.593114010404152
Hf 9.033439817561828 7.901484753416824 13.120383643502624
Hf 12.060107799586978 7.861810969060874 8.901376824859788
Hf 14.528683857249472 7.879079233464264 13.182650897664526
Hf 13.74169233987756 12.828935348204919 11.610265502515883
Hf 9.65627556148819 10.141239452477631 14.858448548948632
Hf 10.464705500944186 9.817928188795246 11.739113413801572
Hf 11.346144195055036 12.210397750228736 9.641267445810827
Hf 15.187526142802154 15.921575076483453 15.131429947207332
Hf 17.459459631369224 13.948338942897237 14.746546238546822
Hf 10.589121089942077 12.581882567254702 12.86226847230666
Hf 16.653943086001714 12.175281712809173 12.378679902492213
Hf 16.142135651540816 9.539323983508963 11.158068885817828
Hf 13.342258208081766 10.510258245645767 13.282541889339786
Hf 14.830703582270978 12.789026558924144 14.774013153101306
Hf 12.088099082263522 10.53430002179549 7.323997985574691
Hf 11.12018261384369 14.87273074677583 10.926114978041836
Hf 16.776900112915506 11.517867016635867 16.584916143630306
Hf 11.362258704524262 18.01761369871494 12.972388876569683
Hf 13.970298787280255 12.360973503556837 7.999562217596935
Hf 13.390167594672569 15.119252173330992 17.510156727557113
Hf 13.079012302134814 15.547107767555689 12.824047519007491
Hf 16.300887748108963 10.093193886514952 14.062882716156754
Hf 8.474828171201539 11.967357122288941 10.266900539942387
Hf 9.736371436822832 9.65335929852003 8.689236018051384
Hf 11.21491535596991 16.505067583654363 8.45093832790505
Hf 7.951454938613918 10.964711829969772 12.997811372019596
Hf 12.548610041152136 17.116882943653675 15.400677623290882
Hf 10.022678232260205 15.490963067276086 13.777096990582407
Hf 9.033652586267076 14.65582947708914 8.84359990812821
Hf 16.103218906316723 14.098541349018314 17.196664725012468
Hf 14.996501448198346 9.482950426103535 8.26891378903527
