6
Energy = -44.31588518 eV
Hf 11.194277081448618 7.7073134335686095 9.817457298343626
Hf 9.435421963826359 8.399808869411256 7.771815564814848
Hf 10.570641478182772 10.352980871586912 9.34330031845234
Hf 7.956160578507157 10.538888955389773 8.529103309075362
Hf 8.659445205125412 8.646210022191722 10.395937317092335
Hf 8.665817645111026 11.314046450829535 11.104889189712107
