6
Energy = -44.31472039 eV
Hf 13.792027199967208 14.33148781329238 13.034178110531785
Hf 11.475705902164977 14.038303408464415 11.529416347350105
Hf 13.444543520719243 12.124203174562348 11.409667625310774
Hf 12.624846320049613 9.892057242414198 12.818092229725206
Hf 11.917451422881086 12.415739015349414 13.703308543980487
Hf 10.785179041724454 11.42367875521757 11.402110574102927
