6
Energy = -43.81862403 eV
Hf 8.435089693026555 10.208298708421136 7.681862584159641
Hf 10.762672222299265 9.471730026705382 8.863845588695545
Hf 8.15772637308244 8.937463750909638 10.048058064937583
Hf 10.45120164679171 9.017645277408596 11.53651084987769
Hf 9.358821021652822 11.361038325299598 10.186734589527063
Hf 9.189623923053322 7.394363213906847 8.05066926927067
