6
Energy = -44.31459099 eV
Hf 10.828401802032932 8.146614431540586 10.393991870978834
Hf 8.487432157157578 9.566703601230607 10.12327834274337
Hf 8.89427047606172 11.633465898964332 8.325152683325161
Hf 10.934331930092624 10.868096446706874 10.021409387708674
Hf 10.17382161547725 9.186533286023495 7.981284945223004
Hf 10.000949037512026 9.859647559194887 12.419754418086859
