6
Energy = -43.8211964 eV
Hf 9.826139483338569 9.927819541875813 11.800180471058738
Hf 11.358655871498579 10.38949813531954 9.358580958373853
Hf 8.666119139914565 10.702828935463375 9.457407198644106
Hf 7.359592527733974 8.352614417657138 8.997256449484055
Hf 9.57901460472588 9.288426763312216 7.35031841573727
Hf 9.96690743657086 8.112535226965207 9.762792219986437
