6
Energy = -38.46300127 eV
Hf 7.025079035328168 8.24827037183482 9.07070174103815
Hf 11.352788057793123 8.977517751436176 7.337597442927382
Hf 6.749252465076867 6.136290566006679 7.401669584950575
Hf 9.048542334859867 7.5573785974124235 7.326816120858241
Hf 7.39214849566024 10.322342949259127 10.767648340303925
Hf 9.374634161229626 9.70064476405065 9.038011769921727
