6
Energy = -44.3139708 eV
Hf 8.942949213898517 9.614162966935364 12.342063780705562
Hf 11.793263808872977 8.71174756505227 8.879837327298366
Hf 8.768774359410289 11.642589402724989 10.43530762368394
Hf 11.180251236124937 10.434707512087964 10.94142422588711
Hf 9.161070561708698 9.036931705060521 9.656072218779695
Hf 10.444725187622911 11.099994872781014 8.377903224479208
