7
Energy = -51.50128147 eV
Hf 9.425912316439403 8.967966744266112 6.33004039987806
Hf 7.827977104355277 6.7119953956490574 6.638110836641611
Hf 6.729569544375353 9.091947408179463 7.013331729015396
Hf 9.263210822098245 8.477942085427093 8.987322479014628
Hf 9.204699719165674 5.834224936008733 8.776495670865074
Hf 6.818536921651969 7.29739669980361 9.293345460374873
Hf 7.222610545231551 10.111043703982894 9.453870397527716
