7
Energy = -48.10330821 eV
Hf 10.077088910047344 7.9167996334494575 11.074203835311003
Hf 8.6945013 10.253152741499957 11.081369423839377
Hf 7.311913689952656 7.9167996334494575 11.074203835311003
Hf 7.311913689952656 9.472202966550546 6.314798764689
Hf 8.6945013 8.6945013 8.6945013
Hf 10.077088910047344 9.472202966550546 6.314798764689
Hf 8.6945013 7.135849858500044 6.307633176160625
