7
Energy = -52.98658577 eV
Hf 11.79480762731937 13.281212322889106 10.321476103487468
Hf 12.877871067182248 12.075017604624847 12.618974836531242
Hf 10.142165564571343 11.78900180482973 12.024258141230355
Hf 9.876768581434607 11.516689725572416 9.237350224511061
Hf 11.596693314088338 9.598973540242328 12.983034120428586
Hf 9.763706088793038 9.250555500127765 10.88357120692952
Hf 12.227396929867876 10.502725645898039 10.390869394733183
