7
Energy = -52.98516668 eV
Hf 13.095357410718647 12.791759705581264 13.061101052591255
Hf 13.81591931680777 11.714919450248425 10.558454782274808
Hf 12.097768797862614 10.288260365043238 12.261845934201082
Hf 11.247913572165501 12.783757421242003 10.947179501244245
Hf 11.56395709056843 10.384440083904707 9.514668810109008
Hf 10.409981916583 12.117769501562302 13.550086132976231
Hf 9.461865593758755 10.65869378797089 11.348352175157261
