7
Energy = -52.98724624 eV
Hf 11.311946841314187 12.503202088008624 10.828357491498968
Hf 10.824743193955143 9.635981044125561 11.31180491623143
Hf 8.751283131814118 11.523415329755247 11.425270166246415
Hf 13.195813406517773 10.893174736685038 12.15289897890405
Hf 12.69870104885243 10.511030954157592 9.414175565852831
Hf 9.956790426696593 10.908907945206678 8.9632874473808
Hf 10.752857658910933 11.516423610122233 13.396341141946445
