7
Energy = -51.9204412 eV
Hf 11.184744546774201 8.15956655618816 10.59941028487971
Hf 8.742322452401892 9.466716440236166 11.069466598280734
Hf 13.118395807462107 9.721031558892042 9.609924635985536
Hf 11.18714197799162 10.81171872713501 11.348008372197839
Hf 10.256829980425447 10.110682846603265 8.825460406253256
Hf 7.290810877430678 10.490558825790261 8.879575067949165
Hf 8.920793905108248 12.093803483470335 10.274573191949811
