8
Energy = -61.10384868 eV
Hf 9.030795264769392 12.244802636167057 12.307169707964208
Hf 12.649826203584617 9.506902512299765 10.663279964305456
Hf 10.268817382293227 10.913864377623543 9.951757371428608
Hf 11.391660886763699 13.097620865021726 11.254749308022262
Hf 13.515697460499046 11.661251474799508 12.32654463098122
Hf 11.282596386265203 12.766263645235822 13.951754825287752
Hf 10.958851772570124 10.354164899768826 12.71248064224459
Hf 13.05218189423572 11.869187024150127 9.370545360825624
