8
Energy = -59.79411901 eV
Hf 10.507233767383914 8.915386218273643 7.579749234030037
Hf 10.906037365810953 7.665950609844668 10.125946374781345
Hf 10.40847039736022 11.616555845510497 7.443388820288769
Hf 8.35670231831408 7.39320407960318 8.963288788584867
Hf 6.2220183076142055 8.73357879135299 10.05321169114731
Hf 8.681225330307072 8.984874615303562 11.234182161104863
Hf 8.24618242987426 10.298459209424138 8.649004173317993
Hf 10.830910989190045 10.519951241090766 9.872932524812699
