8
Energy = -60.19410265 eV
Hf 11.129816091417633 8.562359993611036 7.673332959842284
Hf 11.925562737662391 10.146854515635855 9.581871149567217
Hf 8.626870435906355 7.843813368708744 7.53186343094173
Hf 9.68501848450808 8.344991974436983 10.242473381919908
Hf 10.21362650392533 11.033681001546775 11.339571940557041
Hf 6.918318656534849 8.720515175806087 9.293301049609079
Hf 9.154947549818466 10.534158578244442 8.628644064901545
Hf 7.70871197305875 10.328385300103333 11.190044437422618
