8
Energy = -60.07588418 eV
Hf 10.38166297152916 11.333215754380115 14.959722935570655
Hf 14.647700903881281 12.523449741407513 13.006061743943384
Hf 15.37711840478644 13.515449633603778 10.507830656244613
Hf 12.080392925515257 13.470362404161161 13.791944126349923
Hf 13.943588537877218 15.03421982130834 12.164656723315828
Hf 12.581553623061628 12.781755916534479 11.135884931858476
Hf 12.398248261438043 10.762272749020648 13.135876998574922
Hf 10.070862135641944 12.022109346149628 12.411621596394736
