8
Energy = -59.6165266 eV
Hf 10.888912607560808 10.778983345214547 7.818549509409019
Hf 11.886518136976042 10.555813103753788 10.507090658904918
Hf 10.544371046934412 8.463448912232389 9.395342240803448
Hf 10.96575971145258 12.999253094258485 9.464308387306723
Hf 9.647416307351401 7.055067348382784 11.396191692098853
Hf 9.56879826341371 9.560485164624865 12.09376228302591
Hf 9.03912897731594 10.992191310541557 9.831896112460578
Hf 10.383078786495112 12.24510889988874 12.055138290522873
