9
Energy = -69.62360177 eV
Hf 11.663160292124369 7.578911836652578 9.657416539764379
Hf 10.263248288937582 8.735861398541173 7.611564605319579
Hf 11.276259423909165 10.453657530811961 9.688648344342036
Hf 9.366267869109947 6.39160406102325 8.703153021448616
Hf 8.991039882708407 11.643968625923097 11.0306207207584
Hf 7.439005453104452 8.477580541140329 8.080408152585589
Hf 9.083361832469329 8.794338909531815 10.35382180349109
Hf 8.780880927154476 11.008399886650432 8.374220410477534
Hf 6.694294230170231 10.473029410533677 10.057494599746324
