9
Energy = -69.19504505 eV
Hf 11.89768741578169 10.242472602802732 7.760528175977119
Hf 9.612567685833517 11.549006447236136 8.704745758073372
Hf 11.467392566094578 10.620918333934961 10.64869178946352
Hf 10.670417721669267 8.252236756278204 9.294911617352719
Hf 10.68885867197702 10.862078200229519 13.386895797088556
Hf 9.268705592416561 9.28872705995891 7.145832903513124
Hf 8.864139369125745 11.452167168159116 11.460893203560044
Hf 8.086247472876613 9.358979736609559 9.655947872581555
Hf 9.723496555054878 8.773436897916561 11.940855083897569
