9
Energy = -69.70541006 eV
Hf 9.912266262544495 10.392236302115025 8.56821861818013
Hf 10.5970048690203 7.597132491087009 8.868734530508242
Hf 6.2849014050291725 8.064507715078548 9.075114592733295
Hf 7.68288811337549 9.63781528343365 7.074809556304037
Hf 8.34388064416322 6.940884102529657 7.36503594970815
Hf 8.303737853360788 6.099432426757451 9.971207051383448
Hf 7.139703577724619 10.868113792767602 9.462016637065643
Hf 8.559336113824116 8.76794216951129 10.466331492096622
Hf 10.28425803598947 8.739912737548178 6.256508572020299
