9
Energy = -68.34945346 eV
Hf 11.740521044533942 10.886724077419201 11.515210818715277
Hf 11.805836315465227 8.347602194878403 12.611976890039724
Hf 10.598305486625378 10.653120882474175 8.838246847942841
Hf 12.050079495190886 8.504398386958918 9.977533074019304
Hf 9.585685705363407 7.979349915795467 8.699540188898315
Hf 9.434449591931104 9.32139677247879 11.217293395200318
Hf 7.7476845052501115 10.100055004963885 9.091562499655927
Hf 8.403433269199217 12.416157561279311 7.9541042098835115
Hf 9.026477365299142 12.095826640775112 10.64466608978243
