9
Energy = -69.62280046 eV
Hf 10.964762342143104 7.811654039961965 10.380363626555427
Hf 12.297224935564405 10.394136014377624 10.382244719925593
Hf 9.805137372861081 10.19380805290169 11.499310904337847
Hf 10.411341316375335 12.35431175798252 9.929521267837638
Hf 10.087731920287357 9.78662015988836 8.558131110723306
Hf 7.816036045569266 11.088623209397449 9.623949720495796
Hf 8.13313316720696 8.299929394781213 10.250379900467376
Hf 9.301089701360592 6.995818909474071 8.144310920305816
Hf 7.416667813680426 8.955922996117648 7.690227042871319
