9
Energy = -68.73000946 eV
Hf 10.465564963797123 7.405621593272616 8.36956866748481
Hf 12.726286756110602 8.874002166689154 8.631962130724816
Hf 12.1641752034199 11.174135033900352 9.945708645775992
Hf 10.197952542598324 10.18716400243323 8.194147235524266
Hf 10.763972084887946 8.885247850199574 10.74302349858729
Hf 9.363078653012591 11.418759742584125 10.624989214892278
Hf 8.165663603537967 8.665627181975305 9.59170784491751
Hf 6.868408511935728 11.102702616420128 9.503350834514
Hf 7.422977660610408 9.937348032409911 11.918087285405893
