9
Energy = -68.37465303 eV
Hf 16.321154424912216 12.081628192171115 13.789135763584802
Hf 15.118177620116203 14.375204476150891 14.235026720454986
Hf 15.01243202531103 13.216904010902986 11.634133417110402
Hf 12.602079847121846 14.474168368841706 12.966303935185483
Hf 12.142133807154496 12.322268247421473 11.148964668687796
Hf 13.554183168591843 11.600539810766056 13.3915717206554
Hf 12.909131087733513 13.266495124488817 15.532155664828911
Hf 10.82701960957892 12.395542374349086 13.681743686114546
Hf 10.017368882552798 13.977523400199361 11.652131667821937
