22
Energy = -43.29471420 eV
Ag 13.149616342462119 7.7415226209965775 12.472474183011531
Ag 12.105626699310186 8.348061413003515 8.101798695019754
Ag 10.954185678135014 8.027643789646966 10.790498253039411
Ag 13.339476177997406 9.350511241832747 10.277631297073714
Ag 10.57081308584055 10.321211459892309 6.43303455100591
Ag 8.25057475049989 7.584039725061029 10.576393135152708
Ag 12.62645276929824 11.105339453030904 8.123006091521717
Ag 11.30712237201157 9.092606871340495 13.933861881288758
Ag 9.467865181035673 8.921050129360927 8.516740208229747
Ag 13.420294598495634 10.625910145062884 12.78867745614731
Ag 14.689161264081132 11.674037642218085 10.093886308483519
Ag 12.403258601517317 11.154166779575297 15.339363272146185
Ag 12.092682885361377 11.968684370466807 10.773675060454659
Ag 11.625227165065178 13.682890361732431 8.65485606438233
Ag 9.082529236915319 9.542251760709778 12.364062498780957
Ag 9.645785949619771 11.781507527651424 8.602142727544964
Ag 10.722217880622775 11.749481807287175 13.180817753840829
Ag 7.725889340280403 10.387508175640725 10.097204816260238
Ag 9.921275221849463 13.523841712038912 10.941831040591362
Ag 8.058159628429916 12.099309084852278 12.39672583226755
Ag 7.4286364932549835 13.112241562891501 9.832966989221417
Ag 7.744214270612093 14.816299452125191 12.049278374391829
