54
Energy = -118.16349237 eV
Ag 9.272822710528333 11.133354288197586 15.0872932422896
Ag 10.162771795942176 8.19307519870599 10.408217491203464
Ag 9.406639812204203 12.779558687190349 17.341246279931532
Ag 9.732903191919451 9.580275943244773 12.867951453871115
Ag 11.375630349481321 8.763716747329708 15.040335343388302
Ag 11.925127248198153 7.5639110210530305 12.512904360699649
Ag 9.710107510681697 12.635067083163653 12.517279193397657
Ag 11.552639976881752 10.960941572152388 16.834231873243834
Ag 9.258717419707041 10.832951840896955 10.395325146344593
Ag 11.981264807886811 13.201047792244937 18.466669025827446
Ag 8.509640679442096 13.82700094928297 14.80610193921056
Ag 10.944575142173534 7.450334383456146 7.834711016693168
Ag 13.938380138956385 7.384903623523552 14.414157012937691
Ag 13.896839754263965 9.857726860069425 15.563762620937226
Ag 11.813908710842318 11.392861675816965 14.038921718281845
Ag 8.504504851722352 13.41771034504686 9.753332736238223
Ag 8.96420928449403 9.371199235118183 8.079557878151524
Ag 14.210030733831317 11.786993629305572 17.497447367088256
Ag 11.743679154332158 10.123046161309881 8.469723119558271
Ag 8.506082228602994 16.131596658521197 9.361448063699912
Ag 11.334294299420634 13.86424762753199 15.69038352806525
Ag 14.643963361745511 13.76031228015327 19.326958148223955
Ag 9.845323474274107 12.014199692872033 7.739768170033937
Ag 12.099552255160301 10.20746235551906 11.456027492240208
Ag 8.034176460460344 14.979985607019861 12.20341095190764
Ag 12.910945770922265 7.889712631585717 9.755134936854459
Ag 11.557778727702706 12.531188548436054 10.052122321700093
Ag 14.507457119057738 8.597694455051696 11.882968475640846
Ag 10.538964096069778 14.977414862585514 10.919465653671507
Ag 14.334087593280815 11.22463287935513 12.949113195811242
Ag 10.8216253507808 14.57726659963524 8.110437290987198
Ag 10.359455576284507 15.570001701834833 13.678971504810223
Ag 14.019507288393896 13.176729374413895 14.93369812876757
Ag 14.27485976135121 10.384852922678446 9.660611356378935
Ag 9.598062383570571 17.444430696347812 11.663203690985526
Ag 16.18376360575719 9.1896016288153 13.93422575838113
Ag 13.686900720586824 15.013230870555123 17.031068118566598
Ag 13.470684581540091 12.677005742753918 8.051837410382205
Ag 16.23585440371612 11.433427739179386 15.480224479324077
Ag 12.536309573745008 13.674093320084756 12.511287408135964
Ag 14.642961620269224 12.968618799036618 10.731038488019065
Ag 16.20835645540184 13.780752864165812 16.93731683513045
Ag 11.180148474499818 17.16819508059968 9.255381181478443
Ag 13.015209571471472 15.8410638448155 14.467104018644084
Ag 13.090637607014086 15.097543812758392 9.716975078714773
Ag 16.553721471171027 10.883491561737838 11.384314723519182
Ag 12.444332060834059 16.824545128052527 11.936366304727928
Ag 16.355105492368214 13.22566276403996 13.284393864380613
Ag 15.754578580822129 15.544506757313924 14.840598524436144
Ag 16.27321836253585 12.034669040176306 8.650166487922231
Ag 15.664973849713867 14.797382160183576 8.852422903222854
Ag 15.005202537331982 15.415736994295665 11.965335944018497
Ag 14.7377687839802 17.757302821782215 13.448007637300924
Ag 17.348319751945844 13.699457734629215 10.759574252912403
