29
Energy = -59.93240308 eV
Ag 16.860023175071976 12.213086973204653 14.945176940460978
Ag 14.934889154481615 10.357507275694795 14.156910382679431
Ag 15.729789864802672 12.462200005942481 12.433717137499976
Ag 15.79474953865906 9.440737241207067 11.660779509124836
Ag 14.20291076587173 12.93569269847085 14.944976918874186
Ag 13.158412049072512 8.666466234417094 12.864710135215303
Ag 12.999607796011281 13.646167576596087 12.506916434390408
Ag 14.470892681646585 13.3034733245352 10.129889248334269
Ag 13.708835882425346 8.5449680849522 10.011908455881215
Ag 12.209208238538992 11.17280716672824 13.995066721918484
Ag 13.527480704230273 10.998707486983982 11.428108882886317
Ag 11.338567972088484 7.377965543995016 11.210942614568673
Ag 13.398429819572597 11.016078526695448 8.623684368958633
Ag 11.496484290870638 13.765876261975503 14.93354694889777
Ag 13.177377934929616 13.684871847414875 7.720847242487342
Ag 10.360619838671397 9.557841774856978 12.673728541574262
Ag 8.839850220818713 14.66995151244424 14.772512782088345
Ag 10.260852868972576 14.584468718026956 12.415874042535119
Ag 11.765905162659154 14.367910885673053 10.05399797622418
Ag 9.492129056486492 12.055914930712822 13.933402185381007
Ag 10.827923437420026 11.998813026949312 11.354804609289024
Ag 10.869650471406915 12.266946453453073 8.384253709917017
Ag 11.156222729838358 9.706812789829687 9.691741593081641
Ag 8.743812229515031 8.528077724663968 10.588598659231431
Ag 7.57840361456419 13.719761131954767 12.437817566335156
Ag 8.96847247519706 13.663807162040802 9.937806886200024
Ag 7.985172212969976 10.896183783925274 11.88464859725543
Ag 8.597609902682809 10.95799224084644 9.173025956287766
Ag 6.464131990657569 12.467464953492767 10.18369738894906
