7
Energy = -14.39535473 eV
Al 10.003729028268037 7.911013021274329 10.953544143160496
Al 8.6945013 10.26415558461867 10.95808667013979
Al 7.385273571731966 7.911013021274329 10.953544143160496
Al 7.385273571731966 9.477989578725673 6.435458456839505
Al 8.6945013 8.6945013 8.6945013
Al 10.003729028268037 9.477989578725673 6.435458456839505
Al 8.6945013 7.124847015381331 6.430915929860211
