7
Energy = -16.09022212 eV
Al 9.752888474703669 9.592961701652197 8.273918480074853
Al 10.292417010842076 6.933963548086358 8.128261115718228
Al 8.172829230485801 9.764086173770083 10.523830751611714
Al 9.977140165720142 7.893238001186539 10.527281772213875
Al 7.750938083908858 7.624980675104695 8.816254788929209
Al 7.986843772744705 8.787977616489568 6.369882736509438
Al 7.002286791951045 10.28309939479541 8.260437677084312
