7
Energy = -17.8048341 eV
Al 12.41199400412386 11.624913518639058 12.793747630044331
Al 11.723577421811978 13.396761367644157 11.05518164104277
Al 11.164285432120026 9.625483566092335 10.945477441351882
Al 9.679090747361379 11.914907538913226 11.606414008305391
Al 10.816125838307133 11.607166838914335 9.273320324265597
Al 13.207738707802482 11.102122942841044 10.399565132544472
Al 10.337954658309124 10.101269762749402 13.426537765362776
