7
Energy = -17.80935784 eV
Al 9.575662639532773 6.58847111268902 7.067051855910861
Al 10.218341242286648 8.893619219459387 8.214667995884394
Al 8.265147509875506 10.590164775634717 8.152534859410672
Al 8.94764238486528 9.256033951247629 10.441289618400361
Al 8.345294969449132 6.970828686494061 9.38832201055247
Al 7.619495685268439 8.379248491260247 6.964279315095937
Al 6.53434338903208 8.82756158352504 9.277782165055047
