7
Energy = -15.72225598 eV
Al 10.875889203795548 15.06122696325905 11.17711568269255
Al 10.239616581791894 12.538951651259314 11.038574534504798
Al 10.591297237783435 8.189538520877463 12.734451043649342
Al 10.715715346015187 10.79269174698696 12.742098228745244
Al 12.719115119671548 11.30705344444144 10.898819247613991
Al 12.933677235782769 9.153056832724802 12.2833894489962
Al 12.446080706658 13.600769844327015 9.747589238921575
