29
Energy = -60.17351506 eV
Ag 7.304436582397488 8.730600854884258 9.866015139365318
Ag 7.556728789347334 10.668092110831424 12.034248577901202
Ag 7.070367619503275 10.413018399857819 7.569747770461339
Ag 7.871423739867185 13.00090412992297 8.1817952242908
Ag 9.540324543459086 8.76524462600355 11.672815980310247
Ag 8.038166894151713 12.856372860035247 13.75279895063668
Ag 7.977719023154926 13.242830052099707 10.926190640585272
Ag 9.217390219801771 6.703374206283334 9.748016082643165
Ag 9.073437644524246 8.542323359232947 7.586564541295303
Ag 9.130702816743034 10.825529439213662 9.663282956142648
Ag 9.866774139757274 10.767348579718096 13.736375152954222
Ag 9.763089878907017 11.294220553723013 7.013920603668013
Ag 11.389508182235405 6.757663874429044 11.554804994001042
Ag 10.363438688447145 13.331853416567972 9.3812177667508
Ag 10.406459037058584 13.34433252713556 12.261059200812548
Ag 13.476450599214905 8.517754225615617 11.007908853443777
Ag 11.252315117317188 8.651907858878381 9.317737314382518
Ag 11.945484074966773 8.898457948753736 13.345246190395857
Ag 11.526952572225508 10.818235198804883 11.26000479745555
Ag 12.516391414545168 11.631423374307545 13.960756241563823
Ag 10.518557825411756 13.250768033262148 15.048924657938421
Ag 12.776521029153466 13.435414236350958 10.762167984879447
Ag 12.123992025910024 11.348614980096809 8.562025454599807
Ag 11.655180814102245 9.278705647025252 6.596372848878278
Ag 12.698132803936792 14.368942887197134 13.49138314745007
Ag 13.882528198574368 9.227579905624959 8.269407913629058
Ag 14.571388302394274 10.022240834242798 13.068123748203767
Ag 14.770398249421694 12.756852863762964 12.601458782403702
Ag 14.33463640472488 11.117121307377378 10.355786051451854
