35
Energy = -72.19556276 eV
Ag 16.51267667020006 12.67215275818454 8.648347750048895
Ag 13.008207281413068 13.115992443862266 11.725444127069563
Ag 7.784931682470775 14.645260869854855 12.933172636685965
Ag 10.928409397846295 8.270294329478508 10.933071448450736
Ag 18.01459483052788 11.42791031898802 10.68416382474945
Ag 12.413428191529928 14.476460769058175 16.17703656668434
Ag 13.754449892881903 16.65685035498076 14.884567800638578
Ag 14.380212679652535 13.961798041656348 14.05893169877406
Ag 10.03733563769766 10.32801949082891 14.879680950841456
Ag 11.917299384104354 12.291383582330493 14.18890331146509
Ag 8.188959049909194 11.98049752598197 13.608629744735776
Ag 12.524695558745407 14.997437237708978 9.670323046651484
Ag 13.981310519240283 16.01558215966984 12.141778114795114
Ag 10.062141668505534 10.736040416398104 11.890075304287933
Ag 14.727709638528529 16.85597960647849 9.620962623306802
Ag 14.758366895259334 14.695602057095988 7.823497321518661
Ag 11.149426664767564 12.10117467656748 16.901735805317795
Ag 13.624995854645226 12.449110802643622 9.006785053913415
Ag 9.717969202095805 13.931259104519903 15.07108410968529
Ag 14.241043099855387 11.023662888723965 13.42485240961381
Ag 8.34791773349189 11.90743551592634 16.41874817201004
Ag 14.08149831968125 12.221874269833284 16.231933175729854
Ag 15.41547267905543 14.29133343706848 10.57019348245448
Ag 15.699799795645541 9.960280580524971 15.50060489030879
Ag 10.889104202541695 12.628307073599492 9.771085444131668
Ag 14.482567407869224 10.138104137491728 17.969809088883512
Ag 11.975752916549764 9.179184574212819 13.271039111529063
Ag 12.730227657591799 9.8514267203838 15.815178017702651
Ag 10.237215447566623 13.586905767583701 12.25916643869396
Ag 15.3387334567711 11.349591574406325 10.90126217657885
Ag 16.896936190513884 10.377534223369214 13.038026959550676
Ag 12.706868352290247 10.420055909160444 10.85756576147964
Ag 8.172424731673456 12.669420292550988 10.82440512518621
Ag 11.760540763943029 15.288483061131817 13.623289463070773
Ag 12.931351505385935 16.754115741947086 7.532453474361816
