54
Energy = -119.10728863 eV
Ag 7.162591706873702 14.860842208885261 13.837406789022577
Ag 8.916541772565632 13.569771222460357 12.185229741488309
Ag 7.8309503547325905 11.138689207025072 13.324080753363424
Ag 8.784926595742869 12.964122069119911 15.104463213125069
Ag 7.2633809060376455 9.251671003317826 11.370185273561553
Ag 8.989536706050513 16.574026898215376 12.576936717818544
Ag 9.70024299686891 15.523736822831555 15.169638458522833
Ag 10.00271875250509 10.479672633293557 15.575960683305773
Ag 6.935742958994369 12.029647170548012 10.800755482080504
Ag 7.142720929284067 14.98223685611842 10.765608009579102
Ag 11.802395111457301 7.6546826566054005 12.419410750101543
Ag 9.486730475665416 7.640732438089006 10.808993008744029
Ag 10.687697343760904 11.73248664412035 13.213168778794323
Ag 12.449780331953171 10.919274855835683 16.865053015420706
Ag 11.652910573893854 8.172248478889939 15.186533135803918
Ag 11.611462260668034 13.171587393749407 15.403026934819065
Ag 9.53654931084351 10.645550384691912 10.684098797418473
Ag 9.53280168669316 8.941782186617342 13.288612668218525
Ag 14.255929117076663 8.884480442885536 16.255113397161523
Ag 8.962953166029063 13.085514605995927 9.1931535707211
Ag 12.975752484044708 10.305236476813192 14.123289048513858
Ag 11.392684987403669 14.903730553499463 12.981701976904464
Ag 11.227665904013369 17.606855024360673 14.098782961070757
Ag 12.344517908602398 10.444830081699006 11.292692652143595
Ag 11.911533004138759 6.174963091906643 10.135129263142957
Ag 9.839901893054476 15.579150713727882 10.134542149338756
Ag 11.342916472275014 13.11192888054342 10.819413548804292
Ag 11.58990049330175 17.40519027738599 11.396345215188607
Ag 11.508215175349415 8.745637727884386 9.27368811983392
Ag 11.400179656213753 11.449450870378502 8.57432114045767
Ag 13.593008082170604 13.626739770561786 17.267301732069956
Ag 14.223172651834473 7.764731782026891 13.680430325784803
Ag 14.054925943494684 8.02213703675512 10.62372913011224
Ag 13.201281923670035 15.340950113838336 10.37885336386698
Ag 13.374391868059101 12.788922756926395 12.88878343008959
Ag 11.361140630065636 14.222853029714726 8.149737304729273
Ag 13.703438786225075 16.42665390546862 13.098051239863757
Ag 14.055780691318459 12.485567324714411 10.166137423893376
Ag 11.669947885244046 17.017378980706226 8.623691584009539
Ag 16.467425433418832 7.953537796896619 12.089950699801136
Ag 12.542958461428274 15.783972291719303 15.705190804936963
Ag 14.953010772186893 11.673561837533507 15.806958492772694
Ag 15.015774762827071 10.428655080107642 12.065064296379811
Ag 13.901101072384954 10.109402519137168 8.677086096971712
Ag 14.765587188418113 14.350072767733723 14.778583019902902
Ag 16.305738879679456 9.635825429089513 14.468613542405013
Ag 15.424388303451396 14.48508598533331 11.928321567367055
Ag 13.693659727264956 12.711446481780406 7.4368858835971645
Ag 16.39538452975609 9.650451677419777 9.794994733068112
Ag 15.670386269901291 14.406175950166963 9.06461296753389
Ag 16.44303863732201 12.401587553374268 13.568800313578715
Ag 13.72005104576012 15.550520128425994 7.511511340595674
Ag 16.828991742456676 12.365270383738052 10.634660524501756
Ag 17.893441154613342 10.366495165564835 12.228780173281336
