10
Energy = -91.57375019 eV
Re 6.840031198854538 10.283603983010563 7.25899805268689
Re 7.225453322975531 8.573904959625713 8.841301553359795
Re 8.472816534192269 10.809349521061568 9.077570319585938
Re 10.69722579326555 9.725427961101184 9.187612692327715
Re 9.064011379894144 9.037069811920267 7.265326560429608
Re 10.46176298711004 10.756019029532121 11.314622404767487
Re 11.443673947648325 7.9572506401709395 7.457774466297337
Re 8.820178158006264 9.247825350270519 10.896105210773046
Re 9.733128539330437 7.367813023234408 8.838575308617934
Re 7.926972322587559 6.908789404471619 10.546231734984971
