10
Energy = -94.40373575 eV
Re 6.558745486513706 7.717794916021299 5.996002176881476
Re 7.225222196677499 5.488668595970261 6.335224337378973
Re 8.34002590401094 9.757554830687532 6.865447431939403
Re 8.760152280432589 7.282629735273214 7.206730707490749
Re 6.883877459891765 8.359819258032262 8.437603055105637
Re 8.393032090168319 10.195518716312959 9.252086607593851
Re 5.308020056008639 6.5148636080844 7.757350288288198
Re 10.354641630490978 9.082655928983637 7.941288686198063
Re 9.067803955490113 7.946011065560297 9.657045882212932
Re 7.3297020435447795 5.875706448303466 8.772443930139907
