11
Energy = -103.93043213 eV
Re 8.951519866344466 8.952471619083424 6.787571935875325
Re 8.948206024744122 10.15889767109013 10.946062504463468
Re 8.947343144922325 7.735181586690301 10.943203163623071
Re 8.952181809661228 11.306135563506276 6.772147507583765
Re 8.950589175514741 6.598506701344988 6.766430456052738
Re 10.18077288697981 10.199450171512481 8.729483327201892
Re 10.179898567182907 7.699139570013197 8.726579669001742
Re 7.7195839513549975 10.200253278767297 8.72740161919277
Re 7.718681846404607 7.7000636558486475 8.724462327341568
Re 11.146446030163686 8.946556337974831 10.662650373861412
Re 6.749513195835443 8.948080342385476 10.65874361491096
