14
Energy = -133.6628096 eV
Re 9.69911671480289 7.512032322763273 6.082860338976246
Re 7.986331105407451 9.252484259546408 6.304483631793167
Re 5.586279705592899 8.481110465654481 5.617036168043132
Re 7.069137469155252 6.893767038135675 6.6384266334029185
Re 9.057818463638487 5.5015486303026 7.291534203665361
Re 5.349280545676899 10.0531328653515 7.189573309359402
Re 9.709583486159458 9.844977607665781 8.106080155798747
Re 5.8352666001625275 7.805597025279089 8.55763580301204
Re 7.264206647760908 5.583510612818023 8.896409877597588
Re 10.995291421762909 7.91408208353402 7.973636390801801
Re 9.5175862956426 6.665759680298231 9.468466129345364
Re 7.225794519112199 9.688938255350106 8.667499228173702
Re 9.15160299057318 8.917791801823865 10.291525463378024
Re 7.172818891277682 7.505382208202987 10.534947523377996
