12
Energy = -112.86940896 eV
Re 7.845288247189121 10.310671741533092 5.402278491850352
Re 7.296184431616563 8.00239711305901 5.58815085136233
Re 9.832328954099285 10.033199701072704 6.564778069711486
Re 7.336346297251658 9.641929806692778 7.711382155761019
Re 6.503284293655318 7.467704550158323 8.037925445215674
Re 9.068204576628037 7.805271698657732 7.167973193770852
Re 10.644991047594194 7.6370354600297015 10.009365678338273
Re 8.505790881167048 6.613110381716037 9.310226913005588
Re 9.41913244956004 9.614037328232357 9.045463826927165
Re 7.364110209276006 8.608282288758858 10.219253383041014
Re 8.600409490138466 7.262824805255575 11.730114852199668
Re 9.841547290889897 9.261153293899314 11.47070530788191
