11
Energy = -103.01576819 eV
Re 8.824742640626738 8.816653929519896 5.360155844541231
Re 9.427757097743005 6.696988931474634 6.03664508501124
Re 10.546098660746786 8.532687935146805 7.299239832691045
Re 7.6400918055436975 7.065372719429207 7.763064490415895
Re 8.031345620407652 9.506203065625103 7.499055360633585
Re 5.889784634667555 8.592411547534326 8.915066364221481
Re 7.164216046400291 6.898548001302295 10.133018340475147
Re 7.110623000321911 10.846563224170996 9.250828945591321
Re 10.026553660911675 6.426185054695786 8.406162200818889
Re 9.115017637500483 8.410729902304094 9.454934174190821
Re 7.243487318119466 9.227373811785663 10.90154748439801
