15
Energy = -145.43280719 eV
Re 6.899022572612488 7.920831675323477 5.307895831075283
Re 7.9041416916764575 10.063966022591075 6.202248166136862
Re 11.259314880467388 7.854994420648953 7.621556576292156
Re 5.582349310652158 9.23334413269514 6.764322917421999
Re 8.896981660307475 7.911740520453184 6.896623538281708
Re 10.029298827607773 10.01371179947269 8.090570517379346
Re 5.590696553172889 6.738532815839735 7.041525689442162
Re 7.755388288323286 5.734161123801749 7.213559899491004
Re 7.504347436350015 9.458766900596794 8.538622460493809
Re 7.252808798779384 5.8561547390687565 9.580639415400464
Re 9.650633283284488 6.529249705853381 8.952657005458407
Re 10.699453355837296 8.640220890114207 9.936225131465884
Re 5.82478552886732 7.748100146310338 9.210895400718522
Re 8.90639335043112 10.417793573175508 10.302571358198104
Re 8.347830867095023 7.9818779395194355 10.443532498209004
