12
Energy = -113.48264249 eV
Re 11.302372447456232 9.4568027288076 8.910056161113296
Re 10.742125663407387 11.018033207201293 10.884605155659944
Re 10.690560285625061 11.919335641588923 8.643382114318753
Re 11.356230401711388 7.175747660801306 9.440982261122633
Re 9.956063525271015 8.655856887047397 11.02109049021299
Re 7.605747254001042 9.059010940578172 11.411764819650191
Re 8.71554233772657 10.41977965093279 9.54971925258989
Re 9.213026916247353 7.921853879834816 8.620538115460615
Re 9.41975306085832 10.143765227391313 7.237138188810923
Re 6.76933196521771 9.13500514058453 8.477535541937465
Re 7.104885037691356 7.3685930802392114 9.9539700229068
Re 7.827962552311143 8.444846572273205 6.559765777624183
