14
Energy = -134.03023543 eV
Re 5.950100702867415 9.834074240671129 9.96107116079257
Re 8.63478340197661 9.440077677612893 6.681403443635401
Re 7.7275034508425104 8.631527308591291 10.987371294933903
Re 9.985751908141687 7.556356653312177 6.963423572482059
Re 8.183723002908051 10.495531549424477 9.265548564460753
Re 6.450111321637596 8.907205988460435 7.851092913525925
Re 10.417594058067653 9.290179454874608 8.630207018255545
Re 10.091773807220255 7.515228617069983 10.543331856801837
Re 12.275084429015237 9.67931352910651 10.35959247197596
Re 12.038626696282643 7.50010067900417 9.275526496467608
Re 8.285926013457557 7.6852588847608105 8.717299336667585
Re 11.095924781251675 11.588503561227792 9.347922903014048
Re 9.165371721620367 12.214272130049093 10.589283909298716
Re 9.985914746696745 9.986809052643355 11.160957649542274
