12
Energy = -114.01230606 eV
Re 9.123822902466562 8.181986430066996 11.250548488766139
Re 9.340726488035244 10.50220503200203 12.136577490161091
Re 8.414817560204078 6.736339653675338 9.538832789273423
Re 7.556536120473028 9.813252281230817 10.537231207089713
Re 11.150519187476966 9.769196791776974 10.584530436444219
Re 10.255064417023494 8.04898353984796 8.752131640815666
Re 10.196674076059768 8.866725239720282 6.498144450245545
Re 11.119273841928306 10.472702181529268 8.142152658118231
Re 9.515920541233251 11.471661872669978 9.845522028794162
Re 6.8311863769580725 8.386693727135977 8.816229088246802
Re 8.568341412480699 9.805322662234603 7.9846745826806345
Re 11.91036474045669 11.96758279979153 9.821449768717288
