14
Energy = -131.92861568 eV
Re 16.859587115548553 11.184585652889329 10.837975466790413
Re 11.178874653145522 12.055579002492975 13.738149637166062
Re 14.688891128469217 10.715916946958824 10.903285971321276
Re 12.664239242051204 10.01409640421746 12.605875159408033
Re 13.374699414036593 12.478141519709311 12.216438290683508
Re 12.118531131378795 14.229649472563686 13.608378439255743
Re 10.296203756907913 10.364866592182715 12.0412823684556
Re 9.62553563349373 13.96367117623564 13.1103974643246
Re 13.07071108254353 12.151743172771118 9.764391286112437
Re 8.752131227083193 11.468899086166292 13.511480326840719
Re 12.410434733892654 9.572195883946975 10.38280070567669
Re 10.779491240795746 11.40621541108226 9.82323586020267
Re 11.152220897738625 13.274857727310994 11.363697154476686
Re 8.720863310169083 12.452817150367208 11.336815822658888
