15
Energy = -145.24108821 eV
Re 8.985353989277836 7.329665957003375 9.221482221702344
Re 10.66632647619326 10.147488004208194 6.924922224836538
Re 7.159120934087881 8.953988883804806 8.98412990616452
Re 9.74711187660878 8.052505751468999 11.36393539987862
Re 12.290931185470622 11.294485933904188 8.60588458700433
Re 10.57229420906917 12.450843599235533 7.645030626006187
Re 10.208803607771484 10.459096094876216 12.085438597683977
Re 7.62511338292071 8.35554608933659 12.65831466274155
Re 6.846316046216038 7.310876853619113 10.762813712388906
Re 8.809251274093898 8.356678833747843 6.947502809173791
Re 10.833645172022072 9.302777178052416 9.459800945219698
Re 8.065870341550905 10.030202499630164 11.159015142378124
Re 10.9681330675263 7.689554250383801 7.568751873580415
Re 8.855376030517354 10.668298143661403 8.437162287768912
Re 10.402872205036939 11.698791960940552 10.154603342325629
