14
Energy = -133.53410316 eV
Re 10.112700705271997 10.147999577739972 7.688859010611743
Re 8.639965153758085 12.102506085920211 7.422188429842711
Re 10.85549764115966 12.420430783785147 8.454265595498276
Re 11.9397427675687 10.330185773970973 9.523559289313699
Re 8.02595274450521 10.37170488248115 9.055271479767393
Re 9.974856915901187 8.902687229872669 9.944256036852469
Re 8.762265122872403 12.636935163891016 9.821242201583665
Re 11.001580459427752 12.060178820770373 11.004497438992157
Re 12.18438159394346 8.314464929735465 11.139808730753053
Re 9.031762027869778 10.6349787319914 11.430928749923318
Re 12.924950515869345 10.5907032104466 11.898759689479027
Re 10.103264365762067 8.536822205516494 12.513889450014462
Re 10.83563104151497 10.80349132182064 13.272367729273654
Re 12.315266538919587 8.854728876401566 13.537923762438053
