12
Energy = -113.54536804 eV
Re 13.404631500166964 10.718524697501925 10.54610197215984
Re 11.196889643525052 12.90641286475656 14.14399666375391
Re 9.559567186029994 12.924428067484657 10.066722704547878
Re 11.583350625645199 10.170634481393 12.021048422940533
Re 11.702500406716156 13.700243285512759 11.382567761287712
Re 11.611594870136747 10.707213630667416 14.648778599166434
Re 12.017865570415266 12.415421385486317 9.37401446305783
Re 10.005756558673534 12.088173544621846 12.279155784712682
Re 14.018664913412406 13.115012692534682 10.689453684518876
Re 10.37159798472203 10.723693909075019 9.965201463195132
Re 13.207081059971138 12.066498512293489 12.714994437175505
Re 13.68694577217896 11.428971200449407 14.99361171433639
