11
Energy = -104.14216352 eV
Re 9.700429914893242 12.004932188684203 13.167467806429118
Re 11.359035570756177 13.566684862308037 13.620277527991785
Re 11.017544294457437 10.130985035282597 12.315234161953647
Re 14.100187318941746 12.112514383324635 11.613432470669656
Re 11.457021178959344 12.40281915160755 11.295093247504479
Re 12.901614839360857 10.342835043478074 10.741128905669028
Re 11.86606241619172 9.708941986720586 8.652601945701624
Re 10.808568664009758 11.795563225598867 8.957931126061522
Re 12.74793001165837 11.705212498988779 13.437280324373505
Re 9.256848141978312 11.26346290248785 10.683786887320881
Re 10.210653903874238 9.097525683441676 10.203108135848243
