11
Energy = -100.54607644 eV
Re 10.64398461412765 9.105818598240335 8.334477031789087
Re 10.507686546144791 11.601340192519766 8.31051322201859
Re 9.192708041057978 10.37977065680926 9.990965407248618
Re 12.596414191910068 10.466962624049334 9.097905286875758
Re 11.876182782393542 12.630967520372481 10.10762206224631
Re 13.061359907857495 10.938680941976768 11.50332441148748
Re 9.396956398595684 12.928563392817619 10.107382218056973
Re 11.291811440838666 9.23855243169522 10.79098034562173
Re 9.212424580352396 9.302125166954385 12.359298236272576
Re 10.57535069198185 11.430528900879924 11.812023095317668
Re 8.038890893363119 8.370459662308173 13.979278771688602
