13
Energy = -124.13684256 eV
Re 7.708480760656459 11.538967060297468 8.359497979904354
Re 6.86419886073097 9.374390570589167 9.137525868544447
Re 7.236265937169499 6.798964641108827 9.058684019554502
Re 7.694064401545126 9.82089104756432 6.760893200283337
Re 9.047304663491673 8.230232607462765 8.088626210758518
Re 9.333398540764822 6.902993947386707 10.399179162092016
Re 10.050726597705808 11.678853883045711 9.374813281611459
Re 9.144631120223426 9.561000457531332 10.276466445233021
Re 7.22649319242655 7.97100662172822 11.104478107986582
Re 9.9032620496934 11.060358228325084 7.119470757750637
Re 11.192284574509374 9.5382460855717 8.542756982245157
Re 11.267563576535936 8.354668828529256 10.873847977645969
Re 11.292344361037514 7.130444589104499 8.864778438145047
