14
Energy = -133.9000754 eV
Re 8.59947825763097 11.654227466574154 10.157682663542388
Re 8.231312146235004 9.42757200798895 6.507757888238988
Re 9.50977141678328 7.5403011845549175 7.413527987669031
Re 8.287472164178915 11.64350053953295 7.725470916124058
Re 10.39248390645278 10.422717655463922 7.308684096587121
Re 7.542456774390554 7.395135866322594 8.756208336912705
Re 8.380188620327328 7.89015425642497 11.168931149059807
Re 10.229226146332534 7.01104675284495 9.82666478690761
Re 10.656441860620228 7.7215795534634015 12.125968606553089
Re 6.914473550802406 9.719907630800915 8.576184542702272
Re 9.284234013716727 9.331446203571728 9.260279782666583
Re 9.780113585582399 9.9628637631972 11.699897007062347
Re 11.606103201960149 9.111017529063222 10.31024276777197
Re 10.867920271470775 11.45020559019587 9.444175426444186
