13
Energy = -124.07932314 eV
Re 10.18481520861447 10.816288376421367 7.820136810446229
Re 8.967764665088943 9.270018073551269 9.175586498554061
Re 8.642915112209378 10.906011774770725 11.012243382723026
Re 12.022347204971995 11.233011563141462 9.632813406594376
Re 13.372228816495014 11.88344386798602 11.697455396159608
Re 12.179674623410072 10.40675595363607 13.18843632740726
Re 10.762663974862848 9.648906392982765 11.270908405318837
Re 10.526046447483683 12.020692725955515 12.425300751697598
Re 11.412389613495348 8.913832931962418 9.057662181966384
Re 8.34273963983684 11.96435045765334 13.173130497168028
Re 13.235477587067127 9.536137394976045 10.957517153303533
Re 9.848630810448512 12.409604692480858 9.517672535888433
Re 11.67626186332785 13.522652646834086 10.89765310684811
