10
Energy = -86.53265282 eV
Re 16.156988425621105 13.11995059982186 14.219192196140558
Re 13.731484311658496 12.491488381737867 14.44140551336392
Re 15.128848500948633 11.667453200734007 12.529185939093106
Re 16.88555274751616 14.844972019201075 12.6617997471617
Re 5.195550899289795 13.045937306205253 13.639879939039798
Re 17.324257998145168 12.617775398773672 11.957511196909932
Re 14.46678148732046 14.728968581583738 13.422582780694645
Re 15.157958314038963 13.756631631599346 11.260680262842246
Re 12.9765495777138 13.059204348527862 12.337303846191713
Re 4.294475040162977 11.274538826160917 13.712570918049433
