15
Energy = -144.8301523 eV
Re 6.798230016316721 8.235854771690441 6.68728401149908
Re 5.22007342526705 9.79912487364279 7.902609697866754
Re 10.55969151037235 7.83021329064045 9.780667617949984
Re 7.633877979150412 6.22446571480568 8.37346416612914
Re 8.499544325606049 7.467640007866506 10.820940925287633
Re 7.117167188743735 8.715052895587661 9.16030209328283
Re 9.294849360948433 9.979149910608372 9.555219110776004
Re 8.70312506996577 9.291199606215686 5.301078085095409
Re 10.647699025758946 5.4123109509208644 9.834493929516162
Re 9.198047127797663 8.378691607399444 7.569574052096049
Re 9.243550049971933 10.891239871918813 7.173141722210307
Re 9.901582391378795 6.023308622175724 7.712723495070656
Re 7.143317143913869 11.167484662872596 8.682646560127418
Re 6.941952697973603 10.676119865284045 6.296090995875912
Re 8.35593262861628 5.166783290152248 10.408403478997833
