11
Energy = -101.67117235 eV
Re 11.43843656898363 9.756147554893312 7.779843925048456
Re 10.827678191875084 9.042742026152126 9.924483736838871
Re 9.717931651699052 11.31760015800251 8.531070141147826
Re 7.462258020169102 11.875086137803454 8.622421406470824
Re 10.698161115021096 6.699456040827691 10.01298529435648
Re 9.768324710099767 8.411077921163054 6.702436407433954
Re 8.955489741804781 7.546811404299977 8.740070323531308
Re 8.799333438751928 7.772272598727289 11.475946716832583
Re 8.039997436715236 9.95576696887745 7.439204306253791
Re 7.125658674159549 9.101878401011527 12.02964686551949
Re 8.38455786819269 9.710066847985333 9.964502380200953
