14
Energy = -134.96433894 eV
Re 6.919611492791781 10.548570833106805 8.116679112574719
Re 9.328292612327864 10.46456410017856 8.4243405579694
Re 10.908106407210491 12.45896513519705 8.621705375976202
Re 7.036263248862926 8.202362830595694 8.403910681364241
Re 11.90864150562411 10.32402293657984 8.40696695272314
Re 8.527863286458166 6.457227201105141 8.147886592413286
Re 7.732275488574375 10.194401923716981 10.369742120515948
Re 10.24412302221522 11.337105098717478 10.632930166662842
Re 8.66597095639573 11.091521152225091 12.477259737397691
Re 10.211811578166461 8.113094783493192 8.061983890134325
Re 9.546120544276658 8.948807511265343 12.441887483952556
Re 10.967350053957881 9.049490246726558 10.393536590248939
Re 8.720118006042519 7.992330838931439 10.312522646536486
Re 12.550688672601856 8.0768984099717 8.438864927734652
