14
Energy = -132.92763908 eV
Re 11.170778700384394 8.41570643911219 8.800978176913302
Re 10.34902753055223 10.457578698114032 8.04281313835601
Re 8.7507365193527 9.207374382339653 9.527075012778058
Re 12.323467282882124 11.269197868668476 9.213113613991364
Re 8.080861595620643 7.908139223732758 11.406127113672856
Re 12.575613474816292 9.189454658910737 10.506402230920655
Re 10.477189516522367 8.290526537837808 11.454475645272579
Re 8.799676624108749 10.183917975055499 11.909511868115032
Re 12.526874036442539 11.47803825949181 11.775953453527046
Re 8.280417977260903 11.609937255055765 10.017939523465515
Re 10.941412610521235 10.135590182911232 13.037498192145067
Re 10.253292018057508 12.793022165191017 9.300827863612724
Re 10.328112986515064 12.453369349937805 11.682318654871075
Re 12.365792408205413 13.444871622787531 10.351711506323038
