12
Energy = -111.52365134 eV
Re 6.970695658833962 7.670999579799789 9.527471263807271
Re 9.121244876506701 7.153532242186654 7.775254115161842
Re 7.012465225183687 8.233805312759479 7.22504007941654
Re 9.860003830258437 8.964664806611731 6.404597820505154
Re 10.805388401313014 10.125739561423686 8.25362957817198
Re 8.740222178975257 10.640271317253081 10.025450356328202
Re 7.957142146919847 8.837141449105712 11.363918344309043
Re 10.862382444676399 9.579860875892646 10.586047794728856
Re 8.174255308063124 10.416572171800768 7.27358629925872
Re 6.585111115011437 10.049193718870335 9.002678502749594
Re 11.238539661093165 7.769032912655137 8.80020086470953
Re 9.667442269919764 7.418098656877483 10.545083905929841
