12
Energy = -111.22849178 eV
Re 8.81603745395326 10.677314476384018 10.082171799680657
Re 8.651063712817896 6.722434141132635 7.280340737440136
Re 6.684587141097993 10.160133187511118 8.802999861967931
Re 8.838295021123844 10.836525348623978 7.644875636195101
Re 9.998862666898988 8.54176779566271 10.781018091378254
Re 7.433015374265813 8.655003699707143 10.758563422739455
Re 10.033795326756314 8.787407442752157 6.699779764465743
Re 6.71780441272953 7.5800539032195395 8.640939827617828
Re 7.466710643304831 8.912117135145511 6.6953772701564445
Re 10.898903429041978 9.96531877388883 8.821056526368807
Re 10.631976349536382 7.403381382058201 8.667636061209402
Re 8.628230361397495 6.557824820990313 9.924523429083509
