15
Energy = -146.85515135 eV
Re 10.600631404571061 9.436872403325275 12.159066539479664
Re 8.556444783851319 8.752325483026551 13.242598027126366
Re 7.870363705622071 10.764381879948125 12.210756816690148
Re 8.758128426741777 8.149993040159618 10.920206684929497
Re 7.949230403956605 10.145979050566817 9.811372886528945
Re 9.962062617089217 11.547044020374809 11.170849603470293
Re 12.432757962875561 11.055197211546796 10.466978628099803
Re 12.398881891024738 8.78151565482371 10.82533585382255
Re 10.49577376809545 9.766774557633653 9.303511299919577
Re 10.05138794869524 9.764782239060182 6.7926760612152535
Re 8.588872537524354 8.388076043546524 7.968228684869979
Re 10.095967156819379 7.21148948132174 9.24162970485596
Re 8.69800864487926 11.369698080476917 7.772344959750318
Re 10.368511224286147 12.587102765252414 8.924129356088084
Re 12.177687672769983 11.38636266639052 8.168882318075422
