10
Energy = -92.2486065 eV
Re 8.436641054875896 5.810956857742212 6.19152850177235
Re 9.49716037484936 8.654866257648637 9.276064897785034
Re 7.467906508630283 6.874994197046055 9.086004330932266
Re 9.323042975189958 10.703426325491561 8.110619564552552
Re 7.632664198740633 8.872980352104 10.794424784274653
Re 7.24973768833722 9.218257898590961 8.270823554896099
Re 9.606832380877037 6.337072972772772 8.084690268842948
Re 6.754527303095051 7.252287855158006 6.7409521428371635
Re 7.839553634429232 11.053495493273747 9.946556740643436
Re 9.041372047480985 8.429790912338836 6.756525494809901
