14
Energy = -135.56757855 eV
Re 12.48691657291954 7.979229525023323 9.596689649476838
Re 11.62499507510809 9.259107311677315 11.359308030697967
Re 10.227674437261538 7.62928825423841 7.4700795486324605
Re 11.493925475850547 9.645566098201586 8.29574104675897
Re 9.738833081856543 8.338612568950658 12.536649171636855
Re 9.88202908224985 8.17693858499614 9.857856739737263
Re 10.05195451746037 9.783194559766374 6.309654527880384
Re 8.199463023235868 8.838255680751855 8.056817357809598
Re 9.230990863270481 10.55255090431365 12.527919772399152
Re 10.055504438588931 10.762038697559685 10.127019926611704
Re 7.900688148512676 9.529635700279664 10.8077733761523
Re 8.971263470837576 11.18225371124551 7.951616127346769
Re 6.453013379686487 10.293175766276004 8.995524099576482
Re 7.761938542969902 11.98200042689921 9.954798107356712
