14
Energy = -134.08478356 eV
Re 11.387532946654062 9.401422789070276 7.954799297755305
Re 8.958841649433348 8.408523237162054 7.921588993282458
Re 10.897504764908108 7.023719684327361 9.00685726405867
Re 9.529929699806017 10.45501249849336 6.557938061265687
Re 10.817569878010547 9.151581954529433 10.285942674621731
Re 6.839793261923746 9.297918192925144 6.779662801626781
Re 10.36402893763558 11.520305300788117 8.491420962715932
Re 6.648808885383829 7.309561858321384 8.240479467192415
Re 9.76535056868509 6.975931739622414 11.231141058267598
Re 8.721145435640151 6.039881524197939 9.182242573908864
Re 5.766286926337356 9.625539065356785 8.832563820833919
Re 7.411412062781951 7.673753244987902 10.549360986113681
Re 8.549756937802934 9.646052070950958 10.183711651515802
Re 7.860803752792877 10.947142258321474 8.30372751328172
