13
Energy = -123.99042837 eV
Re 7.670238944014294 9.239315131399263 9.567589026056043
Re 9.861863434741554 8.58343209538918 8.772568062687176
Re 8.569760985303665 7.03548932942724 10.783377019959218
Re 8.264781597156274 11.05853663752621 7.920385425435713
Re 6.281672920384763 7.16993471281806 10.20147743615693
Re 9.885169124697477 6.198298964047725 8.98402231050207
Re 10.346662894749604 10.353574758119986 7.183010461054408
Re 5.139835528733903 7.490764212808358 7.780422512551685
Re 7.700584808240415 7.035897223489313 8.21375987185428
Re 9.013428226199673 8.501008506655166 6.304614703478259
Re 6.806376773534419 9.21903730747733 7.088360062531636
Re 6.587511872344338 6.854758835647247 6.043771933776409
Re 8.964223446267448 6.162495958423105 6.155516052936238
