10
Energy = -91.11148744 eV
Re 9.168076362613403 12.505322471582597 9.754673635387626
Re 8.679861967631574 10.446542257887723 10.836990929467053
Re 8.614153354029206 10.399417087589942 8.352255338690078
Re 8.112279798224298 8.205799243283252 11.85696430758062
Re 8.13422306574727 8.179689146843693 9.33012294864243
Re 8.152889467673607 8.270778991888792 6.965880516487231
Re 10.856133717964287 10.638703731574136 9.563226996721143
Re 10.328423762360936 8.440307122575028 10.766736550413402
Re 10.351992996319508 8.529480935464369 8.218268546556065
Re 12.462929707532014 8.732807398650365 9.588834188475719
