15
Energy = -145.03283131 eV
Re 7.627311375622107 9.071188844161433 11.063737111578657
Re 9.383771327692099 10.858515988488573 7.524274489760636
Re 10.02451017674727 8.72196649053568 12.63609254940354
Re 11.344413280565758 11.478111765611343 8.87039187047195
Re 12.006977892935053 9.033160319313001 8.9124729612701
Re 10.013875959649331 8.558857107083671 7.497832201234285
Re 12.135799192113543 8.15820813461476 11.265836857789557
Re 9.911986817190447 11.961582927682983 12.394251935015891
Re 11.291298764115544 10.420829994236097 11.24371374102958
Re 9.811902302993115 8.46118638441891 10.136266401191735
Re 10.13312858249118 13.083634638924979 10.365282615708416
Re 7.733445161583968 9.193552613320591 8.601042216298413
Re 8.922513453104708 10.940656542139667 10.014149879897268
Re 11.747730791478146 10.216544053399229 6.76498399575009
Re 8.27517492171788 10.205844195178313 13.073511173599572
