10
Energy = -91.94461118 eV
Re 7.772242528317999 7.853670923980375 8.768287019492627
Re 10.172561351866843 8.21288379862619 8.81032831790375
Re 8.725111955384444 10.314044324234297 8.356796780197206
Re 11.095194509523987 10.516011918316384 7.81871212244652
Re 10.308507485765428 12.593849494571618 8.611484528661332
Re 8.691167719397257 6.442056080280424 10.42112173665498
Re 10.402357029890192 7.864983267676042 11.203772674382456
Re 8.438246921809188 9.21033462968872 10.67973637666374
Re 10.730491837241656 10.32405464813562 10.212911973329767
Re 8.816718660803136 11.820710830974416 10.269448428509401
