14
Energy = -136.83466688 eV
Re 8.946699001344808 9.2482563549869 8.325848747595831
Re 11.66460145783342 9.31622382500906 8.28987784702771
Re 6.397702097856389 9.261217459098852 8.538657918673902
Re 10.410905756320618 11.464531663879987 8.476437383739233
Re 7.680156004243477 11.461316774026404 8.528292942656435
Re 10.226945756468067 6.849672207884551 8.301324369022106
Re 7.7405414062836915 6.882866091474605 8.49788943805671
Re 9.069258797933236 10.717647039895764 10.434743711552706
Re 11.573912436540965 10.694004690167583 10.427600615506853
Re 6.518177071908498 10.67396163939095 10.490020074260384
Re 10.460958374145324 8.374554401695415 10.24845955066463
Re 7.737242714938082 8.432217718358496 10.445345982445605
Re 10.535722219973856 8.313735336374384 6.502213715611573
Re 8.992052904209299 6.2646707977571685 10.44816370318592
