10
Energy = -92.1274814 eV
Re 7.258011225200595 7.078897136774383 9.272662755693268
Re 7.904553036152235 8.732176191929904 7.289624708852308
Re 9.310079005392753 7.453565732791339 10.779270456562061
Re 9.48532355351847 7.078657282647155 8.303954632633276
Re 11.371601489763783 8.364992029069624 10.954817272312907
Re 10.040311591087377 9.32958487086064 9.215637928525489
Re 7.574935774699276 9.379074936692374 9.785422780612125
Re 6.465818930136949 10.775247998610968 8.252019434104268
Re 10.202611867566885 9.10808147059964 6.722131148119845
Re 8.705122226183923 10.988533573505151 7.7684350189654285
