15
Energy = -146.58709387 eV
Re 11.81297232437535 10.352422046005785 7.446969477205749
Re 11.832321413044426 10.454628023822684 9.775578545107845
Re 9.781788092275585 11.604818233740046 7.938819187101627
Re 11.224237506923824 8.05757403950409 8.228022660931218
Re 7.650951826491859 11.109103847662018 7.115320179324811
Re 10.966162239852395 10.082488135037885 12.126563604245895
Re 9.569590634448595 11.209132571892564 10.382141076854795
Re 9.436609610215184 6.699356686537799 7.608149971803147
Re 10.240687295774372 8.499468389341494 10.433049447439014
Re 8.407918506248764 9.663534751020595 11.884224562465722
Re 8.901540496197232 9.113533396341317 7.964752544181827
Re 7.355205671899301 10.733577735824538 9.396125939788393
Re 9.42325333126611 6.093991659643458 9.842244945459516
Re 6.262256295666013 9.265795539669782 11.015080825143212
Re 7.865113103355621 7.8583406721149744 9.73732516572694
