12
Energy = -112.99289301 eV
Re 10.934434612632424 10.13368137553866 8.032643521429893
Re 9.78047882531547 7.515593537596666 8.345343778366328
Re 11.49452899273544 11.53562629889789 9.864571336752896
Re 9.148232270199976 11.517164305035667 9.500005094497421
Re 10.551486732384793 7.6618538261217894 12.038431465221707
Re 7.365925145002493 7.535531014760432 8.626755794092134
Re 6.751922411742251 11.210055464306622 9.131759702055202
Re 10.19096589106736 8.57464504241299 6.314446761744821
Re 8.839165177357746 7.053331479627049 10.771059870097082
Re 7.454711254528183 9.311314136880354 10.26521937005892
Re 10.007397988699099 9.2176425486101 10.22638568364602
Re 8.490360295357547 9.74154023360086 7.8959879866835045
