15
Energy = -145.55142293 eV
Re 9.131172854751147 9.424678855809779 10.511720077362614
Re 11.356491220211403 9.934485812444263 11.444633759195712
Re 7.924108957395866 7.389593380188568 11.184780291625257
Re 10.58641674602107 7.421220627643745 11.125616283653542
Re 6.540359156036532 9.29394870888104 10.119209250071622
Re 9.140628456710237 7.212399175283134 9.079016095513865
Re 11.38457511947346 8.886795454121192 9.257564612011668
Re 8.149324221696729 10.921934378721321 8.75524863926316
Re 12.239306373522734 11.326958545746521 9.639771772872676
Re 10.03821593592353 11.905383048978305 10.380700438232385
Re 10.540632334341822 10.870145730915294 7.965372228419252
Re 8.567341933623608 10.570257277514688 6.2903712066480795
Re 7.572551394326402 8.692692147495993 7.769721931971227
Re 9.90281950663505 8.753077681485953 6.889999348854335
Re 6.554560717793651 7.024934174770077 9.21477899276717
