13
Energy = -123.31406527 eV
Re 9.931707076934984 8.686058679760327 6.582058527289121
Re 11.854542879151992 7.998477615681746 10.015419720764017
Re 5.984661129109148 6.7313510535765495 10.666520120669452
Re 9.691359044966394 11.327221891788419 9.55693831120462
Re 8.051891264417975 9.521263990462531 8.357619848364145
Re 7.3674982092862065 11.050432770485136 10.17897517525683
Re 7.657684304996022 7.854224009234833 6.5728432978670925
Re 11.517426770565384 9.72671592727604 8.453734671670146
Re 7.501097143118909 6.993794956088736 8.82230340230854
Re 9.73625611062547 11.022637825836657 7.160694323221661
Re 9.731923994921983 9.157802278769452 10.50565922054637
Re 7.347122710605467 8.709679088151779 10.757554306514525
Re 9.881771651882858 7.488019147415538 8.624638251200578
