15
Energy = -146.41941929 eV
Re 9.486864573755163 11.021170812335063 7.33583293818312
Re 9.169609071788814 11.636026434490821 10.615482621249974
Re 7.528502245768759 10.907054908970114 8.605100621903073
Re 11.172519080345955 11.377751705603321 9.043241028451517
Re 11.96170599567866 9.966051771666274 7.158374777115989
Re 9.948453107331673 8.571161254273779 7.14817858976752
Re 7.547802255946956 8.662139026633223 7.67251840299695
Re 7.598484606616856 9.358006997548586 11.282073521516951
Re 9.375894609624462 9.415485247404662 9.47132013344544
Re 11.814303709326369 8.86458819577622 9.27840895699668
Re 7.5763322925149374 7.454188964687152 9.723054280010528
Re 11.12098511202163 10.100192044379677 11.40699560052365
Re 9.100715012891696 10.59538806709004 12.768496992845643
Re 9.726047210356203 8.155090226537816 11.804569796617944
Re 9.95756651377989 6.976971074510859 9.798417841561983
