11
Energy = -102.96633149 eV
Re 7.080520267665987 9.391977004452158 8.557412195767089
Re 6.392819988105579 7.955062929026282 10.297934399617663
Re 8.797465018393549 8.77306622885192 10.376025297606548
Re 9.216451769160027 10.961559855168156 9.184619193703547
Re 8.557126712883178 7.614096206194878 7.986408118326045
Re 10.428978106521685 8.463571771182508 6.678238853553514
Re 11.87428397503132 10.834674459733002 9.982301634817766
Re 8.892464685531682 10.250108751918331 6.936343952376304
Re 7.927341536713951 6.327472358584077 9.805729189684733
Re 10.841931972013764 9.036135131880688 8.955469737449414
Re 10.21592849870897 10.577309362996852 11.434087356022259
