14
Energy = -134.23942396 eV
Re 11.683486100364991 10.21723478312662 11.11504630161409
Re 9.010355463184869 8.728667340689585 11.794797831808395
Re 10.626393143263599 8.393469501843787 9.902740850193206
Re 9.48570011129163 10.99322673103182 12.055806845896386
Re 12.06211873842766 10.143093489202077 8.720090606718628
Re 11.422496083300784 7.704685847930945 7.683545497322066
Re 9.273125321513279 6.6599894092574425 8.068055304760684
Re 7.947395416289558 8.364783226501098 9.40081551049865
Re 7.638335597467015 7.908280867477768 6.787380057132899
Re 9.537206156031669 9.234096848969989 7.569735559853287
Re 9.910082976248585 10.895881586726256 9.517564495253996
Re 7.549500309626045 10.566653715816352 10.514620171431176
Re 7.297049776273545 10.630445120148794 8.143970940275949
Re 5.877744444163928 8.838342058068525 8.071424983171694
