10
Energy = -94.50032469 eV
Re 11.528768285274213 8.871847439717873 10.048921067225228
Re 11.13486541980312 10.567447183014695 8.247340079278732
Re 10.742569435308749 8.220045170143301 7.86623477293078
Re 9.774900129004333 10.514292437597296 10.236707644074894
Re 9.128104602157439 8.085663755115899 9.83095582403734
Re 7.12094088600469 9.643521079709904 9.997152172725201
Re 8.735263072957553 9.777912514161997 8.032773799949501
Re 8.088640281023743 7.349208850344397 7.627165510244945
Re 6.335136078306409 8.99195953556536 7.814024401458588
Re 6.72891681015999 7.296207034629403 9.61682972807491
