13
Energy = -123.36325171 eV
Re 11.177111724451496 8.999740487199416 8.511099332333979
Re 10.14010500648345 6.6733567520147465 7.865078041509619
Re 10.481690413740521 7.673310409423278 10.500031937903122
Re 10.19695106654842 10.08417497072369 10.538676322636684
Re 8.7480362722486 8.726911382730338 7.781876917930971
Re 9.63290372920064 11.045820165674701 7.930475711642443
Re 7.864180223881853 10.272349261706099 9.582851854366105
Re 8.249448322401308 6.971914971263475 9.535662873422945
Re 7.341884859808443 10.872686551647663 7.222853978172759
Re 6.576641661639009 8.4935963102952 6.519602646246792
Re 8.473337103407946 8.644584704541634 11.48909412587547
Re 6.351854995528172 8.43431863679151 8.798368104553736
Re 7.86908232208386 6.334158993722969 7.163533221582372
