10
Energy = -92.44638396 eV
Re 6.294246694021161 7.030982533063745 8.093380772156134
Re 9.376659015946888 9.848971475251304 9.928042267836126
Re 8.85786153533691 11.485271691533296 8.38444932702618
Re 7.408992181562864 9.34647903092744 8.223069814782054
Re 7.5363809962966695 7.940757314707554 10.170248124845445
Re 8.365562648552585 5.809868019838917 7.1337825717376555
Re 9.459803219655704 7.915133577638275 8.404499390552013
Re 9.66467454245012 9.877655990875418 6.935302753469153
Re 7.903166171873752 7.972712047012568 6.3115854200271695
Re 8.14963941977514 5.789154744622995 9.432625983039856
