10
Energy = -92.23640517 eV
Re 7.9064366368506525 6.846669915236375 6.98241107274218
Re 7.679356475220257 9.081781539607682 7.442907493189818
Re 9.814489944699726 7.8860192587789735 8.179974833398008
Re 7.827256166738805 7.482236870325026 9.52583689796897
Re 11.115510614038143 9.701780961332636 9.202037272341801
Re 9.956138563942815 10.420247137143582 7.2359446739991125
Re 9.76117219809264 7.556890775352255 10.950665084271982
Re 8.08312157012431 11.491630617725132 7.999601697162214
Re 8.735692743075191 9.82324707237432 9.751645027905816
Re 8.26726358903947 8.860945399572026 11.90110216205614
