13
Energy = -124.74505422 eV
Re 10.624131684185476 6.579507280170391 7.97487299875574
Re 8.228284520878242 6.246877703573179 7.47214251855986
Re 9.170507269687313 8.0865389252508 5.9209745664694475
Re 9.132511801525588 7.377756360274496 9.768752219988565
Re 10.473053603290793 8.88636665173559 7.859386332120178
Re 7.175760223651107 6.307860049072276 5.30365123957986
Re 6.801529695991524 8.566477095701376 5.42256900757967
Re 7.777516432368587 8.802104243590527 7.78027048397495
Re 8.772859090535007 9.732011690678407 9.8471174312774
Re 5.755176100079771 7.2262382880726985 7.387558570406186
Re 6.827889450496392 6.520571318679953 9.566994480037739
Re 5.345627072732923 9.43022027445772 8.140595387201458
Re 6.454466593695374 8.90709818843613 10.113400005296823
