14
Energy = -134.35880775 eV
Re 10.445745465002929 12.933757076621736 8.863086314767056
Re 9.188072710542007 13.399055422060798 10.750618212706478
Re 9.483693806951118 10.896343303613639 7.9659641753922275
Re 11.872388657893755 10.9495914026908 9.750611302230531
Re 9.022248832095176 10.937447787807546 10.318083864021299
Re 11.08544979725487 12.289733178943324 11.708127207104436
Re 9.382505198986989 10.933904967282766 12.983961360903374
Re 13.14156142698456 10.118366777990984 11.6451967254428
Re 8.214898182398818 9.2557547496101 11.80959228624981
Re 11.35388602538885 9.415830863343531 7.851013830488375
Re 9.928528809415717 8.250979793182056 9.316762546183277
Re 11.865624420494976 10.97950136972535 13.511745734037444
Re 10.706886076240757 9.305199552749292 11.396814081792417
Re 12.35683044923938 8.305411496523199 9.982390489800723
