14
Energy = -134.37963758 eV
Re 9.030950737156521 9.31938407903491 13.083667552980053
Re 13.166599181435302 11.900396807178797 11.151321684161308
Re 9.579927369758307 8.753830310714259 9.217644134865337
Re 11.06243848841367 12.364214385550353 8.349130110469552
Re 13.39082505435066 11.366885084178605 8.692249369905396
Re 12.958398612261112 13.567262344734822 9.357900867360877
Re 11.211370336184567 10.55714573985424 12.435300661320658
Re 11.481645850645297 10.343231575760012 9.903712650931327
Re 10.952285875987346 12.737049984577128 10.706557961875205
Re 7.5598143729034435 9.69629914303367 11.179048959154104
Re 8.96623079040523 7.644658798848742 11.223203729646071
Re 8.952353550220556 11.533107897709296 12.032885240410994
Re 9.038269802483114 11.0621131955264 9.569137759292344
Re 11.221051297686968 8.330528750407522 11.5215266780916
