5
Energy = -41.19863546 eV
Re 7.565034692459305 7.887450470203601 9.061926057193864
Re 5.794220932445279 8.694051521549458 7.874112019660314
Re 7.359212620698762 7.622095104207674 6.616602248615254
Re 9.549999877429261 8.516514003846073 7.588471716400187
Re 9.205578780935781 6.425433110718617 7.837929928344225
