5
Energy = -40.93879057 eV
Re 7.706632922813016 9.385593998865494 7.512588277581773
Re 9.42472151533199 7.777341033141242 7.744293427394006
Re 6.7364834320095435 9.065471595860709 9.456928998627417
Re 8.530346308765136 6.178969311070223 6.527242954338002
Re 7.047297508417157 7.038105748399062 8.20442802939553
