5
Energy = -41.44453834 eV
Re 8.520023390204521 10.4913916404208 9.735019284016902
Re 7.581056872694408 7.988329091480218 8.0289400278216
Re 9.236490843135972 9.63363458339825 7.652468713522014
Re 8.58382171988846 8.178354745737606 10.147308041117483
Re 10.608606754563095 8.23828951944947 8.966263514008345
