5
Energy = -42.08590686 eV
Re 4.345301137805395 5.16090454756278 6.491421080926369
Re 4.863151173325781 7.173002223907525 5.291537186527165
Re 6.809102061884226 6.506421397109736 4.544482562662561
Re 6.194483224984859 4.10730536846518 5.975102693652621
Re 6.86484978327504 6.113075323045571 6.777054098034714
