5
Energy = -39.71226362 eV
Re 8.462893630702476 10.25015736667568 8.448544524638562
Re 10.145525384930627 8.604827224317793 7.797827580095154
Re 8.332501920511788 9.050813770192319 6.544009429606539
Re 8.021896346230308 7.805656782032423 8.983590971855975
Re 7.264887409032342 6.504234707118596 10.442147436466955
