55
Energy = -593.15575296 eV
Re 13.359123735101539 13.670089183149784 13.13773891533279
Re 8.94784128029417 9.569384416204873 12.242475639123844
Re 13.2640392671527 9.606008387813842 15.496640338088044
Re 8.917265417212413 13.579541532439192 14.574207464715625
Re 13.484000646455746 12.249168839438891 10.802675122808152
Re 13.241505149543078 12.253865287107148 15.596975533143747
Re 13.267481761725982 16.23742186856417 13.17558932455777
Re 13.411561507046995 14.96328169018734 10.848397830741018
Re 15.274783585629256 16.237978494126782 14.652031357511945
Re 13.369494906656783 10.826626564252695 13.142346850932812
Re 13.422638187511904 9.523948484439336 10.853070617956675
Re 10.906491387261784 13.483110566038025 16.274590621425105
Re 8.920090033223566 10.898634706518926 14.571815339837793
Re 15.550330024181488 13.603473672161865 10.108730104867977
Re 8.735461464275492 12.241972742613084 16.67677324511451
Re 13.293257041548587 8.255948627547687 13.185326624157199
Re 15.555494126225431 10.897663477962901 10.11263626834563
Re 15.380824937926377 10.870273167834192 14.84944940981853
Re 10.98971796649717 12.245194866518291 13.943787341265086
Re 9.059883039841456 13.628182974027277 9.874998861213376
Re 15.289134505466459 8.266192924655227 14.667903401772818
Re 11.033933943052158 14.95855878483714 13.835579441179307
Re 9.06524020665665 10.839069116962369 9.876763715777916
Re 13.250928159967312 14.894043948608369 15.493018183853625
Re 11.048217172163307 9.529621350013407 13.84462714467692
Re 11.201447127034564 12.237711423031199 9.11375520491027
Re 15.378949053887915 13.640945168197566 14.846964310020367
Re 15.524116412419682 12.2535984176368 12.407730552899789
Re 15.681415822272657 12.250828624274392 8.023667394199114
Re 9.130181666169246 12.231890409898016 7.636837583299861
Re 15.50621012319979 14.91178054288859 12.525047054492417
Re 11.15912294278478 14.897983690459546 9.193924795214933
Re 9.184580104885919 14.802327064047127 7.598925766947133
Re 15.516562005389266 9.589131115196903 12.53434917305626
Re 9.10346443634797 16.204835936692664 10.11282701751072
Re 9.204800833731362 9.661175408836591 7.603687085982043
Re 11.105461096572872 13.700810514116661 11.561776647063834
Re 11.178012588537852 9.579961971285242 9.198993233779895
Re 11.306318253818532 13.561376574685655 6.92949814436623
Re 11.186048023542549 16.257978941944945 11.497009192905328
Re 9.11938376602066 8.265951785109475 10.13293780661475
Re 11.30856385871178 10.914509761881728 6.924467482958149
Re 11.110884187638598 10.776629202038395 11.56763501604816
Re 13.460845226146356 13.512512387441458 8.456039570925926
Re 13.377192326473452 12.228798687967098 6.248288712619387
Re 11.208302521687795 8.224823286196047 11.509982272857377
Re 13.45915096579504 10.97037928013063 8.45825201983017
Re 15.31032915600882 12.25926743984203 17.065277865714176
Re 8.932994247716739 12.235856365312001 12.261780091132893
Re 10.907947348587706 11.010830579242917 16.278794251846712
Re 15.260445023395263 14.81130791459267 17.121179958240543
Re 8.93914955707992 14.914479873353615 12.231458506254569
Re 13.184804091614637 13.664141604534022 17.721522734759414
Re 15.272531254870028 9.705947829796152 17.128660899122245
Re 13.194533548207705 10.845459548514862 17.723067979376548
