5
Energy = -42.08738101 eV
Re 12.019777475001879 12.296114656230099 11.684463834114187
Re 11.241798888800142 11.578580732619574 9.682934089822087
Re 9.898536226630767 11.894444807089148 12.04127891194655
Re 9.914289881707253 9.68122650710193 11.120247867423872
Re 12.03794059094994 9.662194120804442 10.583550291019742
