5
Energy = -42.13997934 eV
Re 7.734989872718765 8.988969511215997 6.925300370909711
Re 9.146284485266031 8.64619100927617 8.675967093194506
Re 6.4429443949717085 8.363542737473049 8.689687179157684
Re 6.821918597906264 6.52430330202705 7.505617166702825
Re 9.144135149137343 6.767265940007626 7.493700690035271
