55
Energy = -584.92032428 eV
Re 11.833604511769945 12.173234241961895 13.194888525676106
Re 10.89658302428477 13.84572935389102 11.360147116330454
Re 9.384184712804466 10.956441332351666 15.092385760957391
Re 9.154838430868102 8.520399162647024 14.209274964139553
Re 11.6657471522668 9.89774471435394 14.974225580607873
Re 8.279410040118638 13.63270815896261 10.527419292932983
Re 13.788491108953492 13.468232058909756 14.283936295634716
Re 11.496841210943229 16.428016228523106 11.73742991368849
Re 13.601983654050683 8.2701848553981 14.685579597984875
Re 16.138682429762845 10.435612327529075 11.045780227054184
Re 9.42049155334353 11.115727337363271 10.274223969612855
Re 9.005782520092197 14.948001145089197 12.764829997584421
Re 7.183235793640009 9.86260406612978 9.343597977289704
Re 11.50249719291369 14.830886864866299 13.735602463280012
Re 10.48059055519611 9.945798019637117 12.525844806384558
Re 10.424010741091012 11.160883567940376 7.78260277417944
Re 14.284048361090067 8.938004004918271 9.753887422699108
Re 13.955686004775995 10.798123431873659 14.38212839063846
Re 9.091613521152473 12.184790442743385 12.7412522754726
Re 9.472072626588764 15.888497167683438 10.553695915561033
Re 15.651943646161842 15.186161735833542 11.024245742991502
Re 13.739564514656974 13.316213160452156 11.467786620378607
Re 16.023428144973956 14.551129598766352 13.50061879832561
Re 15.607900991427528 12.162882011660201 12.97245044022455
Re 7.989395834327474 11.946466057628646 8.365806013261462
Re 6.769840285810634 11.72000878662247 11.06672341233821
Re 8.150738187957351 8.006011968412317 8.057449835582679
Re 6.960051566112702 7.795047334501164 10.83599189612958
Re 11.441288090754222 7.719974612636858 13.592912858801338
Re 10.748031846789067 8.588834939328716 7.900942189154792
Re 8.545448577548497 9.982970688269655 6.755054100146782
Re 11.144252587393849 6.758986705619873 11.128595507687447
Re 16.415946800758462 12.899495344004782 10.762105901230738
Re 8.886778693232065 7.021265188503188 12.341666638149006
Re 14.49427942687488 14.238302144433689 9.004142239466486
Re 11.752469861462645 9.320259946986376 10.264057895319873
Re 13.615937716139111 10.605262518712154 11.78255566029318
Re 13.386079691300063 7.906497560198759 11.864214490713167
Re 12.00950306038491 11.916001854768847 10.035248664891357
Re 10.286336057994102 6.3546459503895845 8.829172582390141
Re 13.670539776023954 16.760514764671687 10.516298623231748
Re 12.580853148913173 12.945470214581503 7.884766497934503
Re 10.134885361300125 13.522461835655756 8.799412179987204
Re 6.921202226064407 13.319927887976299 12.924372277623752
Re 12.88099684098215 10.186486125569044 8.039946576665612
Re 12.612204645582874 7.230431136750995 8.984260912437456
Re 11.878520395510236 12.366012110761076 15.714498850812193
Re 14.495579966804819 11.712239815989875 9.470017709666237
Re 15.275116001180166 9.07039743830336 12.998860280199597
Re 7.172628244522822 11.033203297112914 14.065117469187463
Re 9.348561133723202 8.354409788833218 10.211367035441356
Re 9.857984257017756 13.400067843283969 14.882866994878514
Re 7.858489618586346 9.685585311124672 12.144053584699096
Re 12.250034131635747 15.033433662606509 9.560793211553467
Re 13.87040172593202 15.56893037782416 12.770501242043387
