6
Energy = -52.99836607 eV
Re 9.39484724369567 9.367364523275299 11.056782528238026
Re 10.873460387183075 9.456974328042651 9.296505193284498
Re 10.271932662282303 11.679914655776633 11.87048475595403
Re 11.52256143729204 9.745425260321094 11.824016124547411
Re 9.6480783765061 11.419530158718793 9.352779693042919
Re 11.768780106524023 11.790044750344764 10.106856331356989
