6
Energy = -52.07456389 eV
Re 9.066827482838889 7.760258274543618 6.52470480444977
Re 9.597683694341718 8.964489736606973 8.932897167604004
Re 8.97004694503337 6.6910411843261635 8.529917114511736
Re 7.5531410451748355 9.831239840780468 8.89063025620946
Re 6.898797407854899 8.081867691885545 6.884348470229187
Re 6.917469264262912 7.675339244272603 9.241718592795543
