6
Energy = -50.77538985 eV
Re 12.347734807863489 9.473982162575501 11.709681252850206
Re 10.12165321853396 10.199804143191413 11.373357062212431
Re 13.208355531857501 11.479817684078755 11.335729950054164
Re 11.320137913360453 12.070762478545163 12.457372542459417
Re 8.870255499675011 11.40643527465281 9.793859304791951
Re 10.907585439635081 12.310522223019843 10.159398152006608
