6
Energy = -52.19300046 eV
Re 7.007775462919352 8.816188382828244 7.2371367665262
Re 8.878400258369766 9.921685947944512 8.256068333720334
Re 8.786081150422241 7.24208103936614 6.955000347786787
Re 6.836703297028503 7.125497517791606 8.737502332992337
Re 8.038909494937988 8.533369382786836 10.01908652161985
Re 10.174259336322265 8.083306718666314 8.517334707970821
