6
Energy = -50.64069489 eV
Re 11.32716778591351 13.082850495641239 10.721586315473987
Re 10.528865771863614 11.151495509959311 10.343361823413058
Re 10.982700024800863 8.678522039783326 9.449787337467907
Re 8.371848378775955 9.592545592455755 10.31774225342028
Re 10.169991026841107 8.887491139821648 11.58472608274285
Re 9.45607726695237 10.02766490661002 8.32105701370196
