7
Energy = -62.27957272 eV
Re 10.166980655583908 8.563495034807149 9.723741188186986
Re 10.624601663024382 10.31513055710704 8.253379813611241
Re 9.460163240412845 6.75654265400699 8.351236005975178
Re 8.027884611631332 9.485486730130877 10.33060697320998
Re 8.744702959688803 11.337416615121638 8.979193427384534
Re 8.277875290285166 9.095349855051143 8.005213163861189
Re 7.400733526457348 7.153731706854357 9.063735091481208
