7
Energy = -60.91169928 eV
Re 8.346168807579371 11.541642653063903 7.655258955253311
Re 9.058466056174906 9.119636969791788 10.150605827053676
Re 10.149819709681305 10.28762562233288 8.311582690583995
Re 7.712435911826546 9.372066580722239 8.212848791241468
Re 9.309092724699667 6.783658535073766 10.387230088405314
Re 9.559694945485155 7.808527430319158 7.9951943625855435
Re 7.585342556210111 6.807862920353327 9.008299996533342
