7
Energy = -62.33671815 eV
Re 9.616738756376577 9.201071737075369 10.599807570326643
Re 8.505557022842922 7.261969940216065 10.501356504720345
Re 8.4867497321659 6.961277685633079 7.961805979796585
Re 10.012599509744538 8.801868949499786 8.30891839128315
Re 7.52331603333346 8.878149575789072 9.0228996158668
Re 8.706669733156723 10.412960301238666 7.232950686804902
Re 7.381912518198913 8.722321513804156 6.578676567894358
