7
Energy = -62.67514555 eV
Re 8.912449765145036 9.768930087814391 6.925702368397163
Re 6.956471944245966 9.125968608935512 8.118380452116465
Re 8.449154913775732 7.472731475978855 6.736139111307575
Re 9.434328839223227 9.319494614414362 9.192338535772194
Re 7.3491010441169164 9.081275007041734 10.460830650935156
Re 10.100025873867617 7.19892281453291 8.376894484718331
Re 7.88767189350767 7.101973586419997 9.267649153556848
