7
Energy = -60.80586568 eV
Re 9.404910716974543 11.60093175611855 13.589977171740726
Re 12.690319182341456 12.033186411183484 9.71572482633564
Re 10.455663767939843 9.636171618101674 10.481307134957916
Re 10.75801803641766 11.717345168133582 11.519689848841027
Re 10.506806976927248 11.85125654821239 9.143270991946979
Re 12.272350653014113 9.882917621345438 9.082300072906278
Re 10.393475137990476 9.785437248436462 13.077931965059042
