7
Energy = -63.12502913 eV
Re 8.766616714575331 10.801461150503325 8.818141123916243
Re 10.83371513424267 9.438774300246077 8.892443998826531
Re 9.439057747047565 9.659456063448383 10.824492497651162
Re 7.365849535110977 8.773565135024961 9.730530735546232
Re 9.324209847550607 7.4259994775266955 9.875700677055743
Re 7.7403501420247665 9.209394233948531 7.469397465710085
Re 9.734720880281547 7.878840959385302 7.600750972643675
