7
Energy = -60.61965005 eV
Re 9.225317524739793 10.202769110451799 8.78810798606684
Re 9.485377680953967 8.46603198014332 10.370393777401135
Re 7.018548103795558 10.028572516531957 7.983325709868178
Re 7.702363806927309 7.7310702448267445 8.744528071399008
Re 8.55277172321018 9.027511158831866 6.6504638993928085
Re 6.862341853093479 5.764321850464887 8.333027298708732
Re 10.2683523529676 7.93550144543053 8.324262916728346
