7
Energy = -57.57101439 eV
Re 9.868634109753465 8.049173786122168 10.845373414233348
Re 8.6945013 10.026341587622722 10.901791561343597
Re 7.5203684902465415 8.049173786122168 10.845373414233348
Re 7.5203684902465415 9.339828813877835 6.543629185766656
Re 8.6945013 8.6945013 8.6945013
Re 9.868634109753465 9.339828813877835 6.543629185766656
Re 8.6945013 7.362661012377277 6.487211038656405
