8
Energy = -72.82717671 eV
Re 10.886021389299925 9.359491307781875 10.198837463265813
Re 11.54960451862129 11.215588680655165 8.685866050469347
Re 12.79740016687814 10.919929695411609 10.67736126883818
Re 8.955112814541925 7.859794946365877 10.32366011351545
Re 8.523363365353669 9.606212850571733 11.586244523943654
Re 10.744382369042466 10.977552432235255 12.033320619470171
Re 11.231448435717672 12.815998126746946 10.520507364714192
Re 9.396676610978341 11.27740431162679 9.972451792846275
