8
Energy = -71.17525879 eV
Re 6.352792782838131 8.114654480983623 5.615034513993197
Re 8.472015148070374 8.954279762653028 5.8987399309191755
Re 7.811630979185824 6.387840810962149 6.517850940536592
Re 5.453500055911232 6.7227065025135415 7.336806874841876
Re 6.545719731298645 8.899209664794052 7.921534398957648
Re 8.9387569463506 8.049139313843764 8.059599552695365
Re 7.23160994074309 6.610290624077566 8.996229679031865
Re 9.364745780108668 6.432650204678974 9.824975473531113
