8
Energy = -71.46826494 eV
Re 8.831389859171244 10.860040681903612 12.492454819114192
Re 12.293032480491929 10.814068733608346 10.845768310527184
Re 13.98489363912039 12.072409820486921 9.766633260997637
Re 10.972213288138642 11.256514876665102 13.176520010592773
Re 12.30708024759294 13.443086852432533 9.733237901177512
Re 10.4950853945151 12.321723613938714 10.960396862957328
Re 11.315240267774056 9.116641705416498 12.12306691290378
Re 9.675698068813025 9.968958309873283 10.573187807258064
