8
Energy = -73.22429849 eV
Re 9.615027297085401 9.67265594027575 7.6182067085481195
Re 7.529338798682216 8.637599623767285 7.1495028963272205
Re 7.8029820294546575 7.541899637600728 9.869684197781947
Re 8.364506644536872 6.507670460458956 7.889118377015694
Re 9.259357387062764 11.190837905345624 9.48920738956959
Re 10.399436286385061 7.615668116465195 8.516008568539359
Re 9.72982653586279 9.00249447298011 10.312785005421423
Re 7.314893089175291 9.846541843106465 9.17085492504181
