8
Energy = -72.59488415 eV
Re 11.396536341916562 8.963126319095066 9.801597416434243
Re 9.804601063992155 7.9421918453647296 11.074199623380194
Re 9.551113697135937 10.512763054858556 10.113276204388347
Re 9.121473526355095 11.45883403296293 8.067498102434937
Re 8.965872805799831 6.927709123247268 9.20885464013403
Re 7.681000906872138 8.939752218788131 9.670021293256088
Re 9.743974235382042 8.893862270244597 8.053693425969218
Re 7.394619005411986 10.02739463679883 7.665649245858473
