8
Energy = -72.28140379 eV
Re 9.618195787094418 10.086553930804756 9.016884927982552
Re 10.858765319287121 12.073775383585394 9.446498135714979
Re 12.853578042332286 10.781743926726662 9.355197414170025
Re 11.621254391804925 8.905012183392737 8.99968521907892
Re 11.201138884972373 10.343802846332613 11.156146307458775
Re 8.768098402079094 9.439750794308823 11.178926048502278
Re 9.118113819354832 11.68050651890815 11.61863559994751
Re 10.18441666591225 10.746562370079426 13.311840392212703
