8
Energy = -71.47922789 eV
Re 10.574572412864702 10.004157835190586 8.764118158306214
Re 11.364142408710471 8.711329523446077 10.432977147577628
Re 6.733504856581083 10.114028273535682 9.43271678898154
Re 8.724946587433024 9.054146103206284 10.05182184586689
Re 6.780979330851444 8.05203074509675 8.554414296347117
Re 9.144120408395192 8.42850604357719 7.603242964465164
Re 10.257119136168457 7.090555492665829 9.319957681334762
Re 7.108861201130891 9.294634333473669 6.728859288502935
