8
Energy = -71.0529489 eV
Re 10.81666314364531 8.424779565007372 7.205510724104078
Re 7.129423793376061 10.376702215248724 8.587575245781656
Re 7.219960674002574 8.276877323757683 9.631948425932585
Re 9.461762498629671 9.238382550090641 9.422103744704623
Re 6.893267410010938 7.8306721589859185 7.3577413205758635
Re 8.171755750333277 10.886781470741932 10.460780935096034
Re 8.925121548349528 7.120415061610699 7.971811151350042
Re 11.29126102365356 7.656774224122644 9.158287494596243
