8
Energy = -73.3768389 eV
Re 7.271577340985208 7.7933245651739815 10.510665403250512
Re 9.37616139567142 9.005152983745486 7.225992029225642
Re 8.813350080286446 10.981632739102837 8.511434011061036
Re 8.368849258877521 6.921608328676874 8.533100737531187
Re 7.370319132926166 7.852158647328041 6.545092384957004
Re 7.114950854191672 9.240326944241342 8.56088336424236
Re 9.276355699023767 9.010533220801578 9.86105251265059
Re 10.710668238037925 7.497494570929985 8.554011557081791
