9
Energy = -81.74263433 eV
Re 11.778863092357975 9.059469830567982 9.450969669047822
Re 10.658670529502949 8.22391819107729 11.14897520838057
Re 9.692193036927124 10.224599201102166 9.061587419932883
Re 9.666433746292377 7.512516376343028 8.971442653792046
Re 8.429776622199515 6.519548982683027 7.220024520046645
Re 8.321528945488275 9.108848069199778 10.444401416374545
Re 7.711047945654681 8.594289419199768 8.025093326417156
Re 8.061215060125692 11.15640336277082 7.513082591811115
Re 6.683629927867834 10.621511329539688 9.135931111885942
