9
Energy = -80.56902907 eV
Re 15.495717597626276 12.47509455268787 12.89203164764243
Re 13.61421837961148 11.486822269339925 12.589670203541251
Re 12.937715160757188 11.061218828985568 10.20749293046235
Re 11.456096991125898 12.566159078940185 11.558232113347573
Re 10.405457258621375 11.261550418703257 9.72802520640638
Re 11.409619689784131 9.955689227608538 11.709748524528848
Re 11.206410057139815 11.276067745689913 13.696563520493786
Re 9.322176654012623 11.411756047125149 12.01526154621044
Re 9.277141806751375 13.191173212449753 10.466068219578812
