9
Energy = -82.21458037 eV
Re 6.9083115479274975 6.019047566924811 6.1006995847723875
Re 5.775270081551998 8.003641324481721 5.063791201336895
Re 7.6271562957778825 8.466323497945034 6.35303023454508
Re 9.342452653554714 6.576791738655233 6.547021995801947
Re 5.563176418541959 7.5074977076561105 7.526556887674103
Re 5.816521533014359 5.098303115220447 8.177686080121022
Re 9.453646293879551 8.316402551722883 8.227952509673761
Re 7.668407446909186 6.4318776465721825 8.505895659456337
Re 7.19549431741744 8.930551439396293 8.847802435192937
