9
Energy = -83.26204067 eV
Re 14.268103894351404 12.813630593230025 12.380914415960742
Re 12.156304792941514 13.727241064470457 12.307631623557493
Re 11.079264511829221 11.68195724691382 13.126232923147136
Re 11.6088311488363 12.234053598167536 10.490292888642344
Re 9.496665718154082 11.253325083998575 11.170884433310754
Re 9.557461059207354 13.313662326004508 11.95364636334829
Re 13.298256794305262 10.978508893546023 13.590955753440733
Re 12.441409221132092 10.051955581074685 11.64436416495056
Re 13.82856157297187 11.505003125466336 10.390479082502962
