9
Energy = -80.48500078 eV
Re 8.964621590991541 11.54016379342571 11.295610825029502
Re 9.382621679206546 11.559242252090401 7.497462597007777
Re 8.699046482064213 9.70692295233709 6.612684429161317
Re 10.870717600959239 11.206444443097917 12.342474317941397
Re 10.431945203617062 10.914537302927641 9.589855011513162
Re 9.892782507623599 8.878734531393432 8.439416791106554
Re 9.807506082936877 9.254509759806155 12.655160386129298
Re 11.199638453876766 8.813416598056495 10.884934313907591
Re 10.054451294578955 7.132153258446236 9.91587946590804
