9
Energy = -82.26251081 eV
Re 9.273767389294948 8.365722809597074 5.811070288825934
Re 10.092163759939746 9.66667254272463 7.506434057882757
Re 10.354436361326886 8.7028111771396 10.029094937075092
Re 9.454310060317393 7.37809134103222 8.21526373953035
Re 8.151599327373976 10.58750423836042 9.280446962165005
Re 9.645436989408097 6.749494354948029 10.838008593656548
Re 7.672998560707061 9.021061672479757 7.503806604671554
Re 7.903469130146118 8.233398446638176 10.011390877628324
Re 6.044843514678199 9.884581205853342 9.397827444469337
