27
Energy = -55.66137501 eV
Ag 13.983021379918544 7.793583426490481 11.269090103197609
Ag 12.67824150672686 9.156671442160395 13.331872715823875
Ag 12.61627482521068 11.958106371025242 12.749736267204952
Ag 14.733086069196062 10.445633861730355 11.678008697966971
Ag 14.417297818292477 9.553161613911836 9.044468099698602
Ag 10.724830117169512 10.758696866203813 14.609387862427706
Ag 12.053732994086593 9.869889626804296 10.703317656223344
Ag 11.229354537895407 7.165645060917697 10.689329190793348
Ag 10.420908290127988 13.41926753728361 13.741991982580073
Ag 9.986078236192618 8.5455746083679 12.81082088585588
Ag 13.393659931901917 12.239409155511172 9.964790865624167
Ag 8.121710186346201 11.87299569998219 14.08205948321219
Ag 13.281271198764438 6.875784132697295 8.754926219048006
Ag 11.097260544732526 13.532583535952693 10.928264502699191
Ag 7.424617252161746 9.74715777203634 12.278002847638392
Ag 9.859630054645269 11.227849144928939 11.950108479228973
Ag 13.505113228000988 8.576918404125376 6.56131495543695
Ag 8.360200974866975 13.749820448418026 11.856226442575531
Ag 11.18014567985481 8.664832413239555 8.223407474737146
Ag 9.155805695316396 9.039275646438092 10.164276770093386
Ag 11.616378643545637 13.601985919474593 8.184858330938429
Ag 6.034500905276255 12.22248853300365 12.269270451434055
Ag 12.592404785208691 11.0228011761487 7.528706567008637
Ag 8.930137780001749 13.810287527986723 9.0790836501396
Ag 10.232245204978748 11.3117170498749 8.99425292136971
Ag 6.288425376506017 13.979480809027416 10.01831108070771
Ag 7.64138339247025 11.505202377923409 10.073207017999987
