10
Energy = -59.46594202 eV
Zr 17.45120238821651 14.085872435779548 15.421718544487891
Zr 14.756974985323678 13.501402051116733 15.602211673265016
Zr 16.229229337008853 12.12907971961781 13.53063674463708
Zr 18.131363597538513 16.257757939002424 13.746567431899186
Zr 4.701426140530891 14.003898134717618 14.81305374161547
Zr 18.666477830857872 13.500289377027283 12.945525973766474
Zr 15.445511988039886 16.17313301034288 14.725432011016395
Zr 16.23488230252921 14.746482571461684 12.363178607672582
Zr 13.717204238186614 14.01786627902383 13.190247385095677
Zr 3.628931321535114 12.02346122668349 14.98192030732494
