17
Energy = -119.439948 eV
Zr 13.947395127524711 12.918190842099353 10.711588075532875
Zr 12.03348642159406 12.866316524288054 8.694181960047397
Zr 10.981600866280422 10.052377328014819 8.036625949384721
Zr 14.059593176723181 10.249966443039089 12.073683494521601
Zr 13.548717156214071 10.510511823933927 9.331303394891583
Zr 9.373308779818991 12.684673923931324 8.532524186197913
Zr 12.291529454584719 12.348415046908656 12.914747148448324
Zr 12.18366190101871 8.23566973264311 10.814005473356257
Zr 11.922682808097967 9.615130455188343 13.62337909013065
Zr 8.070913966798608 10.294406908651643 8.741795632299334
Zr 10.672033417666874 10.762642606205524 10.806948649905292
Zr 10.356679259493108 13.703043605781163 11.163345366341137
Zr 9.423995263177304 8.09521175342996 9.88501158173931
Zr 9.477114832135067 11.436645731306124 13.299888059122589
Zr 9.80051939971542 8.326703896027096 12.701844590547193
Zr 7.891954512594985 12.265442369754473 10.881234545079593
Zr 7.631233385415472 9.563868750995976 11.591144079911267
