15
Energy = -103.17978786 eV
Zr 11.490833338173443 10.399870453641023 7.972642890709796
Zr 9.393013870567236 9.113291185150583 6.089358564117341
Zr 11.363357769059952 7.548203780795067 6.872201107451638
Zr 8.605013125200761 11.474709994607135 7.448295229020043
Zr 8.96093543302132 6.701463255623267 8.341832313663458
Zr 11.743911028494217 7.502755555649086 9.493701132884263
Zr 6.917609159621918 9.003821154783882 7.343820710506783
Zr 6.649195041055328 10.903334038318745 9.483937048202153
Zr 6.767564827752342 7.96066512026124 10.01155705493302
Zr 9.250713048334388 9.325474719417002 9.307245384666382
Zr 11.833834580754981 9.853622456295117 10.885829790019928
Zr 9.651021871324255 11.952052762275507 10.224125147803944
Zr 9.527387470937937 7.599247604125535 11.487740756316615
Zr 7.4788422565256685 9.86817058029647 11.947239358984808
Zr 9.95677971629616 10.3833298758795 12.680486047839155
