17
Energy = -117.32468642 eV
Zr 13.52872358301039 10.28036172215932 10.718507077347851
Zr 12.19242803961279 8.27778356276131 9.190348990873535
Zr 12.017271611603894 11.02141063483294 8.161944085101076
Zr 12.397410224768597 12.976568869838568 10.472239580188369
Zr 12.139686234113604 11.48341276346456 13.06858121840772
Zr 11.36478048841335 8.475528931359573 12.289535921666811
Zr 9.83210882741834 7.816559352368056 7.14068754289987
Zr 10.661827075521435 10.63762302157408 10.814199287782602
Zr 9.78239210062249 7.048619825208561 9.982420574321122
Zr 9.722905366395407 12.83464019805719 9.048463795324539
Zr 9.369847999585016 9.795561041741145 8.849287613316388
Zr 9.905275931017004 13.193839133674498 12.026780172376526
Zr 9.312237620990873 10.667476052864673 13.388872695151177
Zr 7.987766682856922 10.767176913428171 6.969831147571315
Zr 8.244982116090956 8.632380125064788 11.724375894230992
Zr 7.272533928370363 8.107254461643562 8.835476662953905
Zr 7.745877214945883 11.379728118439694 10.802532442906873
