18
Energy = -125.98624862 eV
Zr 12.017922718549327 12.24675658541655 8.476539429326241
Zr 13.760414662849291 12.897505998804219 11.004214915970545
Zr 13.69345204293572 10.202174058208639 10.231483954370944
Zr 11.563087027462391 14.567727238703888 10.46869170983768
Zr 12.293330691279186 6.836307614829949 10.129468565986768
Zr 9.218875548853806 13.495784069951014 9.350439914400264
Zr 11.730194825892704 9.274021353080423 8.482720317986583
Zr 9.084373284620995 10.629238811346903 8.814561956379235
Zr 10.931075837919705 11.671134622406424 10.992548348427631
Zr 11.963572157155724 13.506744751297964 13.234306142863156
Zr 9.638308519734027 7.6919679669878604 9.414093563053395
Zr 11.418709904864627 8.924067628226853 11.710177354736377
Zr 7.839758111583973 11.851572873621409 11.27032392997703
Zr 9.35290918190701 13.966626416949335 12.283978303715738
Zr 13.094306482319592 10.935907903034348 13.048401077394574
Zr 10.03562521377128 6.561646481894853 11.945417881347005
Zr 8.444853674230753 9.250403676709391 11.535231018281445
Zr 9.865143746041648 11.203650632251712 13.579596135880701
