17
Energy = -118.07080316 eV
Zr 12.495956444647492 13.21253392015704 9.215684582226746
Zr 12.821854713389211 12.660597286216003 12.329651918079678
Zr 13.19445145182361 9.490350145833998 12.015015991315702
Zr 10.930532152215452 10.446645292107906 13.775554834783946
Zr 10.453053072753365 14.141632922439939 10.813126259313515
Zr 14.260631897875701 11.371150068588149 10.046451442558133
Zr 10.424913924821706 8.150253455943515 11.934843541825138
Zr 14.030876552579484 8.807495248581244 9.254314263336015
Zr 11.89319676628044 10.465505679686265 8.108878424044269
Zr 11.00390475398567 11.051150086042531 10.882888692790056
Zr 11.493138164047048 7.939699238601286 9.52631707039567
Zr 10.097691313184347 13.240516388412965 13.315242200089685
Zr 8.239904554482305 9.607791954349644 12.343668798567071
Zr 9.026190253444115 9.561016475094272 9.445047404149935
Zr 9.749860386730136 12.430349953562994 8.579856876438011
Zr 8.184286620798547 12.23425361526437 11.073506431086523
Zr 8.075060017164873 11.653557476411356 14.068769257415873
