15
Energy = -101.73337666 eV
Zr 8.896571248125774 9.649219396717626 11.503263232395701
Zr 11.869639422016412 10.043367928991035 11.899704767154317
Zr 7.657349225185534 6.898202007696552 11.599786112873046
Zr 10.609981003911097 7.359248162288859 11.45628945980293
Zr 6.4537307741163685 9.01685951466105 10.032538479146783
Zr 8.900125078723278 7.346547952397061 9.037410498198273
Zr 11.323433899275967 9.146853561852666 9.214002168750737
Zr 8.306202574018846 10.712333737932966 8.645887868255212
Zr 12.962429626579468 11.496708724663 9.691569865791246
Zr 10.323545086356155 11.900592705131018 10.306270506701267
Zr 10.856850064884334 11.491542589782362 7.408785503072976
Zr 8.468117586158192 10.787726743025106 5.725100426054551
Zr 6.957843993262632 8.588913615247654 7.128794444514406
Zr 9.89284934435016 8.766757304473908 6.767614770619998
Zr 6.149835829715665 6.4236310551392615 9.21148665334883
