18
Energy = -127.06845422 eV
Zr 12.619394327080226 10.941626154247569 14.030405655582783
Zr 9.801310756245606 10.032592686706202 13.68965932979595
Zr 10.190278877040312 12.680650606084775 13.891224124981832
Zr 12.500616190847506 13.965719790399673 13.076522295731033
Zr 11.516162902100195 8.173994290983215 12.130547352621718
Zr 8.267468036494524 12.008838280663854 11.737401514591486
Zr 10.197120232020472 14.279537113455923 11.572794599691594
Zr 14.291368228547404 12.3996839671405 12.00028929060492
Zr 14.046698137749743 9.607642697357564 11.874185324396821
Zr 11.289174587415786 11.176308135641609 11.145496575536503
Zr 11.574826561675993 11.128202807611302 8.04246901311811
Zr 8.748460543993147 10.673365758955448 9.089437609710034
Zr 12.86650792407486 8.759385732401775 9.498747477563324
Zr 9.77267014793382 13.159364266595176 9.163178926820034
Zr 12.583366729979128 13.6851864641512 9.79346600596604
Zr 14.104132843876565 11.23844383812553 9.483244601111773
Zr 8.7420093406027 9.083320279465159 11.406528491766617
Zr 10.316997595588889 8.404579266597587 9.23899410374881
