14
Energy = -96.77076724 eV
Zr 9.287561957998667 9.285009768441329 9.281047791433645
Zr 12.318407569289818 8.498448350487784 9.205333423029987
Zr 6.301800412287541 9.225144351988565 8.528526962266884
Zr 10.5969700512016 11.643450554637825 8.848165991453728
Zr 7.52886434462914 11.656218953142726 9.533131529599071
Zr 10.339332493885067 6.634079303416785 8.533980340575189
Zr 7.721411427279448 6.906445138434272 9.733999158424783
Zr 9.333809155653022 11.157701184047164 11.710888522486094
Zr 11.885268044724127 10.347663356685283 11.165173498611386
Zr 10.09601100202415 7.982564257097563 11.518777850360314
Zr 7.158628979232581 9.31687704837677 11.306935177288329
Zr 8.381307781269967 10.642626067688695 6.926115646903822
Zr 10.801760079533922 8.957106889908426 6.776438589510755
Zr 8.200899192633605 7.69869644788556 6.883517354175121
