11
Energy = -72.67002953 eV
Zr 10.638617866266047 6.985996757766614 9.08429190078472
Zr 9.664896479702964 8.730411608113085 11.22693868396205
Zr 12.409063788858248 8.592139325938124 10.247926494505284
Zr 11.717552919363985 10.512717867788648 12.49608894530378
Zr 8.036078118931487 7.835120221407207 8.923271211944634
Zr 7.513043016221909 10.380759217174008 9.514750036689405
Zr 11.979855894401142 11.352012233757488 9.809134291617701
Zr 11.121580526617926 13.304823810200348 11.484867448178242
Zr 10.117792148543478 9.80902920951795 8.33552645021423
Zr 9.107081549626939 11.480346487978899 11.579992523577213
Zr 9.471256546311977 12.656955714060581 9.034253125559978
