17
Energy = -116.53140246 eV
Zr 11.49544074585278 8.846071359652647 7.382175691804857
Zr 9.051322071180321 8.13636916584737 9.308158573551944
Zr 9.050374490855434 10.388962672161487 7.495722019036047
Zr 11.469017261547526 11.946895940666911 7.657140516443272
Zr 12.092271780844111 7.344291418431654 9.928125876882948
Zr 13.670114801863626 11.254036365019587 10.219306184534739
Zr 6.952497948677415 10.558060340500118 9.472263588137995
Zr 11.469411437149569 10.039291318231054 9.86026091517891
Zr 10.067402885085578 7.6707752965691975 11.973574769227247
Zr 9.29483579087239 10.802325319546025 10.927591616628925
Zr 7.50182196704872 8.999256422585947 11.975235394643855
Zr 8.896471095768646 12.898129826650463 8.88331408492825
Zr 12.5161120492789 9.063281223274842 12.45882646070589
Zr 11.425009042656551 13.290791644364147 10.275052730539336
Zr 9.92774198409923 10.015947680143375 13.660675318139461
Zr 11.923793369958853 11.900725446283289 12.586959288997015
Zr 9.14096663904243 13.00345537526683 12.207897421824926
