10
Energy = -64.54779293 eV
Zr 11.75748738176047 10.97035199458536 9.193948649239898
Zr 11.519485447348389 13.126025568503872 11.01399486581157
Zr 11.092557032618405 8.245523673540553 7.629514957039537
Zr 10.983729204862893 8.28038412394532 10.27268982844707
Zr 10.400831364863322 10.614847471441317 11.812503916280843
Zr 9.190348366704137 12.394588428856869 9.79341977135942
Zr 9.175967620121511 10.145334697154539 8.023362727363402
Zr 8.881237658723746 7.83570393032787 11.932365779440618
Zr 8.533139716438123 7.475388846310262 9.001867479839257
Zr 7.817426265634017 9.891450405317633 10.48732745079176
