14
Energy = -93.31004663 eV
Zr 11.434840287891902 13.782979221404547 10.921151704821806
Zr 12.998608974337698 11.75591768568974 9.475702894155841
Zr 11.752962159896393 11.352556817282167 12.21284873931096
Zr 10.009104180754147 12.174339033183724 9.16351451446157
Zr 8.98167848915695 12.554365612555952 11.98535726006839
Zr 13.711893281593966 9.568418730834011 11.313799723918118
Zr 9.683604922983555 10.363787597949504 13.820044569356368
Zr 11.391219411054037 10.658347599331051 7.263629987272755
Zr 11.717727007233988 9.030832765121415 9.475185152748097
Zr 11.248873727606773 8.335600888191426 12.36419092485334
Zr 8.732925907998588 9.62056371936363 11.336599094434748
Zr 7.374931148335005 11.450663310597823 9.773317405565624
Zr 8.953859974645013 9.411707439119628 8.347253759997562
Zr 9.669520631670615 7.2549354645831725 10.169795642221596
