13
Energy = -86.62279601 eV
Zr 14.387366495150104 11.85635044050326 10.796621024906813
Zr 13.02947136002231 9.308685771841661 10.769776136572236
Zr 12.926914278084226 14.057199511477167 11.08293923846524
Zr 11.921707079568462 11.908058616808809 9.363487800801739
Zr 11.939734585266466 11.544248839045414 12.373910557357906
Zr 10.91435852342143 7.075530784946229 10.747639472537431
Zr 10.791859476843083 8.99568179733198 12.667301894720989
Zr 10.305360348264312 9.603075326420294 9.578255959703784
Zr 10.324384905941011 13.837025346931402 11.145270589745252
Zr 8.895644684954629 12.31561725220407 9.107847657723006
Zr 8.971269624169345 11.26628105216029 11.826826107926667
Zr 8.37362306021789 8.322640239667905 11.42312922579086
Zr 7.445169014634266 10.173721022742107 9.555244156628516
