10
Energy = -65.63128583 eV
Zr 10.878387707676865 8.626599769432264 6.621879137760267
Zr 9.968391331394495 8.325481223266744 9.420208274327052
Zr 8.552182643244336 7.014850907710676 7.274448366634162
Zr 10.390681463296525 10.558796659437865 11.316749652352884
Zr 8.500268717540907 9.94338400740069 7.054689612338469
Zr 10.89141611098224 10.872288121947289 8.459393390179528
Zr 7.87911083625339 6.34031460197496 10.010929825150745
Zr 8.233017823523827 11.013723534405917 9.689266146800701
Zr 6.793392646153601 8.65324879964775 8.951205098235203
Zr 8.091585695507348 8.764339679683518 11.569115391699766
