10
Energy = -64.43205539 eV
Zr 10.724264876469208 9.914282397903033 12.441147167312714
Zr 12.076297670202099 12.426220839812832 13.03204387980516
Zr 10.419045331196024 11.38417519999484 14.925684215515096
Zr 10.973488843401366 8.735200765033891 9.612028843613329
Zr 12.80589844354257 10.81109443073069 10.514471574529013
Zr 13.10933744763051 9.326398920682616 8.039079937969605
Zr 9.11316159205793 10.852158943705511 10.192568865878933
Zr 9.188545989917989 12.39899991851556 12.617167748838686
Zr 10.934429825327413 13.04696715746256 10.460862029380634
Zr 11.100154610420137 11.275671005579655 8.192660127552578
