16
Energy = -109.95254416 eV
Zr 9.380669395691335 12.268135389452226 14.54525086888216
Zr 12.043753257796858 11.972965083734865 14.762169293231489
Zr 8.431080477038611 11.8448919975925 11.612656070854719
Zr 9.876073286175604 13.182125443181885 9.38144079960997
Zr 11.460210674472497 8.630122658683606 7.822815025724027
Zr 10.647911985536211 10.059931473472382 13.187345785914182
Zr 11.416294791323402 11.52371266279216 7.5405172647106395
Zr 8.379540792835673 10.650659861613068 8.832126824427736
Zr 10.790632667485351 10.536860383456416 10.231206494149482
Zr 9.175736585386227 7.885134750057983 9.026400092102403
Zr 13.470310738804471 10.0479743260516 9.114675372971139
Zr 8.438180237516733 8.982232330118354 11.402697694646784
Zr 11.65670436233349 8.05873598588579 10.777904048010384
Zr 11.0249935915602 12.985001203179156 12.208168909454011
Zr 12.801167343908512 12.819069402917815 9.794030154822122
Zr 13.146834726664007 10.805475877703188 11.986399325885762
