18
Energy = -126.14114568 eV
Zr 14.601925039641795 13.01246192438637 10.228405427553993
Zr 12.657660900276314 15.089247849230832 10.846121261658274
Zr 14.277477504895144 13.837656191536247 12.97749836356436
Zr 14.742287933195101 11.086360688877695 12.341519200009353
Zr 13.375641192771969 10.44977451582376 9.666307374860143
Zr 12.127223385289417 13.222647458394889 8.803890163750827
Zr 12.634788947040075 9.262708223764545 12.670434217377787
Zr 11.579273967253082 14.655428308912107 13.38412280882489
Zr 12.652189621973848 11.909086769392797 14.517542927188423
Zr 9.746678226709298 12.867786212127168 13.791139967362335
Zr 9.878833416852718 8.174467430108729 12.579148893104959
Zr 10.379636219137828 10.167485633107379 14.442155377003356
Zr 9.912203950197204 13.8969607847784 10.801313961700336
Zr 10.410412516268254 11.215709808746926 8.996492976537413
Zr 11.966468561218361 12.098315315764394 11.673965818955761
Zr 8.97470589393156 10.898387055344752 11.990855084235385
Zr 11.203083973340698 8.77239683812532 10.178245993801722
Zr 8.535822714467676 9.0974476847934 9.979237988727814
