14
Energy = -96.76777185 eV
Zr 10.189510822067422 8.891232393270933 6.40322446003782
Zr 8.990941568271886 9.00798685587381 8.99155949901558
Zr 7.3072356730028 9.533221823982691 6.261209286621393
Zr 7.931969226602646 6.991631499512655 7.015664982512283
Zr 10.511220668969523 6.530306894844505 8.194096733683601
Zr 7.355609375071503 11.635928910098158 8.00994086305415
Zr 10.24818696087839 11.546749707932161 8.617880272126893
Zr 6.3070091658456136 8.987296123254362 9.082977724009998
Zr 8.032271954526907 6.385037222436942 9.861320273485893
Zr 11.868022585618212 9.004905342131075 8.922366429694904
Zr 10.571091147989131 7.293990662892764 11.010203958896184
Zr 8.0222246795981 11.34086281040153 10.63439367825072
Zr 10.58871089897498 10.202776750528923 11.252288111932016
Zr 8.080653113490866 8.652730843748024 11.747531567586813
