12
Energy = -79.5915423 eV
Zr 11.9925923347965 12.072029628242882 10.251629837912663
Zr 12.174791504718907 7.820921639103871 12.505846601937659
Zr 10.584399898936448 12.516196703543036 12.781510439695106
Zr 11.831563486363102 9.191899020612494 9.920181211472642
Zr 10.125531293172642 14.27865295077851 10.83826769629453
Zr 9.902882734205656 9.683743625847889 12.267124535777317
Zr 8.9474315005549 8.79156165726051 9.465731376894176
Zr 10.413286570054604 10.82977801968822 7.901974440595525
Zr 10.14185986389042 7.01905850352632 11.00484343987967
Zr 10.188606616257715 13.417217325854624 8.332021073303522
Zr 12.715192129330267 10.426765623735763 12.596279617241272
Zr 8.950504407177071 11.624915739595028 10.332705822102048
