13
Energy = -89.26283963 eV
Zr 9.030089300552852 9.033489654233836 9.0343454780274
Zr 8.990509673184995 10.596064204236104 11.437079400156565
Zr 9.034758750965075 7.535636280158707 11.473670842960948
Zr 9.036607312005717 10.531491975853523 6.591984241629489
Zr 9.076735590844846 7.4711065531210945 6.624015103249832
Zr 10.486665778272284 11.498083614321413 9.040547374636693
Zr 10.589127136972252 6.564424187014055 9.042337916222012
Zr 7.469849343670031 11.497514694213484 9.015335732494027
Zr 7.574535831977038 6.564726002598617 9.025317229022448
Zr 11.547630553263902 8.883495295128446 10.522800315797202
Zr 11.475178998233973 9.052922201285034 7.519219836702439
Zr 6.5939311965127665 9.010502640281041 10.552172579963711
Zr 6.514040033544519 9.180202182621152 7.5408334491374855
