18
Energy = -125.90280252 eV
Zr 11.781670456755657 13.69427285415627 10.444396007921299
Zr 7.061662761132907 8.345444090305715 11.504266225989994
Zr 12.103954544169286 12.212673314812413 7.841831778188753
Zr 9.978758948906307 9.88451238452935 7.457865255527823
Zr 9.771287556084038 7.054887358909203 11.51706218351165
Zr 12.312742523182555 8.722588496125212 11.48983234246436
Zr 7.235463414921187 11.304950761038748 11.500545777422849
Zr 12.985410176195092 9.464570015676857 8.338955265270204
Zr 9.766504943438498 9.88586900692001 13.0376265220085
Zr 13.926619758809855 11.548533380160906 10.22811698990829
Zr 11.25589428788152 10.973514380978706 10.09828312465609
Zr 8.256978907245406 7.3046028141983665 8.899151434475746
Zr 8.908832179624197 12.422346570855444 9.067267602250757
Zr 9.186786455604954 9.555728779058475 10.271547237470756
Zr 12.193055375079702 11.697185865079827 12.690156052928458
Zr 6.883415033374237 9.983109106331712 8.910608478622892
Zr 9.57303595139908 12.747082899276045 12.023849832645991
Zr 11.11470444631503 7.4949056417064455 8.97541560885527
