15
Energy = -104.7843814 eV
Zr 8.061965490328541 8.933959475185892 6.261049041847902
Zr 10.9288158062252 9.401480881435711 6.769841821888109
Zr 8.91916671208704 11.486122871036676 7.13282097798194
Zr 6.655188497311969 9.988387587294064 8.852795062081059
Zr 9.792127849965544 6.770218711969143 6.96079068575523
Zr 7.18931744949058 6.967363574341515 8.168952860190572
Zr 9.563681064220557 6.286140353886442 9.793584773515704
Zr 11.30380444372616 11.36168825292592 8.799767528325459
Zr 9.117254186731246 9.233864731148191 9.215266175782197
Zr 11.826747864475347 8.454034351225276 9.64047431280209
Zr 7.1940234712822555 7.569019140398597 10.930325339056862
Zr 8.694328912618275 12.178989051136947 9.926744259848057
Zr 9.868457352092358 8.093405457135308 11.969998123007086
Zr 10.704154168962756 10.70031967484576 11.431891002892332
Zr 7.845031058068948 10.239070213621464 11.80976236261186
