19
Energy = -132.48898592 eV
Zr 11.43848851973244 13.008841232877929 13.493728878118848
Zr 8.688366578114659 12.569046789660776 12.756514541752539
Zr 10.283416106443427 10.639339118152247 14.357111460261955
Zr 13.163176847618935 10.627841533380545 13.34518472691688
Zr 10.42485526140745 13.762866136655402 10.877748858676082
Zr 8.18356636023957 9.891311721760866 12.620756273486622
Zr 13.213550324164343 13.10893022414396 11.490599783479265
Zr 10.667322631052794 8.134138086812012 12.91581168312342
Zr 11.039615909281393 10.580406240967942 11.22969460259859
Zr 14.173300894981116 10.904122404072968 10.459194534152989
Zr 13.366077185837588 8.393938788994257 11.488259474956163
Zr 8.646984965293896 11.58896076957998 9.689247818546816
Zr 11.495058774414833 12.163081670984454 8.694149980774071
Zr 8.679397929517753 8.339989965083738 10.570881549893787
Zr 9.223495250339436 14.06883022129283 8.060179969393602
Zr 11.165391753123483 7.42648279566997 10.104241408889948
Zr 12.910266769863933 9.261226890457433 8.704440404067723
Zr 10.1214727661809 9.483895379377476 8.31125212392951
Zr 9.187509306775983 11.936786285575527 6.73645006750606
