11
Energy = -73.10887669 eV
Zr 10.09084638630557 9.804930025866637 8.816862428223626
Zr 12.106858601024408 10.053656839897005 10.922783508782198
Zr 7.193622350909236 8.819716679338082 7.943782083833181
Zr 7.8665835540626485 11.625834675916359 8.430235664831716
Zr 8.54180843252065 7.174784898938788 9.855802317240725
Zr 9.659672397156587 7.434853745113329 7.204357528252068
Zr 11.420809844535329 7.425615789584997 9.809826580258127
Zr 9.818265180247128 8.80762266982998 11.828883375034168
Zr 9.623875978502854 11.618727168508512 11.030745428835402
Zr 7.419475656131563 9.797848982177596 10.622905671124872
Zr 8.889793103670337 10.068020024828831 6.165426928517328
