18
Energy = -126.72853598 eV
Zr 8.72577988432552 10.12192104729892 6.461594361670001
Zr 8.263689213845934 7.597320954661497 7.320311029336852
Zr 11.182133810813072 8.432404478924537 7.202685676585955
Zr 10.920391703556447 11.424228102805287 7.102069369190133
Zr 6.457846636655079 9.985293133740235 8.093153751412194
Zr 11.223516362134498 12.601386315349698 9.615086610981448
Zr 8.414663521153834 12.179204853059291 8.7492929060015
Zr 9.973050310237841 6.508237652952581 9.113347326803023
Zr 12.863804191073985 10.367067477720983 8.800503735852907
Zr 6.6689089440389475 10.940653077511639 10.75593055189403
Zr 12.241469472837897 10.803958171748592 11.486636872738297
Zr 7.4428880825059975 8.160449847477558 10.109731626427
Zr 12.181780785830489 7.966376241906362 10.4910088244456
Zr 9.31197074056053 11.736510017404049 11.730985420994463
Zr 9.948299245049343 9.693671389536032 9.585421603025216
Zr 9.60733272119876 6.960170634006791 11.750424343731117
Zr 7.8739683454679765 9.29057125516549 12.738399407092418
Zr 10.667609614970853 9.199678934987492 12.862520168074553
