11
Energy = -72.94535039 eV
Zr 6.730218444113439 8.018522369675901 7.18376226276394
Zr 9.388514506948635 8.692975007621502 7.995846431960878
Zr 9.662845665777121 7.573212140887338 10.981195787269353
Zr 7.869331353462072 10.488242052108957 6.092753802645007
Zr 11.478129329081167 9.532188003615577 9.70258172515416
Zr 11.445270165416312 6.739253353114366 8.938767180917772
Zr 8.625864414967479 6.046501133047132 8.685359360101373
Zr 8.844471025326655 10.298570370920217 10.784935526249662
Zr 6.844322873466772 10.51798002566958 8.76426482614707
Zr 9.58493407791557 11.524312531269521 8.204555793005957
Zr 6.9820499695173215 8.024195012070155 10.121928955770217
