15
Energy = -102.86404756 eV
Zr 10.926250382036491 11.703554636654705 13.503899190287395
Zr 9.91848827456487 8.900496211628544 13.470699154807583
Zr 12.635690928235196 9.632943495258628 12.346198103208078
Zr 10.19337434806309 10.46399222592201 11.023342132598959
Zr 9.574647601603269 13.228383938267813 11.31851889577306
Zr 12.492426866700242 12.273463738816128 10.883630407508246
Zr 8.045596326122146 11.081012276255256 12.889279297698415
Zr 10.495970479890541 12.038286036477674 8.525996500656117
Zr 13.320174742052833 12.045464497789851 7.77238039638398
Zr 10.750609697812026 7.616250211345051 10.850317273924759
Zr 7.719304799715493 11.24730888045564 9.845372099690547
Zr 12.44813430710803 9.666861334972447 9.244287039555719
Zr 8.021697875041765 8.593624486485687 11.203608649451622
Zr 11.757800503561576 10.35775933588743 6.48945550246125
Zr 9.52541108217634 9.10177022152414 8.526708721094767
