16
Energy = -106.94213568 eV
Zr 11.930070985199743 9.3313770288799 10.619646855371188
Zr 12.721452178786599 8.045903642537093 12.86727312804528
Zr 14.06169097764179 11.309020589292736 9.65143347252456
Zr 10.98995779732498 10.273253792207823 13.49171443133384
Zr 9.229473404032955 12.781241016346856 12.630528749429974
Zr 13.63808951522874 14.183718367000191 9.519946594690445
Zr 11.538365212279004 12.2453637469508 10.78842403084359
Zr 11.860458723450098 12.981304004887388 13.876481519503484
Zr 11.225807415326871 14.916502741890026 11.32092401713395
Zr 9.243476244812141 10.369888906127967 10.826755197729101
Zr 9.839895010280534 7.924647300637184 12.271063491208974
Zr 10.560099283963442 15.369427833351873 13.866827062777396
Zr 8.110248264229458 9.998622313720455 13.310632529869931
Zr 15.901624500631307 12.715215107446108 10.895342323995026
Zr 13.844397774255025 14.046921119014264 12.309245863220335
Zr 13.810086380036614 10.93432742464217 12.639791674846663
