14
Energy = -91.83789344 eV
Zr 11.488572491850872 11.798657941807353 6.836737027486847
Zr 11.149730627118576 11.83394620992993 9.729742195122954
Zr 9.057770705737852 10.694553926677038 7.754195895519591
Zr 8.30104867641352 11.731910412678165 10.613612856644135
Zr 11.79022874321829 9.29180284280571 8.031456728237233
Zr 10.41481647119303 13.761025055409126 11.865278946725379
Zr 6.864360480984144 9.54039004063541 9.475045397670733
Zr 12.720961143820688 12.619327130243098 12.129933573477047
Zr 7.798374851180985 9.289389929837146 12.134765892011186
Zr 10.357127548595209 10.856613954677172 12.538047302879967
Zr 9.729843049193935 9.039012806791543 10.008992888733394
Zr 11.91800114653428 7.044423381438988 10.022988528265762
Zr 12.60141335581019 9.614079180962703 11.060431265282302
Zr 10.73471008880851 7.857793035076709 12.455276351037016
