12
Energy = -79.46845103 eV
Zr 12.880583708503554 11.42910092995254 10.751093290498163
Zr 11.595936198429834 11.392429532334278 13.058446781022075
Zr 12.615037143271474 9.741639855240088 8.788062133337375
Zr 9.142014884164745 10.385405088031904 12.662231197020313
Zr 10.001910322929536 10.863968166291341 9.861100568563968
Zr 11.594076326258632 8.872606144635427 11.534511611873445
Zr 10.566740209645973 7.92037806508645 8.893820073697833
Zr 10.16908954993584 9.985703759144156 6.928750890285681
Zr 8.623431695200786 8.237785786187539 11.044727921364958
Zr 7.871281722126807 11.626761030788893 7.775125732391658
Zr 7.133778510616055 10.726672427490351 10.50909513803123
Zr 7.944706700865083 8.956741540076147 8.378049261257646
