13
Energy = -87.03946636 eV
Zr 11.416249826364295 10.893385058957161 7.931037691022746
Zr 13.562013168823265 9.390798315603481 9.242474475752129
Zr 10.859340422385353 8.396212869213564 8.902165063737705
Zr 11.873953489016104 7.67760905976083 11.282549851368582
Zr 10.420896037826362 13.009125981779944 9.723122580506228
Zr 13.435234037326998 12.240444140776301 9.214650271865652
Zr 11.816476169843964 10.750778964256293 11.082603547773305
Zr 8.834868302281583 10.502400333973359 9.35523772506516
Zr 8.55913479244978 7.61936485235416 10.404035387083194
Zr 7.361088386095602 12.7372344598259 10.428943140327911
Zr 9.649444746314614 9.161747075763182 12.309718798991266
Zr 9.281697699590442 11.87354856176553 12.183129477818703
Zr 7.020337102078802 10.125121382119133 11.558571927140697
