15
Energy = -103.23086891 eV
Zr 10.489321635691507 7.748011066794004 6.367852789571637
Zr 6.514158771470414 7.680389904088278 8.986347713168104
Zr 10.312592088098517 7.741680175705829 11.848228232930222
Zr 7.7674864475981344 9.077786165657788 6.531265080435104
Zr 9.207068516072782 9.063042940898645 9.070040159386581
Zr 7.606517107188343 9.07586266603062 11.510782610624407
Zr 10.338057207056755 10.359312197810556 11.849968865064282
Zr 6.540710705795459 10.498603050097094 8.989386407707109
Zr 10.509997513182663 10.364484076266566 6.364685135970612
Zr 8.672193943644304 11.840223982149347 7.632687730292263
Zr 11.159642112969564 11.309033905275074 9.128252566766875
Zr 8.585282477919375 11.838861425243051 10.471799132863607
Zr 8.532110632661503 6.2970822203642225 10.467026057692612
Zr 11.11755182237689 6.778217346886153 9.128368430234156
Zr 8.621071518274032 6.3011713767330155 7.627071587292174
