17
Energy = -117.38937223 eV
Zr 12.398155562139308 9.826253482224288 8.25482463132168
Zr 12.731669320375932 8.662233925192478 10.728911613768382
Zr 11.95791347316595 12.626262982244649 7.862586536398346
Zr 13.486391078280578 11.726384096063969 10.450407720485623
Zr 10.487000572063593 7.625393914728183 12.198044474350688
Zr 9.87240868399422 8.517624686525087 9.505674933693689
Zr 9.759138369851001 10.7397125624822 7.3952634504246575
Zr 11.350664689888234 14.20674053939929 10.198119875686556
Zr 10.688221149606571 11.235330013279619 10.193628148199625
Zr 7.8129101450245875 10.904069847872826 9.596426059417418
Zr 12.69249447501734 8.385556107977449 13.767103927864383
Zr 8.431048629218848 9.661631875570444 12.015483232270846
Zr 9.977698715145795 9.019103787995489 14.57830701721116
Zr 9.127399007560893 13.279098929497948 8.698465564791192
Zr 11.334134993337983 10.600578212278645 12.79982351171401
Zr 11.904088273221305 13.28547674559728 12.570088318509956
Zr 9.000908195496379 12.820083021699952 11.831618596841478
