19
Energy = -132.19896075 eV
Zr 11.460509963145524 9.748835706280122 6.818586483083191
Zr 8.750150466313094 8.742209759056868 7.03269141390775
Zr 9.29910031612391 11.670688840121006 7.340134493750408
Zr 10.871996409788844 7.3074272227239465 8.425067613646895
Zr 12.022352061256283 12.008688823723674 8.707081058472783
Zr 13.051557894083654 9.075041106581148 9.04972830948743
Zr 10.185706520998467 9.98578452032262 9.534717729355627
Zr 8.890980158103321 12.511459568573677 10.249653611964385
Zr 7.209771895813983 10.33623553100431 8.89348732753724
Zr 8.288861940563125 7.714130550998596 9.708733259296308
Zr 11.104883715997623 8.208070356460217 11.38478935497902
Zr 11.733438225676483 13.468306277670852 11.132842277228697
Zr 13.19605899133435 10.70280837627375 11.30750259859833
Zr 7.962605551278321 9.880371377437763 11.601153983534557
Zr 10.401895232293967 11.051138881555788 12.473747273861996
Zr 9.902627179885984 13.62128871223134 13.459132839114506
Zr 12.34267576654881 9.748357608243044 14.05836402100204
Zr 12.708256890572772 12.642144567341257 13.580996496843674
Zr 10.70376208282322 11.664203476000285 15.328781116936064
