11
Energy = -72.11845225 eV
Zr 9.065613932710756 10.480373844979528 7.76251515573538
Zr 10.915258691255639 8.152311653205008 7.089148682360461
Zr 8.161404731612414 7.893371472902894 8.079008534647773
Zr 11.848256026723387 10.874948969926674 7.838582345225723
Zr 5.695985744106808 9.17335312535365 8.346500265318614
Zr 11.471142551984258 8.93632935360848 9.724031694410172
Zr 7.201794208388815 10.432599451539494 10.181820991796673
Zr 10.09891372857667 11.564967074417874 10.119233193386414
Zr 9.898107200688376 6.509778125355126 9.639613177326286
Zr 6.8821783863073875 7.4897218103362695 10.466907595739784
Zr 9.217455428002651 8.948355748731567 11.208748994409877
