11
Energy = -71.72484637 eV
Zr 11.28054196984682 13.876320150442377 12.193508126393885
Zr 13.285176767608956 11.79077573947534 12.48318565493197
Zr 13.840305440926516 14.543858248587984 11.274470601137166
Zr 13.131236059328865 12.375237001795062 9.620812791450431
Zr 11.62571335100752 14.755478829138081 9.553078070689182
Zr 12.223878476586158 9.916844093963885 10.482833902453633
Zr 11.992275804975783 8.846864519807795 13.05566064237253
Zr 10.395321923037324 11.245458511475933 13.01694245154805
Zr 10.262567361552469 12.079292193444411 10.149566145324311
Zr 9.684981144426564 9.056484267471388 11.292215584740097
Zr 9.411716835220071 8.647101578914906 14.011441163476539
