13
Energy = -87.24946538 eV
Zr 11.228443299705773 9.928174182427753 7.507060431118913
Zr 11.617889730316115 7.698653253999429 9.420574066028575
Zr 9.247188149463954 9.37093899334265 9.560266422459167
Zr 9.00169884208655 11.816051387708818 8.00522872014194
Zr 13.385300070154226 9.951358399067992 9.450683332350485
Zr 11.70577485583281 12.598693727211753 8.541266313397436
Zr 7.127051511701798 8.686820657767411 11.471860615870527
Zr 7.102918524234344 11.184393523194537 10.335858002757265
Zr 9.530690352953865 7.370401758643618 11.653779561423368
Zr 11.497112390620131 11.260209665070363 10.876277270617477
Zr 9.339696388192701 12.900154284471393 10.618643570652962
Zr 11.929073920912083 8.827933654703447 12.017702081046899
Zr 9.193260857559347 10.342323810539408 12.457189723134443
