19
Energy = -133.31058695 eV
Zr 10.853068499046646 8.925358233577137 8.090490906867778
Zr 10.994949502756633 14.54544055830697 12.410045186958692
Zr 13.513668328404373 13.588531391792213 13.484538115147727
Zr 11.449589084900532 11.507451985140607 12.47961702527795
Zr 9.74350610298289 11.545450139715173 7.712025113705612
Zr 10.080405678663448 13.2135689220083 10.085942493949803
Zr 10.325672570861906 10.598767027497052 15.192061511644129
Zr 13.111519003367837 13.500806439575625 10.680424065114833
Zr 11.017885089023105 13.30833169205643 14.937294935882603
Zr 14.068247606425965 10.806487600457654 12.172515488187056
Zr 12.310168972242497 8.906839964478403 13.913837525940197
Zr 9.59675674436437 9.109547203864947 12.917026779946294
Zr 9.343045157138445 10.281408224181382 10.338385146320467
Zr 12.008026024275571 13.318027407819264 7.750293705856801
Zr 12.36819994123071 10.984187161189688 9.3752308260699
Zr 11.852432720098946 8.6844693213747 11.113210079884766
Zr 12.101837734456222 10.828794733294574 6.379676725708193
Zr 13.158042883839956 11.313644783778644 15.088515763221805
Zr 8.90453523288506 12.206998348066428 12.913156177770206
