12
Energy = -78.60469732 eV
Zr 7.701873939122764 10.073570706609637 7.509682262836916
Zr 10.267237558991807 8.978178610979908 7.2700897448636495
Zr 11.0695554265202 6.557065139386128 8.38809867218259
Zr 11.229654080957703 11.489174403332962 8.427441008989048
Zr 5.485763739743481 8.674277319967121 8.585656692151671
Zr 8.16009957850261 7.279360489736385 8.411504524840295
Zr 12.354939995193142 8.970865136929008 9.223118396722635
Zr 7.23364489100057 8.621050797106182 10.84018673812569
Zr 11.517893641668605 10.424489092261544 11.336351887647943
Zr 9.181345226193818 10.523265934331254 9.987743566309632
Zr 6.203143234665275 11.116162522480051 9.751875626720578
Zr 10.036031330608358 7.733722490047885 10.709433521777834
