13
Energy = -86.35918251 eV
Zr 12.970084476312532 10.46556552946131 12.005906369516188
Zr 13.203412520089525 11.281405107736193 8.97945181273262
Zr 12.109554205441084 8.858498647933793 9.754866043371106
Zr 11.11839732009512 12.15164489508321 11.01686881749659
Zr 10.695992190496934 8.659014275096245 12.035120951471916
Zr 10.315922974806846 10.86792821455284 13.65547442693609
Zr 9.471325050149181 7.664241033967981 9.607289021089773
Zr 7.945750743741945 8.978299984150238 12.031299394672534
Zr 8.297215643495491 11.69350083086833 11.9966587833145
Zr 10.835148255999401 9.390412043284723 7.356642987075519
Zr 8.792140261267578 13.06572363914751 9.664764242459587
Zr 10.754110635568782 12.047833361271763 8.0201842105382
Zr 8.740297145020453 10.249037800105008 9.38748876019291
