16
Energy = -112.51713628 eV
Zr 11.237373216929932 12.886191469226853 9.669467646535892
Zr 12.088034207158033 11.232305544056956 11.782735790001508
Zr 12.570079935777626 10.354832155052891 8.698172918708032
Zr 10.101304129576553 11.72311257005174 7.382541377653893
Zr 9.537561340348269 12.387493373105135 12.011334003655055
Zr 12.320863503000968 8.545494529312247 11.382635869690304
Zr 8.324276944441236 12.682334533766104 9.355200687315548
Zr 10.328583770117449 9.034266225065519 6.980509637933842
Zr 11.709636154671987 7.458332177222749 8.853848051472367
Zr 9.937062646412667 9.937243035809283 9.93869309296188
Zr 7.27520970410481 10.890799576081791 11.248914467110334
Zr 10.014275327855023 6.958184945698335 11.19660007296825
Zr 9.722832279893622 9.481118400077941 12.831746669768156
Zr 7.513985849252843 9.971918658748075 8.27852126826281
Zr 8.798677822952044 7.251484910162565 8.539501351380483
Zr 7.51195336761336 8.201030763932131 10.849077628443554
