10
Energy = -64.99773326 eV
Zr 12.590935829154574 9.82051501969962 9.484771847533485
Zr 11.615943912376164 11.804048181089652 11.400498866310121
Zr 10.596651043354122 9.125760894077494 11.211535905372061
Zr 10.025800162983595 8.875860853072524 7.930019739404568
Zr 10.311737607599262 11.433379453555933 8.982116019083625
Zr 7.636210859571077 10.7127428891538 8.244545344467532
Zr 8.741428864706466 11.52099186532949 11.311306109300299
Zr 7.339015678338551 7.86124748951441 7.905635482698637
Zr 9.496861379555373 6.7172763803206275 9.51229351179803
Zr 7.947414044052451 8.924959225303178 10.39150264968602
