10
Energy = -63.40125384 eV
Zr 6.653079726085887 10.387648091563582 9.100683929591035
Zr 8.980387805407496 9.117106716605335 8.212950575350668
Zr 7.436548353982614 7.60071465871233 9.709045717099476
Zr 10.340516353518005 11.453552508292029 9.42260217937323
Zr 8.137810158702006 9.855705965469737 11.20802646552545
Zr 11.651472532503051 9.184318771321875 7.921395461997238
Zr 10.007392998568122 11.401447136597183 12.394398341874902
Zr 10.933059120887616 8.987947170277875 10.810976154686587
Zr 12.45976784201396 11.609710879915724 11.580473789121326
Zr 13.273791400312026 10.397361532178847 9.556327819287791
