10
Energy = -61.53458624 eV
Zr 6.356279455974095 7.931156488685438 9.851726856702426
Zr 8.69125761 6.251423243093484 9.855135042418345
Zr 11.026235764025902 7.931156488685438 9.851726856702426
Zr 10.125931443677166 10.66564679078077 9.854075394490671
Zr 7.256583776322829 10.66564679078077 9.854075394490671
Zr 6.356279455974095 9.451358731314558 7.5307883632975745
Zr 7.256583776322829 6.716868429219233 7.528439825509327
Zr 10.125931443677166 6.716868429219233 7.528439825509327
Zr 11.026235764025902 9.451358731314558 7.5307883632975745
Zr 8.69125761 11.131091976906514 7.527380177581652
