16
Energy = -108.29560523 eV
Zr 12.18489731738123 9.599200410521734 10.628979332897032
Zr 14.873226857561015 14.52044238192295 12.39859442846276
Zr 9.626362070402308 12.053789801366936 12.26014801321148
Zr 11.367459302438371 12.442621335727011 9.901015161962173
Zr 13.694132352104074 11.249122982386611 8.663525592984433
Zr 9.318971318420134 9.979961014444957 10.049939975305938
Zr 11.244449801649615 10.30649207193003 7.949011537049631
Zr 12.162470183573978 10.877712243013884 13.508864761049868
Zr 10.925279881141389 13.192615554993035 14.759378245285488
Zr 14.064494062141039 11.806518465060293 11.553737900308354
Zr 9.440231877081292 10.68857027869336 14.78063045816158
Zr 13.82198197009257 14.114321909074615 9.867062776956573
Zr 7.662753880240969 9.948069985059302 12.649731292586228
Zr 10.187446372255138 8.958937803546629 12.663855570590004
Zr 12.006646787377841 14.11141066163129 12.214935944874895
Zr 13.786051568379568 13.274292772164944 14.425888299247294
