14
Energy = -95.98659967 eV
Zr 12.259925765686798 10.44734142022785 13.566058831220921
Zr 12.774424410023565 8.918094513557756 10.630827072941207
Zr 9.439307264278552 11.576496339712543 13.358913915929241
Zr 10.195363034788555 9.347008703931198 9.073468169242327
Zr 8.219426773018427 11.004640968651003 10.649977399799043
Zr 13.870869145077098 11.678000003639596 11.297057121435765
Zr 12.608680105638285 11.110130309413847 8.607604366743367
Zr 11.858965064282016 13.317278740284914 12.854062224310887
Zr 9.882128746128128 12.351350496446338 8.554342244020669
Zr 9.422968123752522 13.698508392345124 11.150873467768317
Zr 12.11008313170345 13.76262835573886 9.901208653489272
Zr 9.738903348458637 8.846733822794157 12.041900466998312
Zr 11.053843428833721 11.258961351477351 11.018730004014644
Zr 12.073555429430773 7.726917974648747 13.044234257726323
