17
Energy = -119.38164934 eV
Zr 9.758985865219076 8.913315641877698 12.97946956130607
Zr 12.268472281688387 9.638759678405611 11.655378374209915
Zr 10.037073542747901 7.05865417240252 10.472653865921608
Zr 7.690468039336016 10.878641591345396 12.397521185202342
Zr 10.275609274477189 11.717854737396344 12.578144626128516
Zr 7.4757865424703605 8.136809048620878 11.566272732434864
Zr 11.714726204115081 12.489816783429387 10.508097876783385
Zr 6.628515921880233 10.410599918866687 9.8365150131528
Zr 9.895784871791287 7.847156873067615 7.531303664832037
Zr 11.906535092227521 9.592167629701411 6.64812032235707
Zr 12.328069189797707 8.140636984418274 9.01532805875107
Zr 8.287232941029698 10.507555173339483 7.489524723863444
Zr 10.836758998483527 11.87611501153017 7.876809734251668
Zr 9.790096840810854 9.898588511250697 10.045094249340828
Zr 13.241039516289547 10.77492387225856 9.051715322809265
Zr 7.55427831437415 7.95123809278785 8.82735187375409
Zr 8.699046958841695 12.555646674881016 9.909179210481366
