12
Energy = -78.98800129 eV
Zr 10.175462022292121 11.80539401633213 7.613428324001093
Zr 9.432020186821507 9.753931285311609 9.116923810796457
Zr 11.14211886007271 9.010966451984283 11.180068233584473
Zr 12.447365438871524 10.655506970004588 9.13529202787006
Zr 12.036388247914903 13.474292057487459 8.446640029367494
Zr 10.226112372202568 12.143131372103495 10.519257083923579
Zr 13.014558685851611 13.129931223146665 10.842857321249406
Zr 13.343560773463487 10.575046441418037 11.98159921610421
Zr 8.897783728508962 10.05777929571311 12.491841660092723
Zr 11.37124306198602 9.389520077293117 13.972460869300686
Zr 11.173872348932171 12.07303162762576 13.164026290403665
Zr 9.259430019943398 10.981290027521059 15.017898646048621
