12
Energy = -80.51705931 eV
Zr 9.4231645756184 9.670040909796622 9.125305484826875
Zr 9.08911239761174 10.759563481099612 11.743796791897148
Zr 9.286396345535067 7.882962946911863 11.544062378372383
Zr 9.099084871330254 10.73187185535897 6.4990476003886934
Zr 9.292506363706787 7.857942083032626 6.711339157612208
Zr 10.832622606081403 6.990808896364394 9.143550031289159
Zr 7.412270426812692 11.702686348558641 9.104750667765853
Zr 7.882467539774344 6.883743600844891 9.122643177522319
Zr 11.744180946392415 9.241891838781443 10.715394627928633
Zr 11.7335478663997 9.236255075060742 7.532902786115324
Zr 6.853088316429234 9.272660874416747 10.60004753128518
Zr 6.844375744308213 9.262390119640859 7.649977779929923
