14
Energy = -94.17157349 eV
Zr 6.765195706945701 6.583888839673387 11.668861007197357
Zr 8.12566581220881 9.161040688365977 11.19053573660805
Zr 11.445491574057879 11.007745152902343 8.259926502120834
Zr 9.001395384044663 9.206919154386798 7.451792682940854
Zr 9.250705072207275 6.236601316283113 10.88044484753587
Zr 10.146046810118238 6.404836040315137 8.173888440721557
Zr 8.926029449197252 12.023119536065037 7.0925774585534045
Zr 5.332161420321116 8.503860875861772 10.554562998162146
Zr 6.695666289847671 10.36630030399333 8.927344513496504
Zr 9.265289464728163 11.314542657464054 9.862798301128255
Zr 10.79456645739675 8.637779426513198 9.981821719350384
Zr 7.357092817006993 7.308010576838459 8.894257882248883
Zr 11.79826650483412 8.350247238791372 7.169742815556775
Zr 10.792818929972034 10.591499885432981 5.587836787266252
