17
Energy = -117.26880149 eV
Zr 9.51806041781699 13.151921033480589 12.736174203009174
Zr 7.549751361453288 10.731581638203146 13.329718631624786
Zr 10.415897950354633 10.646980387910874 13.690111378118788
Zr 12.093667826265865 12.081373224256085 11.683667537623077
Zr 10.28361317312955 13.723116281898383 10.119867595235863
Zr 6.982582598822256 8.801200839435298 10.872114980413063
Zr 9.085096160202479 8.360167879713275 12.707015374018855
Zr 9.040855875583539 10.874482855975822 10.966300744113774
Zr 12.665959224366143 12.974038398278045 8.895424901114882
Zr 11.771212151491163 9.034609320266599 11.568248508435826
Zr 10.727494840929523 10.786889758014032 8.912570589184085
Zr 7.833393900691898 9.522372223536166 8.318018569937893
Zr 13.658142043320495 10.466333909133912 9.736489072828723
Zr 9.581990073753731 7.7673479771432605 9.83310887637802
Zr 12.734352451549888 10.435256691239612 6.99073764966221
Zr 12.324687232200226 8.181919432662575 8.75541436512843
Zr 10.129064082290569 8.628342688750267 7.031469496139151
