18
Energy = -125.40118822 eV
Zr 13.703622950892758 9.957434089190848 11.194693991625492
Zr 12.074110674849498 9.335366858066148 13.17793417918248
Zr 11.264872027949421 7.869205799955591 10.294799527912803
Zr 12.939295252766001 9.363059498531504 8.63396762745555
Zr 13.334467142261792 12.21857186740646 9.464292357205844
Zr 12.31107560830655 12.332915972285049 12.550088875038897
Zr 9.72425270790011 10.851479244956328 13.850538315484338
Zr 9.68287116431316 8.133371626164486 12.58605278449646
Zr 10.728377216402183 10.72295943738453 10.745726890699107
Zr 10.031586472865301 9.474114081838634 7.909043287650401
Zr 11.015912227359854 13.764215759381432 10.16814032410899
Zr 9.383195312226254 13.144449760808302 12.1495460221832
Zr 7.224060008785882 8.87854378731134 13.036101500852155
Zr 12.561554759494571 10.887528704548386 6.553145005486507
Zr 7.572404169552733 11.125414969168647 11.775005754329568
Zr 8.301860809003257 8.803980876472544 10.020875576117625
Zr 10.82451142764911 12.358627578852518 7.827461193310157
Zr 8.46352910161512 11.831227827551668 9.228453697263681
