15
Energy = -104.79457933 eV
Zr 8.644590895554044 8.580936233629128 6.218328477046939
Zr 9.38416142407605 11.283690688290825 6.91824998023691
Zr 11.41912718314865 8.922380664674884 7.735356883780869
Zr 6.763091096889284 10.288911292490111 7.720988863113494
Zr 9.250457796925708 9.176304940019847 9.152339018861156
Zr 11.112892822791807 11.724139627429421 9.10500166883022
Zr 6.789532248665015 7.546302435237991 8.217850240954858
Zr 9.455161799907629 6.418971599644243 7.858153051908357
Zr 8.197177102406192 12.006500283552853 9.479798079797197
Zr 8.135455501747355 6.641284973751506 10.48874651763215
Zr 11.024079981616937 6.918774219866538 10.234795431374302
Zr 11.932552217222197 9.53634639993101 10.769096251346852
Zr 6.841660359277252 9.415916896052988 10.661422348909303
Zr 9.914838945911571 11.358127314757198 11.68691222346571
Zr 9.49707506544545 8.543266872256753 12.114815404327263
