10
Energy = -64.95362553 eV
Zr 9.114644358313612 9.8634737400477 7.710359483662406
Zr 11.81806442454063 10.457855162194717 8.401358683009537
Zr 6.473224543170963 8.983973923568671 8.113430059830616
Zr 8.415683910308335 6.8798136429547805 8.163307236031494
Zr 9.97271616055155 12.288558955052318 9.201816135653774
Zr 11.081878272865312 7.814883355947458 8.703955824158232
Zr 10.24518363650781 9.83912698527733 10.763051710603097
Zr 9.775756934768808 6.595059101694892 10.77880162816377
Zr 7.706956522334609 8.369720575229168 10.474589844955773
Zr 7.6093853806279705 11.121028702022857 9.902823537921458
