12
Energy = -79.36262048 eV
Zr 10.915289931994288 10.07377756648158 7.580816911739128
Zr 8.038259286092433 8.961076480638297 8.07209198578633
Zr 10.850309345964773 12.852083507236364 8.737500905847035
Zr 8.39338824927712 11.706311100716205 7.915109846719078
Zr 10.141999596861977 7.255347901261252 8.269157953017924
Zr 7.745661435319762 6.309658832576511 9.535627837891205
Zr 10.336732756805011 5.678144494861189 10.551309811815074
Zr 8.605333065647345 13.051261837867248 10.354925337677834
Zr 10.00962015567062 10.493552123863905 10.19178764732633
Zr 7.126849925513244 10.509561767886865 10.32521419008405
Zr 11.870698073805665 8.103026336547007 10.343826659760179
Zr 9.051502602352938 8.091842475368743 11.208275337640988
