19
Energy = -133.58186941 eV
Zr 13.42699369367236 9.523279069376285 9.949778409170383
Zr 11.40648055404475 10.953682402576245 11.865108065735246
Zr 13.701253833041486 12.404775471701155 10.236179324071324
Zr 11.747972956738726 11.01336694989111 8.273769891015204
Zr 12.464331356368849 8.028187750811567 11.997785355386966
Zr 9.637310649084815 8.42149823046959 12.60968306301295
Zr 11.966190540357495 13.921379484107778 8.274651309222795
Zr 8.70694960858404 10.619141276337498 8.527564130157165
Zr 9.76036011948616 12.683344457568953 7.078373231403322
Zr 10.548554292572643 8.784687943555358 9.857182921340877
Zr 14.106432345256323 10.51771423263781 12.742033339084188
Zr 9.681134262165287 12.914017135625455 9.959357693512755
Zr 11.836032641406256 9.096937012094246 14.435988768092532
Zr 8.373630146519044 10.900886157204878 11.63090984614065
Zr 9.425136687987663 10.69738282166741 14.302344434610223
Zr 11.78293155463311 14.589116124379597 10.99219630422409
Zr 9.963348508252341 13.311232197157153 13.027385587756644
Zr 13.122585415917278 13.362037575119082 12.959215132810566
Zr 11.957386164387476 11.847856674656091 14.817808016380802
