19
Energy = -133.39551704 eV
Zr 11.1115917649058 8.964532634575262 5.959053931947338
Zr 11.276920378869523 11.769472793085482 6.513667463875051
Zr 8.880092510521218 10.361191473147215 7.584085284198108
Zr 13.62202156426471 10.253708616084525 6.468706093185674
Zr 6.989060945390038 8.637359736513734 8.923891750678514
Zr 9.660685220799843 7.53445744751052 8.431031151555501
Zr 10.240930403675394 12.344277803861923 9.186969791250172
Zr 11.753921260832348 9.555744970719617 8.677106026124077
Zr 13.233642563794843 12.06807136146376 8.606826622044535
Zr 8.225092734964745 6.789342836086102 10.76803936594766
Zr 11.118443744300798 7.7912820233573425 11.357217219397016
Zr 9.25756829687877 9.711711875514581 10.656472688250334
Zr 12.151043320023394 10.84207261915643 11.251822642031032
Zr 7.317987637567352 11.501929824869984 10.244937244652897
Zr 6.440522472054656 8.894151202100593 11.681307180396708
Zr 9.78331010124572 12.411449688823987 12.014302683385159
Zr 8.71675450116003 8.001413034607813 13.254984007369499
Zr 10.627974185211517 10.031863739941855 13.44906535260173
Zr 7.834969342050969 10.778499267091355 13.213046449620773
