15
Energy = -101.65962994 eV
Zr 8.765815776011294 13.285355648682314 10.354469326317137
Zr 9.60909046632895 11.339481563197946 12.944885478228242
Zr 7.3449668357517535 8.89537642349165 8.817911535269365
Zr 7.923351792843769 8.691886308739278 11.752055431209959
Zr 10.697246179198212 12.395465873356773 8.276985233646599
Zr 14.078792785657466 11.426593432549556 10.665802185047683
Zr 11.469171969108581 12.895794451660006 11.085597497355904
Zr 11.948745146551348 9.952413252751494 9.797160339699868
Zr 10.661470068593927 8.520051192491666 12.4175136844912
Zr 9.340806488936952 10.543260230354742 10.174564526750853
Zr 9.78180381507033 9.63275719450373 7.4323989120858345
Zr 9.815447629211087 7.643485483839245 9.71870003099097
Zr 12.397105864641865 10.786147548977059 12.815103685390751
Zr 7.880186631333052 11.748885509085044 7.934747256197516
Zr 13.546119563367009 8.573083170695766 11.542695060726148
