13
Energy = -86.86670133 eV
Zr 12.146608707438823 10.140750195902216 9.836073765719059
Zr 11.627623043754586 7.504972779248957 9.04491468054885
Zr 12.169186103652512 8.59363177668466 12.128525560835165
Zr 11.819779823146975 11.603807309979763 12.159701127753326
Zr 10.03226308474481 9.918535341233273 7.966594229773813
Zr 11.02999489256095 12.611933332670489 9.107285125227202
Zr 9.173655010250425 11.687590339687587 10.845604794633132
Zr 9.615500044224902 7.9330737938035645 10.793967503649238
Zr 8.068507280522176 12.016169910512742 8.24760885060514
Zr 7.363685432145841 9.622587421449591 6.977959277231057
Zr 9.663247654817022 9.817755746811065 12.85643937242986
Zr 7.40348393706291 9.588112135394368 9.870605530656702
Zr 8.60355990860539 7.421571903327293 8.184841466222814
