15
Energy = -100.67952541 eV
Zr 7.326077151077116 9.519901720486128 7.590224487585579
Zr 6.004334030413702 11.623365613791345 8.640470796127154
Zr 12.337688732456218 9.377785071898026 10.405273473986146
Zr 8.175323080266244 7.139641675453691 9.84924352419551
Zr 9.946674754923801 8.256490690194138 11.818177203325407
Zr 7.451659818593452 9.901488631412134 10.799372109137385
Zr 10.261985800987986 11.174553528793307 11.338655666982834
Zr 10.054188890994183 10.193645801554617 6.235862203756487
Zr 12.469771112495001 6.670307677216967 11.55945510249518
Zr 9.80598129551986 9.562624439221059 8.965091319236878
Zr 10.96347848758085 12.132045388231884 8.430551568810511
Zr 11.078538854557896 7.036337314176821 9.159602040155255
Zr 8.40619418212018 12.47696840725416 9.76460443386716
Zr 8.35371101657567 12.217558475165394 6.943224885440257
Zr 10.042807160964692 5.395699934677007 11.178605554424767
