14
Energy = -94.37984452 eV
Zr 9.30405174609152 10.977531537471032 13.214702393985222
Zr 10.370684985093279 13.445074115784342 13.473283752048003
Zr 13.376298703751713 9.367105741023833 11.468480902670455
Zr 10.935567729024692 8.732868552005632 13.07707227430964
Zr 11.477434277857862 11.595775191489942 11.19664454406973
Zr 13.315347378924251 11.538080638445676 8.98074152627594
Zr 11.432802891388176 7.341964265534407 10.794294501761419
Zr 11.92793685032575 9.14575831492561 8.825378548535584
Zr 9.054428760317057 12.851547028011067 10.770122549707638
Zr 12.20249905446546 11.048837039797812 13.938407730271098
Zr 11.563347074117996 14.648030891490993 11.494908868631217
Zr 9.392666891347229 9.561550427848902 10.540798387906833
Zr 11.359052435527447 13.863234942435147 9.019163977728402
Zr 10.40353503542462 11.418195193946364 8.374873917901377
