17
Energy = -116.13263908 eV
Zr 14.116488559500294 10.645367679786629 10.729044553078273
Zr 13.075315632413899 13.45892650795089 10.809638731237174
Zr 12.229841002915553 11.717084469006153 8.511478920425226
Zr 14.967678583643922 9.721581992175253 13.470640587634808
Zr 9.66461093879446 12.72482773064659 7.231752539106693
Zr 13.198249625656004 11.984648341529477 13.452733599626582
Zr 11.873564379445064 8.963938934005942 9.661978331893778
Zr 10.175870568092453 13.667535294898277 9.898122951648048
Zr 9.34946861548304 10.567233772829647 9.109102520869104
Zr 11.268584472663695 11.26516466888195 11.272826202554633
Zr 10.677281698508326 13.56281147075679 12.898629222132394
Zr 12.35961009310906 8.83403575704368 12.64578284507586
Zr 7.562480121654952 12.81855402984662 9.050302274614896
Zr 12.866160115173393 9.80664052958022 15.30428104890049
Zr 8.429505327620513 11.879991753194433 11.821119075306935
Zr 10.313985115816628 10.811913650438587 14.044366568054432
Zr 9.481917694603116 9.066949513057782 11.753886396012073
