19
Energy = -133.79406576 eV
Zr 9.296732104471644 11.858901411187599 7.379179201746572
Zr 9.99450971468767 9.18011266734545 7.137204782626528
Zr 12.099788855353193 11.101580748362549 7.854166539682766
Zr 7.453833731798196 9.859783569481019 9.016898507261606
Zr 8.119246394443293 12.79053482036958 9.766713374060656
Zr 10.893222240978712 13.357463692764668 9.360957551752584
Zr 9.442697485051271 7.390789809528023 9.18992962490865
Zr 12.188188544038079 8.422569008707613 8.94262788127858
Zr 9.991128601679558 10.321069913502368 9.952616572687782
Zr 12.397307379226396 10.831582278642667 11.003235718532487
Zr 13.003960963552455 9.252835152121863 13.382069171077221
Zr 14.619773538232531 11.556177981344094 12.6154214052152
Zr 7.645096364732355 11.026472476023187 11.879536290242255
Zr 8.263791656518219 8.319655508224534 11.578126222219456
Zr 9.981973945956613 12.884160395090282 12.108304978321911
Zr 12.857927260847024 13.650768266158861 11.613361266347425
Zr 11.073540377741386 7.786294593769013 11.618132557851345
Zr 12.159052425656224 11.9817284963947 13.878091695770653
Zr 10.076613996986096 9.985904792933262 13.281812240367518
