11
Energy = -71.86271209 eV
Zr 9.31478519929984 8.35859467250984 6.680285187875529
Zr 7.949467755014871 6.196831052125131 8.294290244110336
Zr 11.234131057877075 10.48861249282575 7.0912527192695505
Zr 11.933650625317133 8.199024880335598 8.218952303011728
Zr 8.457753616793589 10.994128084807219 7.690877209541604
Zr 6.713065963587473 8.697177236255895 8.079559477249527
Zr 10.456851431085829 10.62689992425624 9.879990920298551
Zr 7.454498929960124 10.444698112365753 10.29077870764996
Zr 6.846413130153958 7.603919095329587 10.762662649430421
Zr 9.005420430049163 9.169041114370653 12.14785431264061
Zr 9.424961700546643 8.012073334818197 9.654496108607752
