15
Energy = -101.40957409 eV
Zr 8.182170184520853 12.349704366938056 10.380682718354985
Zr 8.698443247798108 6.655314602731896 10.26668513665592
Zr 8.245278656687766 9.511340416011393 10.572989979143115
Zr 11.31289259256934 7.534183332590163 9.398902015036903
Zr 11.045062405190961 10.493177537396859 9.369194849970826
Zr 6.89696544517491 7.795357509718674 8.354601044724996
Zr 6.972969781405303 10.653472090688854 8.29311431119018
Zr 10.305252369330839 8.188052877510716 12.037490944046931
Zr 10.354491248941011 11.139417256546784 12.192133249575118
Zr 9.36599035868277 8.962084574558935 7.5167824062360165
Zr 9.295110349718227 12.1773315535021 7.785881284055498
Zr 9.22795463239275 6.173685174163826 7.604445795771399
Zr 12.794848930225474 9.402503367667652 11.446433285097097
Zr 12.909779554641593 12.009066339824033 11.098338848430497
Zr 10.77193306334904 13.33445133983573 10.06146663171036
