13
Energy = -86.40829962 eV
Zr 7.8219542689572545 9.551719300489067 11.998559099190341
Zr 9.064008652802322 7.135371156930118 11.07199245393016
Zr 11.838734455246131 7.642468017422722 10.432537780805244
Zr 7.714199908277422 11.620593587915032 10.205386801017577
Zr 10.169575111618155 9.924615270396016 10.461680993037973
Zr 12.008819548096609 9.571622251268959 8.3177943643274
Zr 9.940129746039547 12.01409760560466 8.37977432164995
Zr 10.108916894497282 7.254031128073853 8.24264286256081
Zr 9.722867077266619 9.752457006566074 6.788931931169947
Zr 7.192153997129751 8.807945910987288 9.330098247756894
Zr 7.61927949914164 6.061402763145978 8.789263764109242
Zr 7.318407378141285 11.024987710088235 7.394937295078513
Zr 7.64587396621809 7.956300811382976 6.652399352014493
