10
Energy = -65.42856117 eV
Zr 8.02465295127384 10.750501609593682 7.343867477261659
Zr 9.731934471942497 7.768378997062889 7.059880459972276
Zr 7.795341250947903 8.639133179865077 9.055491210119229
Zr 12.167808032864103 7.8125454294326495 8.805382235533157
Zr 10.702405124369024 10.09794660543648 8.216481179165873
Zr 9.812609373086758 7.094663841031202 10.021136840216636
Zr 9.167029247539784 11.50591142016145 10.024551620518961
Zr 11.062655137824027 9.519489907438768 11.024026303522277
Zr 6.518586507887373 10.874818825165354 9.967137794247858
Zr 8.303225512302378 9.222857794849723 11.76829248947948
