16
Energy = -111.92451808 eV
Zr 9.75982863753966 13.047552636534585 14.33756746658694
Zr 9.467990545082849 10.75334227476247 12.547261773180526
Zr 12.087499993183085 9.100151176161553 12.835706890075617
Zr 11.483572216027353 15.147684323296096 13.446991929059239
Zr 9.812506529426132 13.953275314332041 11.312978518553713
Zr 12.48926082124296 13.185355964908682 15.331611813615295
Zr 12.021566501381285 12.228068073122254 12.414076129681149
Zr 14.664844277277888 12.696041580236143 10.919934399089401
Zr 13.774573059067636 10.140374820913731 10.82230368063699
Zr 14.238225724635454 14.240634095550586 13.238718917095207
Zr 11.304428323619023 10.676156423592072 14.937234073528725
Zr 14.242690287391977 11.162058689014541 13.688297808180256
Zr 12.679450578718335 14.821908887077816 10.8811447105786
Zr 12.004033088951545 12.394047294441762 9.473400322461654
Zr 9.22903747031346 11.687637442055905 9.810419593786515
Zr 11.07910876591313 9.543471718150403 10.22744273504804
