10
Energy = -65.63295646 eV
Zr 10.09981226662511 9.543797388440014 9.556860853412948
Zr 10.523936393336536 6.815821166174496 8.725085755469031
Zr 8.433466354176957 11.954899485627324 9.890640762897279
Zr 9.26328229613255 11.063552156768854 7.254103765951084
Zr 8.584231783512266 8.223143797071957 7.041106155317937
Zr 7.7816988868670975 7.309685123411849 9.62557005544789
Zr 7.010261743615758 9.908518732471816 8.726290797732299
Zr 11.231486220235348 8.958451338998389 6.896070296812368
Zr 7.9511493039033585 9.571152693322666 11.478182635121298
Zr 9.804864751595284 7.335168117712382 11.490278921838385
