15
Energy = -102.07519002 eV
Zr 11.592267871051625 12.620810929059568 12.356931712946203
Zr 12.445214841514925 9.876221294032955 11.515737312169831
Zr 10.804980399655804 10.105826573534099 13.73667236642846
Zr 10.05038724713745 13.625427648606946 10.176198321027389
Zr 9.063447511349063 11.29481235074497 11.738004324830229
Zr 12.580733599441597 12.497124629410655 9.641313515240492
Zr 11.92993913660452 7.497261615190639 12.989731457361236
Zr 11.834314934366601 7.292625208290114 10.178165940468544
Zr 9.507565640386867 8.30390232330973 11.667747308368979
Zr 10.620568856683873 12.615667542099649 7.553186233605938
Zr 8.080054281081594 12.098057065326612 8.908286023621821
Zr 10.678549943761325 10.270485698288754 9.316584262026684
Zr 7.70126082600731 9.45234964366061 9.695152038097707
Zr 9.547865215563167 7.554542998118233 8.735992683890219
Zr 8.923125138646204 10.078161194091084 7.122224067394384
