10
Energy = -65.60567584 eV
Zr 8.293051971667076 11.671537507812737 7.676256544924726
Zr 6.776016575097776 9.705636778380068 9.325510018825451
Zr 8.891343566238348 11.450921304998129 10.384827755411186
Zr 11.011755425243823 11.362250326132239 8.385633027292839
Zr 8.606443846212983 8.815767465315567 11.440921008493754
Zr 11.218681108160496 9.752569624377474 10.824013601011544
Zr 7.664043020051206 6.971498103518816 9.608918942490158
Zr 9.328458439458224 8.969025870639031 8.26934345670528
Zr 12.185176545252657 8.765507649186892 8.418669243555357
Zr 10.469292120618837 7.003465399121927 10.109203547480593
