17
Energy = -116.61566246 eV
Zr 11.833350837203598 7.471180405859637 11.040214762248283
Zr 13.004351619530778 11.966450225436471 9.018857803561513
Zr 10.959287561265853 9.90051319616201 9.519097579350161
Zr 13.561448799067335 9.906901411279902 11.216010629421548
Zr 10.261392002966366 7.126436273356507 8.852196423308381
Zr 10.207670013030755 12.828892521339217 9.22266910271034
Zr 14.67446224731805 12.589410475337203 11.184645972316344
Zr 12.330139607160683 14.629290306446556 10.598099806768825
Zr 9.028298948539632 8.12844777183224 11.052204456623642
Zr 13.977989455838154 14.358728773500532 13.026042322614877
Zr 11.645822652052262 12.123720376873958 11.606920765620126
Zr 9.390567610765963 13.999863740731415 11.725046462101588
Zr 12.96422640420729 11.739329829224411 13.94675580846399
Zr 8.730603682025174 11.150756931818238 11.325976949753542
Zr 10.859164323261417 9.480093861158263 12.891907362524282
Zr 11.364255636579754 14.411683110942521 13.69018023177323
Zr 9.788051530728257 12.034827269336681 13.904428815524843
