10
Energy = -65.06934235 eV
Zr 7.534979530628556 10.703765417843606 8.274555681829746
Zr 6.237752252358432 8.167465426065995 8.76070929558635
Zr 6.563714756084032 9.129240525830367 6.041244584181034
Zr 8.113891080950546 6.8723606948766145 6.98997426930303
Zr 10.256503982046356 10.173703309890087 9.189297478577691
Zr 8.017224991218809 9.296995345866314 10.786377130128725
Zr 8.422799489911702 6.583389988380251 9.87943172834912
Zr 9.410840097686078 9.405547439516795 6.501612666382493
Zr 10.668731854056432 7.462856740916116 8.285680329239092
Zr 10.607242070567448 8.038355216321882 11.124796730914321
