19
Energy = -134.08590375 eV
Zr 11.126625861890286 9.89407741243348 14.717046968591724
Zr 14.047358245120744 10.46272902732162 14.470919248147757
Zr 9.674436257193099 12.503414736220758 14.727271784524815
Zr 14.40343465516436 13.425521214142078 14.327754361062143
Zr 11.699651024140772 14.688487093002362 14.486711219674383
Zr 14.736256685726033 11.75383066917581 11.742080141511392
Zr 13.147228910047726 14.598373867691219 11.740539508256912
Zr 12.526291979008652 9.37210804576335 12.006512514335279
Zr 9.970849043604145 13.975335064038566 12.00364108641678
Zr 9.581316749565483 10.753151860882088 12.168004119898267
Zr 11.31016532789437 14.469066067730834 9.240855975885639
Zr 9.28476811376297 12.287229059178625 9.48728678614726
Zr 14.014605098949993 13.206609623552824 9.102962263964026
Zr 10.736942464466942 9.678284577363954 9.499817615694957
Zr 13.659344608977948 10.244941976895944 9.262536239869739
Zr 12.309706447862926 12.258806058073358 16.115754346596926
Zr 12.08846443705967 12.14587347583743 13.229804611074035
Zr 11.896402358418477 12.03860639860396 10.63485683255557
Zr 11.686260159672514 11.908506781869129 7.748932333915196
