16
Energy = -109.1713795 eV
Zr 10.485408544600316 11.02422374661639 7.574269053612524
Zr 11.788085796713611 10.273146109021189 10.143992514858516
Zr 10.82545078497807 13.145687289290095 9.584706253883553
Zr 8.138833325564459 12.497981694908376 8.300068515060051
Zr 10.478068242956807 8.170772252414018 8.627559089232204
Zr 8.573102827074237 8.27010972916396 10.96698328252431
Zr 13.832713110438366 8.39391815996208 10.068085047032291
Zr 8.016019253145032 9.646169038524304 8.429666199650182
Zr 6.52443839111503 11.267308515390837 10.437530373885787
Zr 14.330749900349664 11.04442154808677 11.078606057230925
Zr 11.313740510912268 7.481337752104053 11.345483178342327
Zr 8.071963105102942 13.649306478667521 10.856969711772562
Zr 11.719938013443302 11.954059897432007 12.457888269444144
Zr 9.274464709963848 11.085646983046054 10.822033006760167
Zr 13.050743721522249 9.230123365061566 12.784778931021291
Zr 10.232152158870075 9.521659837061186 13.177252912438892
