12
Energy = -79.60948981 eV
Zr 7.898074631616037 11.96999719310865 9.718889918491787
Zr 8.081902487536881 6.383827784425217 9.245008116564058
Zr 7.498039629377829 9.101482282879788 9.715413506713412
Zr 10.727877768690902 7.4118535569368555 8.391207134977936
Zr 10.02923356620685 10.415511093080024 8.465888907272015
Zr 6.276844456984825 7.696365235377708 7.320333354040091
Zr 7.075656799590132 10.77264228445091 7.435729694043404
Zr 9.772194437577209 7.816216633328741 11.097181868114625
Zr 9.662491016249252 10.69257489217859 11.39991902850443
Zr 8.795089287111162 8.732162520094017 6.627513625346173
Zr 8.579906238061367 6.009502422022081 6.585872004492023
Zr 11.960957959230562 9.356131823884649 10.355310841439913
