15
Energy = -101.92286169 eV
Zr 8.772606849604381 8.901759880018938 5.7940655608202185
Zr 8.618018665899775 11.688741176145491 5.960877836699322
Zr 10.559850209020007 10.289058357830514 7.551118691640107
Zr 7.369967889996796 10.253248014324626 8.120341025274081
Zr 10.996696775513131 7.268946318697232 6.972447162844051
Zr 8.755994920747538 7.748601916915517 8.564305022166057
Zr 8.913548489711205 12.613926209392885 8.592599084417039
Zr 12.0153098264645 8.554655076333212 9.315432101075091
Zr 10.782275398641483 6.045032786098165 9.692380460122981
Zr 8.408039402613674 6.797889147581272 11.38227559436208
Zr 9.770541678235015 10.332474749342795 10.34682547629497
Zr 8.38101193926581 9.380617488358084 12.693168787618472
Zr 6.678203841829885 8.826234644840223 10.515172038599799
Zr 7.348217360148758 11.572635510019975 10.93554236510709
Zr 10.89711303085663 7.9935750026500765 11.830845071507209
