11
Energy = -71.93207114 eV
Zr 8.704981616909832 11.934604113122383 8.705836724653697
Zr 10.378751967485355 12.05837578534556 6.7302626923341125
Zr 8.00945929955399 8.961838119582001 9.255464755682024
Zr 9.44319711617183 10.712338167375632 11.109653657383761
Zr 8.099897209270774 8.280366138750521 12.057992807577074
Zr 10.681265492717332 9.663768246323745 8.278116745854007
Zr 11.712141945351506 12.113006217860573 9.40924499584715
Zr 10.772259143630377 9.132110579793247 13.076081822335976
Zr 11.770324649165014 11.835668202569183 12.352453799417695
Zr 10.317740893782771 7.776993782602881 10.520534445428313
Zr 12.409510899805213 9.66932392020904 10.711713102524067
