16
Energy = -112.43831958 eV
Zr 14.023280752665679 12.79284613862818 13.347787018978366
Zr 11.387700697944716 12.035902004885253 14.50227113430861
Zr 11.975814560462192 14.529980090453959 12.611213474990928
Zr 13.583962510640275 10.042687626090045 13.436914954427902
Zr 10.998768615170272 9.098927515370509 13.374538021616736
Zr 9.384555075115399 13.587934163575737 12.594845412864869
Zr 14.721949933157395 11.037558556518325 11.061803532121386
Zr 8.905359798538157 10.933793566029745 13.274767411164596
Zr 10.858270618801606 13.719445524214372 9.781453204519835
Zr 9.544190393075572 9.179916503912548 10.970023034348431
Zr 13.10557717330366 11.626202253172238 8.82439223914519
Zr 8.569499753238443 11.90792347501331 10.489624448800598
Zr 13.757190477182865 13.757454854888957 10.569214862421699
Zr 10.467627745995575 10.716049826333915 8.785658848391074
Zr 11.587737897283649 11.6034874058118 11.591652064449569
Zr 12.524752153218625 9.055665880801769 10.610142082829693
