24
Energy = -171.67381379 eV
Zr 9.720238564047822 13.858128565384085 12.252996623570086
Zr 12.573947917174635 16.078878052471097 15.775159267753898
Zr 11.37807943801643 11.089325676573292 15.697552000998927
Zr 11.890191469362147 9.733763264613437 13.261996449613036
Zr 12.401262308308644 12.76427082087463 13.190941855271644
Zr 14.799897408112177 15.078818803426035 10.715626497729748
Zr 16.648326015231845 12.904335274680523 10.632551522597176
Zr 11.057451900396982 15.961499779031255 13.327176341204428
Zr 14.407521380797514 14.455698952730142 14.264329357624854
Zr 13.855524702573316 12.639953494222844 10.06909071085687
Zr 17.289380061564906 14.74125223147999 15.094223785560633
Zr 14.140812576755023 10.807109316810784 14.90906181683254
Zr 13.065840254809837 13.12460558787859 16.752985390019887
Zr 16.10438968238862 12.490788908262129 13.132780565118308
Zr 13.622723782025304 16.878075381195206 12.734303623973956
Zr 10.434724264521371 13.863282121890691 15.268098085691468
Zr 16.573268377990104 15.787400535152699 12.588291803370453
Zr 9.646102924552572 11.456789170324981 13.510592649730604
Zr 14.13098848893577 10.496964765609917 11.823309915769267
Zr 11.256539803561651 11.556841344003745 10.899931224200648
Zr 15.468668000801285 17.09883996953906 14.983168910116461
Zr 15.113920299635284 15.194288040848841 17.077952745603856
Zr 15.946536370025814 12.565832473839015 16.157820711487343
Zr 11.96693616655959 14.791204400519677 10.775890265187835
