23
Energy = -158.51632677 eV
Zr 10.084231537286174 14.450382060656464 12.8746804776312
Zr 12.466814663455652 13.165357259307477 13.696871630152023
Zr 11.77384223725067 11.983984848297226 11.286807282330376
Zr 14.360239001677296 11.125871669467745 13.250792601564612
Zr 7.395836394726519 13.305935418690247 13.120775082248036
Zr 11.5552904575567 14.61825300760838 10.457645727559115
Zr 12.994308833867622 13.285043648216718 8.431511340722123
Zr 14.443860485309575 12.217428354989373 10.626386211997623
Zr 8.656489826803341 12.927737408634245 10.678455571645872
Zr 11.65851326412566 9.921726476795204 13.908870188984675
Zr 9.503489707771864 11.586359583763837 13.670067316088936
Zr 13.875603439011666 8.332562639714606 13.759668993475044
Zr 10.10280318194997 12.387867732954556 8.425974531573962
Zr 13.56854322933767 9.172514675663919 11.069929456994265
Zr 12.876718708533481 10.26192139400672 8.638172460456712
Zr 11.781386873206523 11.63084024363525 6.409044892864474
Zr 10.368964610036072 10.091658938751284 10.839061297401681
Zr 7.2028285420805185 10.618219027428617 11.970718738773712
Zr 8.972131534304692 8.475761248622451 12.595115988644027
Zr 11.562523466453992 7.329694367290205 12.361087890027699
Zr 8.048076604357034 9.932921024560516 9.343520694117169
Zr 10.178860257750884 9.505561295920687 7.5225752988593655
Zr 11.160433805397329 7.765560818097134 9.566610986968863
