20
Energy = -140.39274072 eV
Zr 13.301714323517249 9.747724542009811 13.420634925350512
Zr 10.977134750354896 7.864835103615881 12.936513359631652
Zr 10.465400313925977 10.277061102629627 14.511627695781863
Zr 12.455159791836788 8.181585661892264 10.615660127878266
Zr 11.662987854863301 12.61889711147789 13.861012424098499
Zr 14.388537758893436 10.165746590917216 10.624561707586176
Zr 13.826738785003984 12.545324300654991 12.232660575373542
Zr 11.43565219788008 10.732306245663857 11.650229574106243
Zr 8.56615287267499 9.274925733896465 12.785066636198758
Zr 9.287698121133458 7.939797399741792 10.395526155168692
Zr 13.393990235987868 12.530864081022765 9.511323500372342
Zr 7.306172258210353 10.416373694667126 10.702626749780546
Zr 10.036436113499686 10.611713598744963 9.46445992705152
Zr 12.611417791718338 10.180216425147432 8.142042402004886
Zr 11.127112751484566 13.713385228641757 11.106126408595376
Zr 7.573673696628346 10.151867259265181 8.020541663805966
Zr 8.964199536354117 12.254605302041298 12.572918772095397
Zr 9.446969689721078 11.414451154416032 6.74994291529022
Zr 11.172804070286682 13.022509876747225 8.081230711785421
Zr 8.447237780128347 12.869028846703282 9.366033204532318
