24
Energy = -171.28487791 eV
Zr 11.203339342479106 12.702734324805753 8.322228481479991
Zr 11.79871447588761 8.8822265150254 6.489758296483218
Zr 10.927614812367647 14.613580483518904 10.569222111063915
Zr 13.591240163503286 13.060650612372358 10.091483879836451
Zr 8.748809526774764 12.403418204088739 10.17930960401544
Zr 8.65577069739804 14.166022155258728 12.438736540978033
Zr 13.365506778904532 14.732319367316993 12.424429066566555
Zr 9.653743596739737 10.351442396804856 8.163506338203906
Zr 13.008838540840559 10.316222107207183 8.498729572428232
Zr 10.977924261902942 15.386450346513538 13.579909341972114
Zr 10.69533284313686 7.874082992773723 8.863303917128142
Zr 11.303170889473318 10.868801352510742 10.677337585681256
Zr 8.858527120752134 9.304697967808643 10.843244431462997
Zr 11.228924188928938 12.54315318633052 12.791609457880059
Zr 14.465585866039616 12.255689282065148 12.780148158030535
Zr 14.305458935269659 10.139131040515112 11.038140086983582
Zr 13.50014509713476 7.572049674256408 8.566758728904066
Zr 9.538940387055794 13.393645323754352 15.057128074525977
Zr 8.408025161661149 11.301100117307485 13.128143589079025
Zr 12.223613572057006 8.12679709478007 11.27242122842882
Zr 10.263183875658214 9.031852548036184 13.281563012811837
Zr 12.701386823021956 13.124317299511008 15.06045629817237
Zr 13.001514021229559 10.019378209379132 13.810349266718257
Zr 10.599984205656614 10.859826654884786 15.2585350069355
