24
Energy = -169.02212972 eV
Zr 11.426144769757222 7.607809076606909 7.738718698629948
Zr 9.296741807639416 8.313932926047626 9.754150785186674
Zr 8.347971891609818 10.915175680869785 8.10810143113225
Zr 11.152107361815608 10.45590662098889 7.995137348236541
Zr 12.22668230887445 8.887578987598472 10.230973083489376
Zr 13.853265577595085 9.081334297672859 8.019809031423653
Zr 6.741063228880424 10.18084675105708 10.374997384306214
Zr 9.45200728239404 10.901806810522743 10.8321063020684
Zr 7.558083075824185 13.028600894199029 10.01973804862849
Zr 10.87296104114109 8.541362303259334 12.733247913278106
Zr 8.047602706748748 9.152524241359195 12.708397505466689
Zr 13.877888610298665 7.866413746437343 12.207302249372397
Zr 13.542574762009764 12.060899594444633 8.913363434917185
Zr 7.469672809818066 12.05784380885312 12.786681484873785
Zr 11.934485164946741 11.593729415547255 11.323269253499378
Zr 10.397609582958221 13.175566811883222 8.923155588563308
Zr 14.98010129963013 10.127799176576962 10.816572264672718
Zr 13.46950697052625 10.395354117564427 13.49684519387259
Zr 9.773849568067394 14.022343734465679 11.756384280340441
Zr 10.23526457573519 10.957362474951248 13.987937824018774
Zr 14.588200984472937 12.655614969077362 11.764167510364654
Zr 12.292474980772985 13.366711864043719 13.601189036945186
Zr 12.535547429800644 14.351580816209015 10.726999722580027
Zr 9.435277483085471 13.522881162043069 14.491952271899727
