21
Energy = -150.4081758 eV
Zr 11.956397203764569 7.464907249494179 11.493564167398139
Zr 12.977276523062137 9.331041310806507 13.228738960091913
Zr 10.015328812783544 9.078955074852086 13.189613541858812
Zr 9.388236897128976 8.427811885426228 10.176995276798218
Zr 7.454385259423788 9.942125665198583 11.712318600038005
Zr 12.08663850934284 7.858972629281836 8.767020215651202
Zr 8.441144471156647 11.519332815242436 13.990821714451128
Zr 14.410321881252381 9.217614263028937 10.499792535939163
Zr 11.512440948740615 11.84697892916597 13.846389570990373
Zr 11.905710009031276 10.320875827606304 10.467010650472108
Zr 14.069251502388122 12.22987183345713 9.557840552018147
Zr 13.182522385095611 10.332145084781054 7.756948162901878
Zr 10.388452209346758 9.884916937846508 7.758265540142517
Zr 7.238595936419431 12.800995225680701 11.564483323427654
Zr 14.038449866341699 11.72744213731638 12.26234137948138
Zr 9.570165381805072 14.07209028432019 12.949900813011878
Zr 11.264189508410643 12.654559723019135 8.45891837192034
Zr 9.831973287440013 11.611385767276717 11.469392802015104
Zr 8.303322151450022 11.319489379232673 9.06301499655274
Zr 12.07296045669396 13.728574096802545 11.29748580573395
Zr 9.295054811375007 14.099702069354116 10.025328583079819
