28
Energy = -198.90294028 eV
Zr 11.804937250567042 14.460056827938889 15.32389929525503
Zr 11.070675285819231 12.093457652456056 16.103369574897485
Zr 10.137071406661763 13.028572376236939 13.266379387681004
Zr 13.075508937825957 12.193782534972348 13.845885090232223
Zr 12.344740821787571 15.002252468111143 12.54367222182588
Zr 8.558457520712539 11.074177645871499 15.234548291361069
Zr 7.917780859670375 11.160625645622956 12.656693592486395
Zr 8.791493217749652 12.65268597325853 10.38508401218649
Zr 10.828979648656265 14.975366465667038 10.01625727212937
Zr 12.466359353642535 12.516558456445042 10.749854219614479
Zr 13.83104730620166 15.126827738953779 9.992239279895852
Zr 10.975697454776665 9.913331110310304 14.248565860886353
Zr 10.665174497146738 10.239165814633695 11.172992979373532
Zr 8.849902362695538 8.48315675344547 13.050089642554012
Zr 7.794631366296198 9.464860114339936 10.360883865488645
Zr 10.278427999413946 13.020304146236091 8.048562841175043
Zr 13.45880534944131 9.349345319618429 12.966271905637997
Zr 12.79831028170098 13.832850039304216 7.895116879885382
Zr 14.973080013254808 13.785066294559343 12.074907046552305
Zr 9.230750177996331 6.916856729194982 10.707802359853208
Zr 9.36039715582381 10.453886908530048 8.152479805732604
Zr 12.368305058364776 10.920979305730345 7.933677689380161
Zr 11.786249202681313 7.5710360683228775 11.728930227098443
Zr 14.907869789325606 12.206104821099958 9.223599970631025
Zr 15.187684665716645 11.086797324162724 11.919027257413063
Zr 8.379765030842686 7.531086104228104 8.23578141973167
Zr 11.12645652025941 8.249334290449656 8.894093841676531
Zr 13.74993694527672 9.418289177332209 10.065085967334605
