24
Energy = -171.04681138 eV
Zr 12.089816277935407 13.007695159139558 11.05210079226688
Zr 16.500496746612203 17.4910201189051 16.575418423872467
Zr 13.165155468104038 14.49910055086853 9.000683242387625
Zr 14.364189898340888 15.555174856786916 11.3775626095907
Zr 14.93084472765517 12.662450757028356 10.897976021461927
Zr 17.794818601013144 15.423534029695384 15.307445109034703
Zr 14.942835044333346 12.359920035806688 17.532876058502723
Zr 14.342930766116421 13.61153270703096 13.62317855684376
Zr 12.380927466331173 12.69536908562646 16.07930627583245
Zr 14.710195063164736 10.939175032928517 15.314692561974864
Zr 12.903515773223196 16.846315546731276 13.435504362123677
Zr 15.950435324090481 17.013730625248527 13.645162470441901
Zr 17.08179196853937 14.194922335520706 12.819174937794154
Zr 11.402429209213004 14.177905920354295 13.60512900785218
Zr 16.467445578243886 14.814778878110411 18.06711743407994
Zr 11.5142552676545 15.76709144898183 10.995782210728038
Zr 17.09621417540335 12.705650041366837 15.533912764215206
Zr 13.921942267412991 18.124405843797483 15.584350817291064
Zr 16.164158168046168 11.33653455883009 13.01007652142371
Zr 11.9010542809962 15.823223592965668 16.170640717549727
Zr 14.755797998294396 15.155719064720477 15.845633377249307
Zr 12.943142966809678 11.22882518450918 13.117904555059102
Zr 13.309760091449926 14.337125246230283 18.385656174035624
Zr 14.083408537312035 16.941456905282415 18.126598109797467
