23
Energy = -160.52876728 eV
Zr 14.44209414864457 10.536642746073303 11.796503172398475
Zr 14.614564042246275 8.393384077732808 13.732787478673515
Zr 13.746332471727245 12.586470120641424 9.92321912145061
Zr 13.609040502985339 10.813951981447353 14.586837118040068
Zr 13.186499923873342 13.095079314028919 12.915384493160419
Zr 12.909733119546507 9.696209624730933 9.315868927645626
Zr 12.525139444150538 14.650568208634297 8.072228904232855
Zr 12.612522991383454 15.111129485504682 10.90768461615478
Zr 13.348315055298787 7.820767852189538 11.405433513084768
Zr 12.315660850334103 11.894644153409242 7.521202990537246
Zr 11.739460152044378 8.738736617454595 13.683487122869323
Zr 10.866269850177003 11.582173866614578 14.53032246764147
Zr 9.931269252475673 13.239482642415089 7.183974340625867
Zr 10.300803448856653 13.910346360564464 12.65433109156031
Zr 11.290126453509103 11.041613897265355 11.590667212784343
Zr 10.470710484082009 13.744256758416103 9.779709966753082
Zr 8.219320142603218 12.262960187619797 13.661836940631508
Zr 10.57596690538539 8.18443060166395 10.91553217869667
Zr 9.00789473061934 9.506602409783154 13.19371174710075
Zr 8.352944505784507 12.155479693316218 10.635202753951422
Zr 10.067130948272977 10.571010839182968 8.74404759823154
Zr 8.033299601606462 9.279574375364065 10.421070196448012
Zr 6.511192889289379 10.636232196069335 12.227617885630385
