21
Energy = -146.94558239 eV
Zr 14.064870673326809 12.475928135855598 9.712354766909074
Zr 13.134567122739798 9.65782090326712 9.528511543758558
Zr 11.52320692000535 11.795032276138086 8.091471596754648
Zr 14.02133118872982 10.832363068044192 12.279317990510389
Zr 11.850111729816366 14.444653547598131 9.671289846208806
Zr 13.403947643596561 13.914120922286795 12.243261964656199
Zr 10.908528947961743 8.83670155114786 7.793725890861373
Zr 14.165945474080601 12.252324722616356 14.640341222683114
Zr 11.514879597444471 7.226034834361821 10.077925206188663
Zr 11.59909053619551 11.975723475268028 11.101016019035018
Zr 11.517319694158125 12.070773627448208 14.006999928382902
Zr 9.716841879786742 7.031944305177943 12.036064465470846
Zr 9.091550068448367 13.037069136624789 9.789564071809611
Zr 10.044865722940044 9.864230362104633 10.433999610821234
Zr 8.396150878308944 7.93166076260785 9.463310274849757
Zr 10.432318786782067 14.328147474296143 12.262524435310286
Zr 11.431963622366775 9.23506663471575 12.796231403408905
Zr 8.690331878331422 10.631862367806342 7.912645779117207
Zr 8.00436860637168 9.010123008235349 12.5100087678848
Zr 8.74210720729848 11.899878337253721 12.564657865421042
Zr 7.210387187950584 10.708449149146375 10.354736960219327
