26
Energy = -181.69306443 eV
Zr 13.36460616345197 8.779542525138325 15.543358153324524
Zr 13.595409897013045 11.719513243498575 15.01353187368118
Zr 11.205089883964892 13.310893681189233 14.263101230092492
Zr 13.848334606672125 14.529869544926951 14.29003089389629
Zr 11.141041989674187 10.305829167370158 14.313397430980675
Zr 13.767672407641431 9.542837796933693 12.813089022231596
Zr 11.91878084294433 7.470680373905409 13.739325946059475
Zr 8.570190958087831 11.710949222437193 13.083445674032351
Zr 13.266294623930861 12.495179409531818 12.26927066964616
Zr 10.003893857858758 13.951723703251751 11.677688388327473
Zr 9.24930775468337 8.721332519419224 12.836821651342962
Zr 12.373980424029819 15.304319114705484 12.210821270116483
Zr 12.043502977413736 8.156029431803157 10.807501566127426
Zr 7.419276935167494 10.032605863203145 11.071767572710488
Zr 13.438891977073215 10.76318081768053 9.912948807648382
Zr 10.550161999485837 10.818834894795 11.135701568872125
Zr 7.9625585880531995 12.782130302397041 10.174208970107278
Zr 14.110309710485552 8.533450079693486 8.376640141321403
Zr 11.319720521317498 9.231628594431436 8.180630307368581
Zr 9.968543590194775 14.780730458353053 8.903732132938089
Zr 9.232310409017556 8.106445603398663 10.013468367123075
Zr 12.7000677584048 13.681363216697333 9.6736917763289
Zr 8.255400497023693 10.403271382362655 8.406452557060607
Zr 13.401044713115501 11.039351233095719 7.1644902811891855
Zr 10.733461632505584 12.083353295208097 8.483442990815648
Zr 8.333015651911532 13.064042092230732 7.2901650518438
