27
Energy = -192.95122516 eV
Zr 14.637684964388601 11.475124538946806 12.940963853901884
Zr 13.806778058212783 8.92387012947517 13.926415567090011
Zr 14.553715324654345 14.370378926628108 12.574623488528779
Zr 12.667307523901679 7.2382114563242235 12.125135736819427
Zr 11.835456073092345 13.244399316944383 12.390776178364899
Zr 14.664580083533393 9.222834386279043 11.015979243247052
Zr 14.23969128679613 12.485845250551051 10.319313855217754
Zr 12.373557179246575 11.268498910217746 14.651797407433516
Zr 13.187428607632137 15.245876756367808 10.481874610261949
Zr 12.587666218868511 10.779731495737408 8.618210022700282
Zr 12.506093092151183 8.037054863707098 9.499786462383346
Zr 9.694382987284525 11.561438161935014 13.963449489689799
Zr 10.74356140612203 8.704296693328706 13.96112196406796
Zr 10.018019182325125 7.6142450386865175 11.122451709020131
Zr 12.034754126845865 10.229767503024066 11.78285249325193
Zr 8.056596855683576 9.37516047106189 12.628502332825464
Zr 6.953787181350061 11.900775752131466 13.164546402735668
Zr 8.741607018342004 13.44623217545012 11.733320936458197
Zr 13.164767409597586 13.653478961497244 7.853792478706268
Zr 10.097741267604606 8.842557137311196 8.22076653573034
Zr 10.240286078464749 11.797739670735723 7.370491637772063
Zr 11.040974223450483 13.492563904105761 9.594331456068831
Zr 7.603318731409146 8.581104873389542 9.857686840749079
Zr 9.489480684687038 10.900010366922901 10.32492390227136
Zr 6.521059166064851 11.308911142695436 10.431976264119061
Zr 7.710407277517564 10.586360306927737 7.871973915818912
Zr 8.168262972101589 13.254700056401212 8.89291752987703
