23
Energy = -160.73132754 eV
Zr 8.067596391477755 12.998214448058553 10.989118139562684
Zr 7.176716209751766 11.677179019483193 8.330127265094106
Zr 7.927437271032176 11.172844659774047 13.017125420823364
Zr 8.17195439041784 9.97926300759235 10.299260704582146
Zr 10.389811072870467 14.403248985746451 10.74363666343194
Zr 10.131627698116857 10.618891003767128 14.590765730257289
Zr 9.890847515241497 12.43275232017686 8.619106544586696
Zr 9.312452706483146 8.547477631692386 12.777832002061558
Zr 9.837190599058045 13.427132941388194 13.53338661949799
Zr 9.123083758525809 9.87890392364674 7.549103641880322
Zr 10.52235180530312 8.386932167075459 10.036296419093361
Zr 10.843583366710556 11.354738440614081 11.618606585966681
Zr 11.58076823020134 6.779092288971481 12.006749405814453
Zr 12.502083423490737 12.042750788951151 14.269949454052679
Zr 12.02655820168031 10.457383770807063 8.629590440621637
Zr 12.730660471474154 14.02346867647799 12.272649784652245
Zr 12.261468376972985 9.055009835679586 13.292885803088934
Zr 12.748532767970309 13.213594776891647 9.403482804365398
Zr 13.395594616899288 8.633653177382168 10.500438049709008
Zr 14.025356626611485 11.10899146301956 11.862455409898663
Zr 15.221877445690998 13.143587689429179 13.541295747212551
Zr 14.788993504417357 11.141091547109703 9.108894359732885
Zr 15.29565003775291 13.50075612458558 10.803361855068868
