27
Energy = -195.08245586 eV
Zr 9.342214952757491 10.28765739154486 9.171341096833437
Zr 7.250791769526561 11.46306758478624 11.228286521978559
Zr 10.007768659420435 14.718675437771964 13.435429670577088
Zr 9.804469396807791 7.296549074299876 10.278203395791815
Zr 11.137145238440262 15.339969208194178 11.009214172133277
Zr 14.148995731283708 10.025984288807777 7.916570604178713
Zr 12.643567715452876 11.486117265941953 10.13770190679414
Zr 7.528715144986244 8.71200005411328 11.220189187025818
Zr 7.91983634123392 12.976695640777372 13.503223457654475
Zr 10.57087189043422 11.880448412217678 14.494577548588401
Zr 10.908796144429976 8.980481231801107 14.61290639626532
Zr 13.70134698055573 14.26288262777489 10.132455456234911
Zr 8.292264722769264 14.46377024761116 10.966866100332263
Zr 13.48486873777634 12.858482021146125 7.537600452270353
Zr 10.942585138430937 13.676574272908931 8.56536731775667
Zr 14.991708833292178 12.17645161972519 11.99218169803057
Zr 8.13007422239069 10.087431761990473 13.833602292994543
Zr 13.052194208291414 10.487626172447763 13.303530625303829
Zr 9.236017782977127 7.317693229091058 13.091036886778049
Zr 10.16141336139536 12.539372827476804 11.365995355626946
Zr 12.701790945298859 13.549877363727314 13.002401450446346
Zr 11.453313633908541 10.851688544931179 7.401432617415557
Zr 10.320088681175454 9.757832627738175 11.831568153207066
Zr 12.219152592282361 7.643038221569047 12.245785691826807
Zr 15.560302967039194 11.999016442228804 9.328803412871768
Zr 14.66478116842166 9.459628484933914 10.825180941936035
Zr 12.109576222923172 8.536602848936372 9.299965767278655
