25
Energy = -178.79395666 eV
Zr 11.01931405751007 12.802224749124088 8.311069967448583
Zr 8.765941260888757 11.09992524817234 9.656463271941155
Zr 9.27454018263042 14.157947858509194 9.790211078453545
Zr 11.430840438374858 10.200069506526168 8.618640314486417
Zr 12.361468037276627 14.490419036452423 10.28919264512907
Zr 13.734016800953835 12.110293915918808 9.129510240658075
Zr 10.848175296853727 11.980817285517555 11.408237149507283
Zr 10.47599956286906 8.854260279935302 10.762201016227298
Zr 15.83727422002269 10.876980777692241 10.729198099898158
Zr 15.143641065669645 13.787671233264827 11.49887621753316
Zr 10.093610169428999 15.029549467900903 12.403118423984662
Zr 13.443884014735474 9.162493000937678 10.372340270339361
Zr 12.023182950003855 8.943797721013885 13.154814532900458
Zr 15.011031573764132 9.108786868199257 12.923435690180593
Zr 13.500435932355616 11.572564403454326 12.262939933703091
Zr 7.929117734941922 12.914120229871674 11.8359579690475
Zr 10.734844204570024 10.663072999126094 15.011975955525205
Zr 14.716319308053096 13.664441389266813 14.508732180619614
Zr 12.013852768589782 12.987936626408603 14.219564860377382
Zr 16.264105687019743 11.66414000112706 13.460242683100283
Zr 8.927472261257384 10.155715471383091 12.802971128972093
Zr 13.846968885096253 10.693013846399017 15.056651967388932
Zr 9.074130208505096 12.88400373421003 14.295365270094791
Zr 13.062791107062525 15.417685075500962 12.87140089871337
Zr 10.975958841482532 15.286985844004631 15.135804803685867
