24
Energy = -166.73190625 eV
Zr 12.620979238758657 13.710524455423855 8.753253297081617
Zr 10.169495013361388 14.151215604893322 10.240495306038687
Zr 15.251417060595056 13.611866381624344 10.187343803541077
Zr 13.911595123441328 11.1772065816127 9.39352409367311
Zr 10.038357061305943 13.678553643061932 7.416696038365819
Zr 12.874022004748443 14.348535398080834 11.632392541348935
Zr 10.112687750244445 13.99426553475413 13.213513515087007
Zr 11.047057104459991 11.134995773691804 8.368044974381103
Zr 16.478830148608488 11.189607692147684 10.58847267062597
Zr 14.709857133838247 12.042022807025642 12.656066018677745
Zr 12.545632680906786 12.963225645366363 14.252522171531885
Zr 8.393537910643037 12.170726854981751 8.985910165672047
Zr 11.533360069450511 11.552877282923719 11.559622523625746
Zr 10.066423134064525 13.795874233434438 16.13173162084452
Zr 8.511976588502517 11.863000733975227 12.009001731681968
Zr 14.474970309223812 9.266552295560176 11.640018021714772
Zr 12.04974065995095 8.748925079900825 10.15710102962931
Zr 7.896361904239542 13.00357271318401 14.813560432255622
Zr 9.190333540183044 9.603484632139486 10.014075784859337
Zr 12.898724850487547 10.007156448908956 13.927982809960628
Zr 10.25848835031418 11.316817555770804 14.551516685997749
Zr 9.6883648200585 9.143268308195001 12.74367277066098
Zr 12.227775089998001 7.471868561057515 12.756985976796345
Zr 10.103466065606014 6.8898773846849295 11.113009179546367
