28
Energy = -203.10798221 eV
Zr 11.621861259245517 13.752964506338163 8.334292151845904
Zr 12.442541772340205 11.108315232521642 7.70417377018943
Zr 9.044784165214374 14.022260452554777 9.833858828802288
Zr 14.515656465897049 9.8919671830831 9.305874289932255
Zr 10.71223758673523 16.158376066690547 9.956374334359204
Zr 14.456062818217392 12.866262552805518 9.392816441159054
Zr 13.4746526853111 15.499108018488547 9.811113385767834
Zr 11.587699559634917 13.657202049762612 11.589330818381628
Zr 9.739979144403648 11.32910417009194 9.095519144317697
Zr 12.3406016596396 11.2685675431564 10.561366997197387
Zr 9.514825225597864 15.254193433560998 12.616439693956753
Zr 13.145821872101902 12.291262915938146 14.292814114836819
Zr 12.323599571769698 16.54644828858243 12.197370514612297
Zr 12.09994246899448 14.892965150865688 14.29803766766026
Zr 14.942028923165728 11.198709793498935 12.028332141500597
Zr 14.415069287578763 14.247022787876237 12.303147273986935
Zr 13.998080943123966 9.605529580037791 14.22868854669443
Zr 10.195155035948236 12.695595596456357 14.413977742412708
Zr 13.748097999182573 8.313000430227271 11.536806294450916
Zr 8.706005721939365 12.124524549552167 11.892559508280021
Zr 11.296805898141992 10.07246212121679 12.751673089650561
Zr 11.243078250261453 9.908568230022611 15.561891948935262
Zr 11.571024591613064 8.766798642859406 9.315401638841218
Zr 12.345781666617743 7.463474956606341 14.095196156153492
Zr 8.56973449466789 10.313447711682349 14.032060422807737
Zr 11.055387260606382 7.12799854228574 11.577888506413084
Zr 8.960160761023706 9.152299736087492 11.162710663121944
Zr 9.591291328589008 7.8374082778380005 13.91834452576407
