22
Energy = -157.99327203 eV
Zr 13.430142753250033 16.006058249448966 13.484576798240086
Zr 14.343595787740174 13.462380451664025 9.49429461611009
Zr 15.462155398028479 14.707266646328863 11.99049976177922
Zr 13.542857347127441 16.250613666144634 10.657747848292138
Zr 11.672382512121391 15.047721712969834 9.10589270275125
Zr 10.800371544650776 15.92775431095041 12.135967434219381
Zr 9.59783812970461 13.718677662967968 10.28736573943248
Zr 11.670159416241637 12.15316240177688 9.003821184095898
Zr 9.48577634253254 13.38214087043718 13.041192359509674
Zr 10.102086567792428 11.106255015768337 11.35672980712196
Zr 11.624407456873174 14.048112934476721 14.777062267525347
Zr 13.723565887703547 10.515234677574313 10.247740139189291
Zr 12.370893367714444 13.66408562499145 11.636861858957353
Zr 14.728523317757267 13.621632696005646 14.561351750842071
Zr 15.800026787742068 11.916435309401335 11.928135778073134
Zr 13.107648414493317 11.511788823318025 13.119349957381536
Zr 14.711395394319299 9.14616030319575 12.491030907257336
Zr 15.454696864171527 10.759686470712365 14.759411038390825
Zr 12.969105371138385 11.769613629610067 16.053879808930255
Zr 11.780843178646785 8.998054567221207 12.230303721585
Zr 10.548387014374438 11.006558127536534 14.338537238709417
Zr 12.892800592562535 9.149058194758942 14.83486892665422
