22
Energy = -157.77577681 eV
Zr 14.81185752515165 14.209737146945729 9.345255221526005
Zr 13.97405665966389 13.35181826503611 17.90953934042758
Zr 11.334862853084038 13.276338433386409 16.921026317699294
Zr 10.65354908187696 14.562255564725422 11.49064486762882
Zr 10.766462132639285 14.235502067502454 14.255197971112915
Zr 13.621381729535504 14.126108802879395 12.122215973291572
Zr 11.61894724571205 11.767058143249034 12.219974318994291
Zr 13.914818005532666 10.48641095574929 13.942314705331711
Zr 12.278684793815227 13.023604082454806 9.7054058553515
Zr 12.555292970757591 15.956266709489148 9.961223740782673
Zr 15.647675228490135 11.481441997109542 16.34393463988365
Zr 13.539016194451694 13.03938868595056 14.933904225952315
Zr 16.004379663515287 14.31923476521145 16.222018594186352
Zr 16.366300867052257 12.565263347122311 13.760586725846007
Zr 15.050081909575542 16.547372294724557 11.142284364885645
Zr 11.037806225010003 11.271055196930778 14.8996883147524
Zr 12.559976329430068 16.511124196545197 13.032222754283449
Zr 16.618662878050024 14.177761431381562 11.500109738927735
Zr 14.677538650739823 11.734009270216049 11.237974788932654
Zr 12.963399054237179 10.808562810274475 16.893898229187865
Zr 15.57302010940175 15.76520320114659 13.880235468906447
Zr 13.165447880852593 15.598997764624814 15.904956732024328
