21
Energy = -145.65147064 eV
Zr 8.293390212072111 14.283773841169854 8.580243053835591
Zr 7.383526690578032 11.608849440258622 8.908198134302648
Zr 8.071678340195616 13.116945554955405 11.181370528075728
Zr 10.267847970964198 14.866489281995197 10.499953622297033
Zr 10.351525740775845 12.291107134256986 9.030348464413809
Zr 9.250011839897494 9.447164346657427 8.446713789317098
Zr 8.645672138712126 10.107044687681812 11.17213888780311
Zr 11.837064251004936 9.560631644187117 7.625373459921444
Zr 8.397786544104488 11.250645778669508 13.87411404663733
Zr 10.593064614851158 12.62661800074677 12.568321740389598
Zr 11.812213777518336 10.484050143565671 10.621454594459243
Zr 12.959686193895813 13.234873320022285 10.862712669853689
Zr 11.030241188258348 7.85573166833293 10.081230299898184
Zr 13.111598109683873 11.345912950075233 13.382983762366408
Zr 10.558000761941678 9.331631565089264 13.215287749163485
Zr 13.599477379030938 11.610367881586292 8.520223534626018
Zr 10.828940672314431 11.349825035966063 15.336693645448928
Zr 13.90469170385049 8.751409167039077 9.324750847183443
Zr 14.810552575281239 10.843780464553275 11.028824231250987
Zr 13.325346552121763 8.554435135957922 12.235648989646561
Zr 12.600243913003952 9.164845570567762 15.2043057058857
