29
Energy = -210.07305459 eV
Zr 12.216421861843822 12.844256029216133 7.591385911643486
Zr 14.469875345782 12.833318113220995 9.4355401771575
Zr 12.076898307112613 14.550117190892616 10.322562104948561
Zr 9.636023243061578 14.205402845844082 8.578169536836784
Zr 14.453225017917159 13.686895235792887 12.143516673138599
Zr 9.176948496785329 11.922458394354779 6.9223976672699505
Zr 11.233198118845701 9.983751973631854 6.90603307388471
Zr 13.634051127827405 10.137600655697673 8.58994857768755
Zr 13.783734651726926 11.716458119503708 14.075636682364577
Zr 10.478307951329628 11.49902438115747 9.336361469487818
Zr 14.993928485757161 10.55991678150279 11.503364652758863
Zr 12.504394175799371 11.847412241715398 11.414369982762121
Zr 11.648546960120028 13.85262327083455 13.464176688601503
Zr 9.164564326500578 14.239146398156315 11.457770950273629
Zr 8.969798239582133 13.165448407014697 14.347461739806546
Zr 13.9367479853185 7.998014403733748 10.587764922390551
Zr 11.278420520438509 9.22658993041536 10.986200157976123
Zr 7.592117992539572 12.127367152721215 9.594629764225079
Zr 11.516865927980069 7.6528653394782244 8.686633830609852
Zr 9.710936356522977 11.415389998796032 12.161564842600399
Zr 8.733604822775439 9.255655816137905 8.518767312830068
Zr 6.96552223678492 12.34289312797718 12.420948779633619
Zr 11.052621901238526 10.964741299668267 14.745540427724292
Zr 12.990752868492645 8.894536327564667 13.386250871962595
Zr 8.046604860875354 10.412522710976175 14.312207923106248
Zr 11.765470468244175 6.580818915143216 11.709088115689633
Zr 9.196621835912431 7.1649010133812325 10.647127648480867
Zr 7.616557234685689 9.484243704982209 11.420375320141348
Zr 9.834160450178624 8.28826658254194 13.433417133156912
