28
Energy = -201.62217278 eV
Zr 10.062255501936857 9.548757100186883 15.73419668411469
Zr 10.245432443091204 8.036454892645052 13.33976692672926
Zr 9.432279450729418 12.486760027648197 15.210803021330888
Zr 8.169635300314658 10.087492808764143 13.630151736249452
Zr 12.091234695573194 11.281835251501082 16.12877460855544
Zr 9.435583960210788 9.489947676882878 10.943955249622503
Zr 10.435372483537726 13.99883881026989 12.348937094094289
Zr 8.369622085095326 12.219866376284733 11.568867371952518
Zr 8.59798534739054 11.243595530507811 8.857426022311925
Zr 12.875903844230747 8.954325354465027 14.405599395998914
Zr 12.207276434487715 13.660587799333832 14.758783019068089
Zr 10.889363615794919 11.041291006930022 13.279328131010478
Zr 11.248634165534785 12.192073626974416 9.909691782932372
Zr 11.618919924641837 16.128143611326475 13.166897890423266
Zr 14.933625877489291 9.31296779679259 12.405399308458978
Zr 10.410311640744883 12.128672483068975 7.030377941110364
Zr 12.317521231964756 8.503996062868653 11.323078837118622
Zr 14.46105052252499 11.64198553519324 14.368825706520939
Zr 13.090524715959505 11.508793146438943 11.762742324092226
Zr 12.127644827434699 15.211147103193593 10.266820913015728
Zr 13.872255473729467 14.225572684455532 12.428905245436159
Zr 9.39113397500769 14.17308112136798 9.098991410849852
Zr 15.856319460238023 11.95083873267362 11.709002475685415
Zr 11.357044613163778 9.58786990218299 8.559056394095816
Zr 13.18322450991654 11.616656274769246 7.462003412675576
Zr 14.408294405353468 10.153467851622029 9.584066719095906
Zr 12.125835740472725 14.236458337523718 7.721172054448033
Zr 14.444814013861407 13.306561308713063 9.498384373065926
