27
Energy = -195.80987227 eV
Zr 14.629292817473232 9.913988412137373 13.538831645212142
Zr 12.914848192175462 7.632992231542455 13.001194236673529
Zr 11.942678455107291 9.746455056951206 14.90877706355443
Zr 9.064865054260014 10.265746151137265 14.866713923792554
Zr 14.402632585621355 8.9644246852295 10.608322801091258
Zr 13.253830070435395 12.426279317333046 14.19912200114262
Zr 9.889677171465525 8.505012776224492 12.784682258155811
Zr 10.796149493734415 12.311499405512874 15.787206536597015
Zr 14.792981971291033 12.00238939271247 11.449959071656782
Zr 12.198330579911412 10.153312709101693 11.934977212224053
Zr 11.605600329111907 7.596959960838261 10.509082486092812
Zr 13.096852964506551 14.248404349860056 12.026044364356052
Zr 8.307577867711164 12.931822752754247 14.535691660019848
Zr 10.789929959535108 14.630686673924197 13.912349489113588
Zr 10.473532511812898 12.126175052178422 12.665306013892026
Zr 11.859349403512889 11.966208702179532 9.780331521184829
Zr 12.273075361160226 9.270039843021365 8.316436154181503
Zr 9.549208948298295 9.572657716888534 9.930877244583536
Zr 10.785390213075063 14.806546305893127 10.646916730639171
Zr 14.64023480643409 11.123630106554783 8.71708349634501
Zr 7.855620557787845 10.983429120837494 12.213893030106702
Zr 8.32897451884303 14.082442078923952 12.051307938188248
Zr 13.595100569378468 14.013073033884062 9.079169382376294
Zr 10.070064919274495 11.10269844635154 7.493321587619826
Zr 12.750080898628408 11.97353398264126 6.944253523169367
Zr 8.769844508776485 12.561468778478202 9.673301992957157
Zr 10.783548697845921 13.900199486348168 7.841964662821165
