28
Energy = -201.30900732 eV
Zr 9.686313963853559 13.093978725879829 7.743626942769398
Zr 8.101305974147396 13.37383578222018 10.281290888456617
Zr 10.524701525024819 15.137362045025585 10.367024622718741
Zr 10.428639062396165 9.675882457981704 7.6799297701979725
Zr 8.70192301843752 14.685363115509421 12.801536779625238
Zr 12.571969017076587 14.350921038058654 8.154161882888618
Zr 12.335672826495781 11.821621482442362 6.905966742290514
Zr 13.349379436160937 14.315887977021243 10.933840248930604
Zr 11.387070175509246 12.272636497369653 9.650445436649111
Zr 7.6722845129538335 11.76893813186528 12.801636443531097
Zr 11.759278127596986 14.621149153743598 13.40717545971322
Zr 8.733279723158763 10.60839165849949 10.026683536450225
Zr 9.581969242915191 12.972141099990424 14.869033004436295
Zr 10.511347996115061 12.618783619191463 12.109428150165195
Zr 13.545141740616385 9.500535765552492 7.797723124612074
Zr 12.019951457660483 9.738211190504755 10.275397339460488
Zr 10.589252575478312 9.965856754532656 12.518986498727077
Zr 9.565911793294918 7.806256567844777 9.9844338993064
Zr 13.566184512490214 11.729404662442127 12.181682940115138
Zr 12.174891257139716 7.282487939906946 8.877857226776992
Zr 8.747161742298244 8.017899979989101 12.786968863825182
Zr 9.078095236233464 10.231365104569804 14.975584062783135
Zr 14.377589875676982 12.00085814877728 9.218255398090179
Zr 12.005676114829926 11.26852748216935 14.892998168829424
Zr 14.431158788896045 8.595271214071593 10.59119535786554
Zr 13.50670249965653 9.130025406455491 13.368737414419805
Zr 11.766740919544164 7.15878545057477 11.9440981824497
Zr 11.107897996946921 8.274128024997152 14.733423828777031
