20
Energy = -141.2628561 eV
Zr 12.316161468910018 11.871809658459568 7.540174638272889
Zr 9.643888447591353 11.776419031599854 8.5123787713012
Zr 11.46642559059185 9.522633213144374 9.335163962190503
Zr 11.077761638098274 14.419679613936472 8.78160897760752
Zr 11.053073324222748 14.9132764855446 11.848598301989385
Zr 11.934981371147945 12.26381958273202 10.316368766358169
Zr 9.053910706819332 13.475348523218567 10.623308505229712
Zr 14.27684708642552 10.874572500712397 9.264578552850205
Zr 9.15345086638546 10.602455950971347 11.344065861096462
Zr 14.92933532298512 11.241994016963558 12.298520006730824
Zr 13.63848543363699 9.06535267481091 11.31627907667895
Zr 11.926541231183956 14.296709307303017 14.414456196557586
Zr 13.862790229862417 13.997173162650844 12.108842160165151
Zr 11.91728102027792 11.630119169298332 12.825504082809006
Zr 13.06267180403358 9.540893789977167 14.303770028476508
Zr 9.352536698920215 12.868370023413926 13.5135341799417
Zr 9.904873876057957 9.95165515996168 14.203519287237315
Zr 11.093930047787383 8.571084977727397 12.164360095829949
Zr 14.069882201444726 12.44791373984308 14.722430967166916
Zr 11.386317034602003 11.789864818715241 15.683682982493977
