26
Energy = -185.6793626 eV
Zr 13.360266536224863 14.443680518790858 8.68989384928938
Zr 14.362559041502935 9.757337919604781 9.80674767786407
Zr 14.698657828348034 13.180866825176562 13.040959106158542
Zr 15.39644922471601 12.775964028892494 10.2495563128111
Zr 14.367031289429361 10.435913856334045 12.591296842654149
Zr 13.583985541484724 15.189430676673732 11.296705134319247
Zr 12.250262498216964 14.166609457649596 13.60584142956519
Zr 13.867854213050832 11.767325856203865 7.914357757640077
Zr 14.591503013083523 7.68855730787143 12.280492001686236
Zr 10.4511017608355 15.822406491191497 12.767892481879246
Zr 12.80254647289616 11.69305591262626 14.998367565787003
Zr 11.22656840092092 12.811831927410005 7.836294170934299
Zr 12.579488543295794 12.221569179360204 10.667597387832693
Zr 10.677804286616794 11.115411598794566 12.708982778328751
Zr 10.088467907130344 13.190067242321915 15.063865299978065
Zr 12.159197962592382 8.609737484559863 11.291683132964367
Zr 10.687035152752541 14.606522872662453 10.156385678963273
Zr 11.546108948177114 10.060727192493287 8.633291186504024
Zr 9.275528842847246 11.940284589923241 9.71328083621675
Zr 10.336681297273804 10.267421118853777 15.622582463254567
Zr 12.326371841295202 8.87853044110839 14.166948583171022
Zr 8.075684115435031 11.329045848451639 14.360082499184976
Zr 9.49731064583633 9.066899903748551 10.474132297652812
Zr 8.756692110117479 13.487987182623755 12.263402712448405
Zr 9.229316407954485 8.652187580066066 13.385953641268873
Zr 7.7165220202720635 10.655068783656912 11.769729800280505
