24
Energy = -172.37468633 eV
Zr 11.68273725611548 12.763707012087789 7.673835545661371
Zr 12.660215247861224 10.110864981116839 8.470928727632149
Zr 9.905081573683526 8.345469821527551 8.70403369091312
Zr 8.587927173998207 13.05898500596189 8.106707167737351
Zr 12.565420039819209 7.578509345607933 9.74225986585952
Zr 10.961997442809064 14.469224934519326 9.755817337549711
Zr 13.318679929203252 12.378541210800488 10.062060620730607
Zr 9.994898651878236 11.411086845379645 9.866086556219962
Zr 14.20838120511684 9.566926797875505 11.243219287075835
Zr 7.711500209767456 10.101084961585874 8.27090727205272
Zr 10.088841369744536 10.657012580985441 6.8699057319583945
Zr 13.146024201267405 14.614642511496411 11.727766783135754
Zr 8.510448191648724 13.859019783999116 11.044629300977595
Zr 10.164415116272444 6.967202105946756 11.198189749156306
Zr 6.994682037325943 11.672764972858833 10.369850193557529
Zr 11.388348755894128 9.834079412674315 11.661761817603495
Zr 13.492305439279622 11.94107621294377 13.040337695831916
Zr 8.141159522036588 9.021843562520973 11.131963849449699
Zr 12.59787273347088 7.20951910937451 12.520413633081354
Zr 10.812278284189189 13.365478975682162 12.6509287203031
Zr 8.582644487680952 11.325730474605036 12.842547178554561
Zr 13.009169972871149 9.303584858111504 14.139088966391537
Zr 9.990460685631462 8.49585197860051 13.73599996160046
Zr 11.041990378671986 11.205596066358208 14.458176934627156
