29
Energy = -206.88668599 eV
Zr 9.732604650797713 14.77676748825444 14.708870927897712
Zr 12.60840528383993 10.093175914521668 14.613979419493116
Zr 8.403247950811576 12.372529882787116 13.69998834425725
Zr 10.936492941618804 12.272375249115225 15.44414498741839
Zr 9.939879929032696 9.686726985812012 14.0292887740105
Zr 12.239309883185665 7.855048837157008 12.859431583265566
Zr 9.744183648575374 8.018165258266363 11.55911117566817
Zr 8.553083051265252 14.911429354419061 12.13557990277381
Zr 8.27538971373223 10.256756341453254 11.835212188739433
Zr 11.097025700482687 13.11441056393439 12.492751768836007
Zr 12.691332516897457 14.966538382409698 14.617949431620385
Zr 8.459678930034848 12.648843440529356 10.526863652368043
Zr 13.849604294644319 12.495237178740645 14.307696283048433
Zr 9.4473555901615 9.718626028095063 9.198645165991502
Zr 11.776915849574074 10.462843567961773 11.234654139306535
Zr 11.863256536458328 7.841414726251207 9.680354566460124
Zr 11.11221013846305 16.23347737395548 12.506108153991262
Zr 14.639637038615755 9.78979634972035 12.754512776303466
Zr 14.496203711979433 7.5820491629575795 11.006805625841135
Zr 13.99301857821125 17.106025503422917 13.16993314763167
Zr 10.628080802789974 14.783580109043404 9.974098891983564
Zr 15.520518148857626 14.866438007059665 13.535594329259675
Zr 10.447747025375861 12.377173911748152 8.61676977838719
Zr 13.49316377113682 14.851707208782141 11.504844122320835
Zr 13.127533213557406 12.83646430125777 9.249737118137473
Zr 14.850116837759714 12.385251694152462 11.58281749552063
Zr 12.197491152639653 10.297962289837846 8.06412887145498
Zr 14.60832767093471 10.203189093736494 9.690022150335151
Zr 14.249875751037457 7.854271505617389 8.24468182316913
