24
Energy = -170.9965962 eV
Zr 13.365818975279335 13.016632445461568 7.257199259068907
Zr 15.441910425731688 12.125877876969525 8.573696489171658
Zr 11.870019108258404 14.499355983319564 13.13333692639381
Zr 13.352493362168813 13.405545063519948 10.24496636237732
Zr 14.010043517378758 12.567216857116684 13.378292724555523
Zr 8.326147931809672 13.047464954185319 10.431890483478586
Zr 10.609999026039379 12.460324471620238 8.610647314947606
Zr 11.456655744112942 12.184974376604051 14.77028694551576
Zr 14.489666774030933 10.749920915478388 11.27754365735361
Zr 10.466522242535788 14.578288786179453 10.779651654611634
Zr 12.864279801873932 10.666554425359362 8.902848107102885
Zr 11.622989529752102 11.925066009766246 11.792057488712402
Zr 12.72920704684999 9.78341244160861 13.661321577895128
Zr 9.949687214681425 9.973349811706477 10.850061401971521
Zr 12.878505729828444 8.412785737235454 10.930196977713228
Zr 10.16494474158039 9.382668067031796 7.999710508093773
Zr 7.887789203576073 11.029587058367907 8.766039047952056
Zr 9.130130088000662 13.00520375831712 13.164815782511742
Zr 7.3286954003193525 10.672466561903686 11.901784648367927
Zr 9.586275714442966 10.040004029990167 13.977203662348105
Zr 10.33174838422898 7.141492759623363 10.07791107391415
Zr 7.7879580011948 8.45667385549545 9.578788106045504
Zr 10.969605052160404 7.6803106638897995 12.840237204235535
Zr 8.305266376565285 7.886001131688625 12.271254160551734
