23
Energy = -166.11594608 eV
Zr 13.117180201198627 8.874460731704474 7.582783265417647
Zr 11.682274537109793 11.076987326648114 6.917712354833885
Zr 13.78259403368382 11.44013161563018 9.135126282634332
Zr 11.306285014622233 9.907981490540354 9.728524794265045
Zr 11.985798883922362 6.980859594971388 9.347804229321017
Zr 14.087303001611126 8.702040943809735 10.273682245738739
Zr 9.950697695682885 8.570172005517186 7.605545744228625
Zr 13.53308633479591 10.74426254171978 12.223197605411123
Zr 13.01525567436287 13.327543403481712 11.15028749651679
Zr 11.215841389936278 13.247350626768263 8.835609384228569
Zr 11.87961231300323 8.009864923493833 12.158398424225526
Zr 11.555077056042268 10.004807338263902 14.143302068085745
Zr 9.474722309503363 7.472072122729625 10.387076775842145
Zr 11.715714784470627 13.009124971143393 13.804292226457507
Zr 9.067258078667265 8.92239316597584 12.785629330625019
Zr 9.144919985712866 11.420035094413933 7.849743601111974
Zr 10.626189186242772 14.61939609801878 11.361773807552657
Zr 10.348749448311514 11.587903581911323 11.7429092150635
Zr 9.176467467652605 11.356101433493489 14.526287879519659
Zr 8.707627102018504 13.719926197856017 13.054194173883054
Zr 7.982988498648393 9.861401673621742 9.926244460164611
Zr 8.333202047916192 13.014201378813155 10.088262973527433
Zr 7.337540159737521 11.311427206953002 12.325028124346916
