23
Energy = -165.85996232 eV
Zr 14.394729149091537 12.206105417895106 12.59771726971329
Zr 13.909298835556314 10.31293562708536 10.392567983244593
Zr 13.486554876145831 13.364464170301197 10.007878479775593
Zr 13.40665607872973 9.797638624744454 13.268999895241324
Zr 12.628383175294555 8.364657682571954 8.821526830833426
Zr 12.810705842930417 14.366799682052914 12.98807517995574
Zr 12.115810504791861 7.801606464187845 11.70104537989123
Zr 10.76652259140415 9.331746701958316 13.847834225254804
Zr 11.949277997364199 11.950458275784825 14.585278377064778
Zr 12.125796936973078 11.210368497112375 8.068659540596885
Zr 10.429614997504846 9.907044002514095 10.283359559440772
Zr 11.48259046091503 12.04893266418379 11.681518586972368
Zr 10.197903385737153 7.032675747793766 9.622658594462337
Zr 10.97851348669428 15.031881858506408 11.030103841291824
Zr 8.805513390337815 8.256785330846224 12.02520984496625
Zr 9.983443877574237 13.932548850115504 13.492778389977836
Zr 8.815225343632475 11.234164857279502 13.259756449367913
Zr 10.768407141760683 13.542438397957483 8.803300064189376
Zr 7.437604506558214 10.697435993781127 10.863584637780558
Zr 10.256981463859734 8.97609055395206 7.398191962145469
Zr 8.637293304859238 13.248777912810562 10.862882977009905
Zr 7.946990772328412 8.708702406595853 9.129180519835153
Zr 8.917680381360851 11.494922105571737 8.29255459350946
