27
Energy = -193.79122448 eV
Zr 7.310977066235889 11.594807194529333 13.237545284899552
Zr 9.986720693667893 10.653130660679277 14.536510853083227
Zr 9.46995795437521 13.566304183264982 13.891570392759283
Zr 8.386812044831244 8.93963306088577 12.343560688129871
Zr 10.742318865597564 7.796399298276927 13.92336524546424
Zr 12.3289843973695 12.496494886896764 13.403391455988578
Zr 7.779458418450398 13.852177092716994 11.38069584516577
Zr 7.223960533619359 11.005601888034215 10.18946706240661
Zr 9.676922988334285 11.836831826776706 11.647115847425107
Zr 11.558067996727532 9.754427414070697 12.018326767413225
Zr 10.796146757429403 14.585243778298578 11.388445305736141
Zr 12.98219091217433 9.746910158642606 14.456901599541597
Zr 8.06839736079303 8.062175350246315 9.556154393724235
Zr 13.703812265363393 13.552199692854016 11.071856122560547
Zr 10.573704641908792 7.051602948324148 10.988584928498012
Zr 9.146551807576765 13.081363462396594 8.837116310839717
Zr 13.32949154231843 7.657963944983678 12.360232658774066
Zr 12.08654032488661 14.240152949516165 8.717561321001742
Zr 10.096892693529483 10.00794850768324 9.366025037539186
Zr 8.937174415861309 10.07944762437282 7.0679232843734825
Zr 14.363307373270978 10.57396063653768 11.787947401535332
Zr 10.53412928611713 7.529801005714515 8.018917915430276
Zr 12.070485575320408 11.602321140717558 9.846230241116414
Zr 13.118212248066934 8.62248246442615 9.554050172789697
Zr 11.213606848285483 12.239497268047717 6.909636879905187
Zr 14.057458612542744 11.808403805470858 8.249765684186471
Zr 12.088744345633593 9.681461578575986 6.994265642722267
