21
Energy = -147.99699671 eV
Zr 12.83431599706916 12.867975299389231 7.931870579612546
Zr 14.239131265271572 10.844990931033664 9.580106834490236
Zr 13.786190915608397 13.528912404882629 10.704528342829342
Zr 9.873931203342922 12.711701700868867 8.00575900561537
Zr 11.243090047116814 14.616618981473934 9.783965344334769
Zr 11.288423108240705 9.69221628578605 8.443374873022671
Zr 11.567494699060456 11.778106405056239 10.150934994846997
Zr 11.404063833115455 6.826541641705914 8.945547796633985
Zr 9.084426886318305 7.820382842073313 8.10205472263712
Zr 12.883977915644925 8.72525081019804 10.918828485386332
Zr 13.472729194431139 11.179562413037912 12.609547798077068
Zr 8.461051133569036 10.618114361153076 9.319207653621564
Zr 10.370041063984674 10.66576348834764 12.132492564525673
Zr 9.813353192716987 8.316222136282768 10.884195935531155
Zr 8.825299330707931 13.168480069853223 10.929152601347187
Zr 11.41561937560563 13.580787021049373 12.69055276500449
Zr 11.85425990035714 8.662336826539383 13.578967573109486
Zr 7.493703597827383 10.532620010571055 12.003080871582512
Zr 11.353156991759118 11.30333402044386 14.775246827985962
Zr 9.07238271052836 9.426797898470486 14.254576092859274
Zr 8.818802029465754 12.389091178890046 13.85896277256632
