21
Energy = -148.55534978 eV
Zr 13.092437552536541 12.879477714983228 10.193416043895972
Zr 12.925095791572922 9.714378503559828 9.7901815337303
Zr 13.454420805772623 10.81566751747939 12.336728948203769
Zr 11.072870259597513 14.717523875309542 11.44368584096475
Zr 10.66502294548579 13.843679582643151 8.817703345496659
Zr 11.456852616991991 11.36491102628142 7.966281181027057
Zr 12.322300819697817 13.111572426705363 13.202657490561116
Zr 14.053163389739895 7.04328342488352 9.455746810198505
Zr 13.144117738431213 7.979418964534162 12.112966110563917
Zr 12.33473278627151 8.189087746863173 7.500658391128223
Zr 8.494719776801366 14.11904838508123 10.596646172300739
Zr 10.389621703301477 11.606086140008493 11.093835344079782
Zr 8.521652362556281 11.740257011324369 8.715584298604906
Zr 9.28665835791971 13.201378104939403 13.411069970558174
Zr 11.138858524526366 10.749216430264541 14.112686540203896
Zr 9.821177102823668 9.086952767228972 8.688568918792432
Zr 11.322322076659145 7.0280105904349455 9.983226754832257
Zr 10.372604017485743 8.531523865901855 12.224212745406474
Zr 7.225404261668969 11.97026391818461 11.516382477832884
Zr 7.91061994148259 9.414067002551008 10.687737285327874
Zr 8.484309286129683 10.316618624267209 13.355350219112566
