20
Energy = -139.53002547 eV
Zr 12.395775495345616 11.283913644550491 7.789105455477824
Zr 9.725140939968105 11.909104459530093 7.875496282324689
Zr 10.478664915429343 9.160335731430019 8.465636579187207
Zr 11.309816564021867 13.98083514362034 9.259856846437499
Zr 12.906288027568873 8.94458842715553 9.67827161958041
Zr 14.279431816924003 11.489745616113787 10.511658169449312
Zr 8.177834549265983 10.296685324254481 9.740734849898654
Zr 8.70671659090371 13.142093449088245 10.251143212673798
Zr 14.030324915356315 13.428230813558427 8.59390565234572
Zr 13.355040876060064 14.233934864252506 11.293279999028282
Zr 7.325927198034835 8.53424095113803 11.92197441136312
Zr 11.185021184771871 11.336992478050423 10.687057229623827
Zr 10.28376173394363 8.692846207713835 11.56417724416095
Zr 8.48144621677815 11.217612386249826 12.467365423964413
Zr 11.307163161867749 7.931712218793457 14.200424023289624
Zr 10.618495240639927 13.66049309555712 12.40571155777411
Zr 13.150368817651788 9.505367127807737 12.47238011023792
Zr 10.833303736993386 10.823424480236094 13.89099775413685
Zr 13.160318935432581 12.263329585642415 13.178449398633541
Zr 8.720098627602818 8.595453539817225 14.183313724972708
