26
Energy = -186.8185135 eV
Zr 14.026640686875307 12.709528936630893 11.533754997806726
Zr 15.662391871487566 10.117743808456343 11.642464640675877
Zr 14.282677230337645 10.568371792916935 13.90792173469199
Zr 10.7918891159263 13.50606393513866 11.9000920128421
Zr 14.691416590736678 11.028849492421463 9.1186794507956
Zr 13.183843902520797 14.448279324664508 13.538976478276956
Zr 12.390650615755627 12.628262058629812 9.104080359690936
Zr 12.402896337636484 15.399453920997294 10.51439016459817
Zr 12.470298661289311 9.989543440062716 11.357507525042632
Zr 11.153148122313057 16.37628390997243 13.03949777753754
Zr 14.014760086447374 7.746526154202505 12.602414996221023
Zr 14.655035091213547 8.345715714318011 9.71857699408219
Zr 10.64799057495824 14.28829057688223 14.977115411883055
Zr 12.317662191996293 7.093171250454711 10.05691231517196
Zr 9.41309268801455 16.074163586529853 10.809621821817364
Zr 8.48309788663959 15.195507914992922 13.317821660452953
Zr 11.75018445618998 11.78534014415086 14.080141526441565
Zr 12.155400006843452 9.57667474731288 8.376732810985375
Zr 9.92909402319829 14.127053896767777 9.012399516903535
Zr 10.970013964537047 7.360664629431372 12.45724551801277
Zr 8.725169044359113 12.399715723240908 13.824438767460746
Zr 11.917789032822077 9.042717337983316 14.393309111564061
Zr 9.451524982068578 9.86600290385754 12.646166022044456
Zr 7.889617292387291 13.503456690176455 11.039058650317232
Zr 9.832884360579408 11.35601108085645 10.046501074638218
Zr 9.936253308933683 8.560005340827237 10.090744566312095
