22
Energy = -156.72490175 eV
Zr 9.338448861045133 11.889420240071802 13.233662226535827
Zr 11.333909980509091 13.710633549519295 11.62287141628181
Zr 9.149724687612014 13.195788924505761 9.259958537169595
Zr 13.342056088573637 9.454594108009903 12.288629516246965
Zr 8.766898621370892 10.289905664167849 8.22535491189466
Zr 10.778759879178224 8.881155009880057 13.894767966743125
Zr 7.805501893641488 9.352277490923871 13.004593910135766
Zr 11.367006725793871 11.260602281198214 9.725111636086737
Zr 7.571318894927207 8.386422263584814 10.224965405259791
Zr 10.774002001496061 12.22662642172493 6.957375792611137
Zr 9.227202677091315 6.960966996175017 11.993482566986476
Zr 11.440024132136363 9.510372430565019 7.206942110564072
Zr 7.432782396333218 11.241224646840722 10.754936276499215
Zr 10.109422628021608 9.623518956203986 11.305359019079734
Zr 13.506937262362982 11.46569989103995 7.8041005656675795
Zr 11.956192589552812 7.197297215597758 11.580385404891903
Zr 12.18683620614972 13.869777213166966 8.914440594953577
Zr 10.306160618881863 7.6219250598768955 9.112743304524866
Zr 8.284817373052991 13.946081077845072 11.81639870862905
Zr 13.237955848381077 8.867212864183923 9.423705951026026
Zr 12.12841414339179 11.613325215792749 13.230777465964321
Zr 13.876307504535568 11.994720763953513 10.752480625490488
