26
Energy = -187.9975604 eV
Zr 14.182840742163968 13.388736855244884 10.224322771964374
Zr 11.966844692221704 12.786025713596292 8.698717906637242
Zr 11.534830120837686 14.499707822276454 11.142970318131681
Zr 9.079566378390929 13.636423542537699 9.867344124056785
Zr 13.942429602226955 10.615810078379624 9.52843947569353
Zr 15.288881089682002 11.579575153308035 12.346394420247215
Zr 9.655665475190522 12.246804248572856 7.3435371698843666
Zr 13.98740739248072 14.266363579597536 12.769077034397728
Zr 9.310563931669087 12.875377478749684 12.812456864792178
Zr 12.315012023949443 11.586175303942293 12.058320842535188
Zr 7.198961008763079 11.716061511721964 8.682903965303032
Zr 11.465486205780522 13.97326010450849 14.026609624335428
Zr 7.242813657109599 11.751831031654703 11.371215029030992
Zr 13.710440995320619 12.495843822256049 14.858062848981241
Zr 11.558775505913854 9.946419740316808 7.655795497941127
Zr 8.474456052088962 9.69238300793769 7.288512696307762
Zr 14.15771265653891 8.929517941028124 11.856135820400667
Zr 9.868838296557156 10.613297737888619 10.086549675999406
Zr 10.933983885749502 11.111749115993732 14.738942297389318
Zr 13.664320111510866 9.893224765729455 14.356930051336613
Zr 12.116008726265845 8.24848218700941 10.140807387317444
Zr 8.753403467172157 9.89676018865253 12.978447565199295
Zr 11.48206494665543 8.594711885973272 13.1182913726447
Zr 7.312464749194943 9.037389890763382 10.073831675459596
Zr 9.719080662450462 7.7991216710178355 8.669510787278906
Zr 9.510813224372654 7.617409761374857 11.378876959610237
