26
Energy = -181.57117862 eV
Zr 13.63735463895159 13.545983049273515 12.522734768204828
Zr 15.515692476667676 11.394043770457492 13.058553966342584
Zr 14.947140987154176 12.361461587815645 10.184750181006633
Zr 10.90218812566315 14.919276112877572 11.962442517604204
Zr 11.159420599695757 13.110491069283139 14.095789161385234
Zr 14.252904164499213 13.368896503104825 7.546236488400913
Zr 12.874606783637907 10.683769575984812 14.153900424386153
Zr 13.853776828480548 9.769397053688646 11.25299114594764
Zr 14.920162202307553 8.792216722812203 13.763684979193606
Zr 12.877178180563888 14.472529290875029 9.780757942556988
Zr 8.594524460981868 12.104563027595951 15.1418534455449
Zr 8.871929526474839 14.80426408188172 14.439114855048038
Zr 11.444969347486326 12.031137975239066 11.031707430248167
Zr 12.291546350105952 8.052748723222155 13.134940714492117
Zr 8.678370937468438 12.92419682464553 12.29579036609351
Zr 11.538573429212557 13.276202841283856 7.396574918878747
Zr 9.765729915359492 13.903211254682668 9.451304655404481
Zr 10.079009622119932 10.225862396782146 13.339292800569398
Zr 11.087859571655644 8.9860304768309 10.508803947482274
Zr 12.891532813699534 10.916349409976103 8.48467141536476
Zr 7.241658341830215 10.301282913603584 13.14510232023383
Zr 8.506815628734277 10.759621446269193 10.515154638497801
Zr 10.088477073037508 10.805999166685314 8.248296366691445
Zr 8.870672117471099 8.169591431200498 8.848488337563026
Zr 8.691721814190862 8.082565798557901 11.899834357720877
Zr 11.365379819724867 8.24749816455285 7.687909541678404
