24
Energy = -169.68129198 eV
Zr 12.39867878924193 14.150266721107137 8.95070421227618
Zr 14.958255084257543 14.388414479907606 9.748517356358512
Zr 12.477520333416653 9.181948262531686 8.681108865458
Zr 14.079313677997707 11.717150217091683 8.74635249866358
Zr 11.054588219313187 11.867818943073756 8.131506883213923
Zr 11.955737869098213 11.173847435935034 10.80929626068865
Zr 10.083463509997197 14.014325840859156 10.552423097332026
Zr 12.944576464337256 14.243207983725117 12.00448064109543
Zr 15.26705756663838 12.280463031268246 11.394876592393807
Zr 10.561284528361382 7.132608012484336 9.343490879596878
Zr 14.433541938198285 9.659760661625146 11.022318874853273
Zr 9.502061032432755 9.62619983274378 8.725177930666565
Zr 12.487177037128118 7.665379461215682 11.273542137375099
Zr 8.105269920395893 13.291040543736912 12.783871906101266
Zr 13.75734379407337 11.609165255921335 13.677220019790619
Zr 8.636432218500223 11.435009419604135 10.692252370570634
Zr 9.792121602408006 8.828650489046865 11.543005599167252
Zr 11.973347416193688 9.245509278578709 13.532783524428252
Zr 10.876402327604676 12.306381094987506 12.951755717831754
Zr 10.287859784636822 15.173154311315384 13.308266758494316
Zr 12.30470668226839 13.849737955379116 15.01491855253548
Zr 9.424399546423402 13.149965549507016 15.315241210528638
Zr 11.411944503735075 11.118724058889233 15.595800780270984
Zr 8.932219438779414 10.475225048059539 13.839768459898298
