25
Energy = -180.20361119 eV
Zr 11.94702761886881 11.494084504166674 14.853537190924921
Zr 13.61149528779746 10.282388099203056 12.58095338921314
Zr 12.226968703943928 13.289286411885081 12.31133240559462
Zr 11.72413200258482 14.263843790655397 9.584031924247055
Zr 9.235962984754092 14.083274553182004 11.466870714636043
Zr 14.342102860312904 8.941992806499897 10.085452998095423
Zr 9.636165909400122 12.970414640990782 14.040091915416907
Zr 11.574167164560087 8.678060207069269 14.226057969051936
Zr 9.205466972305178 10.187539289957948 14.775971573554303
Zr 12.178851539559172 7.448209673792915 11.753168759674226
Zr 13.510395348275756 11.895673252265587 9.866809356776832
Zr 11.513296388134497 9.564034696011115 9.94643270140477
Zr 9.126534966114251 8.270360057059822 12.31484859571353
Zr 13.234969093288136 9.848480058993172 7.566196997123942
Zr 10.039058204696637 11.882833924419574 9.829324072194403
Zr 11.499557151801092 12.161695690925802 7.346481798245464
Zr 12.455296667087637 7.25563077475593 8.624095771376787
Zr 9.21060533696209 14.11664654290243 8.317132430009941
Zr 10.673098168066664 10.780405106006977 12.388680564744543
Zr 7.731755776425612 11.290705121831559 12.31996353366586
Zr 9.847754469820671 7.169662863677524 9.690812801446512
Zr 10.254159571407753 9.152308013243106 7.374827270642799
Zr 7.209738069224585 12.505246285075998 9.708286497979808
Zr 8.512338432215694 11.471916200906902 7.336268721264295
Zr 8.048914021249086 9.54548944596984 9.708915848109365
