21
Energy = -148.06919465 eV
Zr 12.908349655362905 10.708338268226305 7.9958569926132235
Zr 13.957552637327487 8.689017374616178 9.545166837750632
Zr 12.09764664726438 13.05544601871571 9.740315828761556
Zr 14.319745441296881 11.487445608901451 10.524992933481595
Zr 11.081743505523633 8.340604675237586 8.4526253845042
Zr 13.889318272316782 9.28579873872505 12.359302305142933
Zr 13.43063149092885 14.52466325542615 11.61693537382358
Zr 10.21456644303451 11.302379178678683 8.085297900532401
Zr 12.299230727058259 7.212984260627436 11.159250990913188
Zr 11.376166154274094 10.118970508734524 10.752215073021773
Zr 9.640208245238766 7.579809589494991 11.042603932087774
Zr 11.198788000097641 8.947493929654716 13.482069587733022
Zr 10.626467741881244 15.405428653365313 10.626117963419594
Zr 8.437849943144089 9.723909222182764 9.522486469388841
Zr 12.675654170435864 11.817704199563574 13.04590484464882
Zr 11.091028476214456 14.192646079895349 13.088242088311171
Zr 9.415315736505951 12.53875751068242 10.669419326795696
Zr 8.482684166079252 9.500709633135276 12.496587161184747
Zr 8.426426682063413 14.425352675429828 12.553924982392934
Zr 9.696704466088264 11.72879643974602 13.74335011298838
Zr 7.1818500954193185 11.800294095863606 12.01091449267457
