22
Energy = -154.49258084 eV
Zr 12.58898791935932 10.778691664827509 14.340117751278404
Zr 13.990984897505589 12.37256977060768 12.386864848892165
Zr 11.28903165696909 8.352301214444543 13.094808264561694
Zr 12.402372410561894 8.24498998233126 10.192899686379961
Zr 9.941969205624213 10.696959542850177 14.489879303659981
Zr 13.939500509318385 9.332417820974186 12.459883219779506
Zr 10.906397889597836 13.1427605935961 13.407750071084735
Zr 14.418218583246272 10.485403421142106 10.056177011209535
Zr 12.410408982129546 14.656200843271138 11.629721056625494
Zr 8.368175146722937 8.955927714592928 13.21916644156511
Zr 9.436316510592302 8.150800628364982 10.698034230453604
Zr 13.367407548784168 13.02612577324021 9.470850446884436
Zr 10.360204310415597 8.782318976271501 8.033238251724528
Zr 8.450885793934518 11.78460803030102 12.306661149067862
Zr 11.48171511818672 10.965081099245221 11.30739576331133
Zr 7.617799729306225 8.83162488095025 8.474622540143946
Zr 9.84803380326929 13.630179721008606 10.487866631850496
Zr 11.677837315214134 15.239699638809928 9.035914452825489
Zr 12.502941325948937 10.521084043203047 8.122844812566102
Zr 6.882233900535949 9.627818102161656 10.98035718234633
Zr 10.8279104791959 12.739210925806962 7.883261939635998
Zr 8.946888016273588 11.139376626079159 9.273440358900686
