21
Energy = -148.31589272 eV
Zr 8.511441207342182 10.19261941214799 6.3210192538608165
Zr 11.590113176894357 10.930688661923371 6.61547279325267
Zr 10.652722968344534 8.403094351514998 6.5286705103813825
Zr 8.240990039198104 7.332183834639033 7.762899203377847
Zr 9.611753896356364 12.08331494493866 8.30630653420053
Zr 6.589996210114117 12.313904480062725 7.886090387911425
Zr 11.047622561334807 6.496060029504673 8.344671189579046
Zr 12.371288095762425 11.730616355346033 9.156001794072786
Zr 12.839646825072021 8.81382800665082 8.54623558806709
Zr 6.98432860233733 9.812619814059312 8.636676400727099
Zr 5.520879105089026 10.868279437183505 10.562902044215651
Zr 9.17706077049546 5.995392801676729 10.188489038792973
Zr 6.934457962634722 7.794680430360975 10.540363519752816
Zr 9.991085133105825 9.161266996065613 9.766738349741173
Zr 12.805375076527973 10.00048012048317 11.186642036619856
Zr 7.839696333681016 12.515496123641373 10.421073589735387
Zr 10.50666251980493 11.884602249375758 11.384911864329464
Zr 11.786003414331171 7.222521601700352 11.145467722084572
Zr 7.989139798754603 10.23250006516303 12.112782081748778
Zr 9.02064637129153 7.483535393799197 12.462910506451806
Zr 10.762920646548169 9.506145604783791 12.897506306117485
