28
Energy = -202.78876813 eV
Zr 13.592876252958398 15.261340376038829 9.085742340795274
Zr 12.807234031836645 15.907577065969964 11.846287637077367
Zr 10.871848227676914 15.1139723990194 9.646622520472857
Zr 11.858825538708002 12.866664534769042 8.035234138937378
Zr 14.202682885281451 14.367051878906514 13.907546629485724
Zr 14.92768946949011 12.895336691954004 8.617759208760459
Zr 15.403430689499126 14.127092808257117 11.277959810515968
Zr 9.865367485214023 14.97438558391851 12.303525985442855
Zr 11.331050956660942 12.509774544520113 13.538457157101634
Zr 11.715198217324176 15.452619740565474 14.509218107126255
Zr 9.629249242264327 12.573418414202413 10.228831698753465
Zr 13.564164733404217 10.569008684737094 8.418039298579343
Zr 10.834431592739957 9.917742473163706 9.205880448687068
Zr 12.811560947457965 13.037705382656121 10.828542913024213
Zr 8.274380231400588 12.662264648013291 12.739313870854488
Zr 9.196574717342626 9.996109387972982 11.797082478587445
Zr 15.305263579463114 10.795294730948878 10.742931649321818
Zr 12.25089672367019 10.450888087894466 11.762743984714838
Zr 14.843368408002313 11.703495157933085 13.321087008742412
Zr 12.603748706509819 13.262768884558007 16.13312032597205
Zr 13.461064502692114 8.43003504080046 9.977070307380792
Zr 9.53421472340396 13.636296270606193 15.319442618001037
Zr 11.174971573444502 7.814032654211256 11.45898508514498
Zr 8.800405761445933 10.779134652968793 14.626258274626837
Zr 13.90745657033073 8.565656384604804 12.89602930934354
Zr 13.32404269502639 10.366014143049421 15.157071088484159
Zr 10.975816922175687 8.890731652595022 14.163851290675547
Zr 10.938471429535303 11.037499173716842 16.309066941120346
