24
Energy = -169.07657073 eV
Zr 9.290481554758285 12.393891887440986 14.15680598966874
Zr 11.189678997185215 9.901351133003454 13.903432067600177
Zr 8.00775474268895 9.921388379347942 13.490454143871926
Zr 11.47602668763137 14.855855022883892 13.896678107035013
Zr 9.659309978337706 14.264632654397746 11.998036255459782
Zr 12.356723827558433 12.466726906492998 13.573333627531554
Zr 12.525092589252612 7.569754368990041 13.54532883273383
Zr 9.837206563872568 10.94657336664157 11.470031798249453
Zr 7.5615219390559565 9.322864063021914 10.657257311205438
Zr 9.749581758353532 7.887320281004542 12.196392673960535
Zr 12.355703675313793 14.44858304616096 10.972043250829886
Zr 14.09451214406306 10.13063605526977 12.875954180975473
Zr 14.614836469573875 12.798988277089778 11.530043536995887
Zr 12.278661395089282 11.327613754810724 10.61008583203839
Zr 7.453605873284293 12.294395768696525 11.638437387031843
Zr 12.545545511683692 8.383168800410507 10.955523527048975
Zr 14.928708514346601 10.301102456923084 10.022576320463813
Zr 10.095507893550428 13.566050354808468 9.336766005326854
Zr 10.229857617530907 8.63309575967193 9.339513316965887
Zr 13.561593227122078 12.654796850455893 8.585343006201587
Zr 8.360683414996954 11.26351574603594 8.721403143375332
Zr 12.915664030270976 9.632701751499459 8.094112677492067
Zr 10.952567627720024 11.650772228832416 7.529811478580876
Zr 9.845780450060488 9.28386315772325 6.884379611425459
