23
Energy = -162.42949028 eV
Zr 7.226324581150268 11.577652348084515 10.898370014996752
Zr 11.344706376646702 12.43120880746791 8.002667832514733
Zr 9.081207669668435 10.66299432482494 8.713736439220666
Zr 7.8483708378966615 8.744381048307064 10.69466159432962
Zr 9.38063852794451 13.374752598245292 10.144236972268681
Zr 13.24704493031219 7.889874629109145 8.386632018268532
Zr 7.44367093211118 9.98084047106864 13.28464681190949
Zr 11.557393243999883 9.633415888736883 7.171414628049581
Zr 11.771327318683403 15.399255423055807 9.949813277160647
Zr 9.925084501178834 10.702254879229566 11.714474309020313
Zr 10.715388946966534 14.660536224158719 12.442889994472255
Zr 13.521436205013933 14.610130896941104 12.360823975769968
Zr 8.687131973003883 12.76118348454582 13.288958343140132
Zr 14.258546672330208 10.650560254151554 8.57967329929857
Zr 12.131411372943978 10.20312945252746 9.956717014896606
Zr 10.710606564661033 8.017705508488248 10.250468852818184
Zr 9.533778281656462 7.985701504751013 12.997387320130674
Zr 9.955983008713394 10.345928312946343 14.646023466901243
Zr 12.661957097117368 12.980910530163008 10.482630192721766
Zr 11.911782400045348 12.230905325363123 13.620293095469856
Zr 12.287346234925007 9.220528742050778 13.12076892733648
Zr 14.23646930464645 8.414056389236656 10.856938156263885
Zr 14.25203804402954 11.114953114490133 11.981240242702256
