20
Energy = -141.07944522 eV
Zr 10.141440536988858 10.838355535388729 7.9637611989520325
Zr 8.246593446235407 11.593814837788416 9.74451003784482
Zr 12.247690512794946 8.93008624200285 8.96186831635833
Zr 12.581704714257246 11.824195068890802 8.151933256064027
Zr 10.391281587489493 13.55271203417411 9.158741805546146
Zr 13.592488319210371 13.431493308349118 10.22715878705037
Zr 9.44236990034072 8.966637117496557 9.825457141368112
Zr 14.310472603165831 10.54114631841676 9.829192387982141
Zr 10.887776008893084 7.224125549142684 11.272153073699288
Zr 11.279634726024602 11.428008515742027 11.262855605008415
Zr 8.741932557236503 13.324085474693748 11.878766525657559
Zr 13.286638428964238 13.585553721581443 13.055695632128629
Zr 11.291466008059505 14.73578664255538 11.519042067251785
Zr 13.041052834650944 8.872911382366667 11.994400581749602
Zr 14.475849108614696 11.331854087666136 12.308962872381937
Zr 10.472214492055834 8.85538005147052 13.445703442845323
Zr 8.084670274586752 10.169494474792929 12.087717381860296
Zr 12.351067378658712 10.927062853361797 14.247383743662619
Zr 10.741535214552936 13.571517939579087 13.975900072151841
Zr 9.388623310873077 11.292280808194576 14.085298034090641
