23
Energy = -164.87660362 eV
Zr 15.011120257010342 16.116957947075935 12.642275246118267
Zr 15.582853373718171 14.795626592245714 15.269531154875503
Zr 17.062506788734087 14.438733126767602 12.395190197138962
Zr 14.66116800808637 14.034139548545342 10.404268476626488
Zr 12.646987634103505 16.001859197107482 14.31474790597242
Zr 12.740630027766713 16.307184144774556 11.387743364482782
Zr 16.805763145636043 11.803741591434326 11.465358218352012
Zr 11.59545452956768 14.648276089194994 9.661980700840529
Zr 17.438046879186054 12.533671679034489 14.376370343193393
Zr 14.661025262475171 12.928255311381465 13.310360374006795
Zr 15.953428051703789 10.177941925238338 13.668962662960626
Zr 10.095168894038824 15.520163210701034 12.362041376111272
Zr 9.725648836037506 12.845998501078157 10.613755789940411
Zr 15.164075713027453 11.791218135825495 16.02112505011563
Zr 12.355146410231228 11.964834685704528 9.761677688015629
Zr 11.996402540980695 13.397406209862508 12.537752499025455
Zr 14.140580538477602 10.632421398437717 11.321251793027603
Zr 13.280187239166558 10.179256962498672 14.137186689781505
Zr 10.436546088479654 14.338156881435246 15.09479578598646
Zr 12.96654858102851 13.578316469098878 16.040974308066428
Zr 9.13077167934888 12.694472633668179 13.256211121802682
Zr 11.090287302490763 10.583563872961344 12.178531221837114
Zr 11.00021668534123 11.541910737722457 15.046571230786931
