22
Energy = -155.73719242 eV
Zr 7.540562024293602 13.502410341110773 11.697668246001502
Zr 9.238490586008792 14.29101556694563 14.114745521198257
Zr 10.010264026060895 15.152254184540483 11.45369905950599
Zr 7.9012492620012935 11.575516422832873 13.89792595730991
Zr 8.170888247522646 10.545421543327 10.994890220589983
Zr 9.275118600399196 13.051954428613486 9.45072775038879
Zr 10.121583177348324 12.342508294237692 12.237360692738445
Zr 12.212651447460976 13.965490058173932 13.347381974814166
Zr 9.964955799464752 9.468925873925903 13.48859954224377
Zr 12.117197597041539 13.915779392580019 10.187764882701378
Zr 10.58854464273509 11.960955055847087 15.106098489061246
Zr 10.238858857353947 10.444366837420631 8.657999253443625
Zr 12.877312322637753 10.818525673943206 13.858154446468536
Zr 11.829068468226806 10.71901200155118 11.062685564851423
Zr 10.022518875978307 8.34067128686303 10.7186160672248
Zr 14.215765182687525 12.568661194846806 11.595606080363456
Zr 13.473530122414122 11.457132713725004 8.794337491086873
Zr 12.442099691230869 8.162097817491928 12.344147255169165
Zr 12.629197445254382 8.575935613905747 9.315553047961972
Zr 14.657522393885957 9.81822992035796 11.263359743792664
Zr 16.315782282635205 11.518979737841972 9.507428158159604
Zr 15.432440927594024 9.34605981455506 8.366878373545969
