24
Energy = -172.21644915 eV
Zr 9.72030386476081 11.156236233091574 13.497334125726224
Zr 8.807101079190058 8.699142503264556 12.194392255912891
Zr 9.288050506084563 8.996275217560582 9.344574173164453
Zr 13.639872736224941 13.902959261294903 13.587612150453403
Zr 8.427308287913446 13.626967218846527 12.66167941064592
Zr 12.42526930151705 11.283680733967373 13.991065969535617
Zr 10.524767271760615 7.014492856956044 10.820885275443645
Zr 12.420940661673644 15.90362042230974 12.112968698163849
Zr 11.350445309338356 13.061226817792965 11.617791067079128
Zr 8.920843628523826 13.922805994461827 9.817663762878333
Zr 11.298094235236666 8.099923984442315 13.561734456909242
Zr 12.107003581283061 8.625102610715992 8.765647661628233
Zr 10.491815512980327 11.626789905628453 8.950825558159552
Zr 14.493677411772897 9.318012839211612 10.251536360921227
Zr 11.643423976892318 14.821276543409228 9.363957997154461
Zr 8.263324196215306 11.272925563732432 10.899923708012185
Zr 13.206315304214112 11.795414039318548 9.406541320612714
Zr 9.868013630667145 15.763818101001814 11.660288296113604
Zr 13.07471374685283 7.165713836258735 11.266290397346703
Zr 14.65358008090155 11.641697630884122 12.025690015986974
Zr 11.590112378323306 9.866193686269433 11.311439128737442
Zr 10.82214682583277 14.302735621198604 14.158686870276508
Zr 14.014527565037724 9.00176671387121 13.105376703691242
Zr 14.129217698463114 14.219245182552067 10.736992254989257
