26
Energy = -184.91561137 eV
Zr 15.872153797728647 15.562286208075735 13.566875850959786
Zr 11.04820394043447 10.604565491385628 11.219598663704868
Zr 9.105505226634019 8.296631406910745 11.095987528594792
Zr 12.59684176395128 11.122398743784952 15.06341844462724
Zr 10.651441599732827 9.220772214965733 8.75058635787208
Zr 10.48870031151583 14.4523908165879 14.064214050434174
Zr 13.21274413429961 13.920902448942847 9.81095613441011
Zr 8.322102248513076 10.861470052600543 9.909697636321534
Zr 10.931366907696558 15.048049985481464 11.108355155741082
Zr 13.437444641024424 9.04723665272933 9.720553795220498
Zr 11.156959309079957 13.024638918702898 16.455535414177024
Zr 11.781596563960505 7.642211266064554 11.310117400378136
Zr 13.194816597062406 15.425852468784921 12.956354506702185
Zr 14.528873606736889 16.490318507023847 10.893698810756858
Zr 8.131193976463415 10.307671621845843 12.645799267830236
Zr 12.359914763475063 12.670220866659928 12.49159765850793
Zr 9.528658682158722 11.729405259707123 14.521702334946987
Zr 14.675152003385714 11.334350940423702 10.77973634857493
Zr 12.67839911757968 11.410931193800552 8.518409475146594
Zr 15.684613889912484 13.985238389121996 11.259631041527047
Zr 13.606250825542489 9.480670077671515 12.725735551915188
Zr 13.475163194302935 14.028243649570076 15.39324216310897
Zr 8.89909556341938 13.041457077269751 11.903554334343232
Zr 10.301868556339837 12.865678279036153 9.218248722125127
Zr 10.710986778939217 9.005167048430414 13.718315194707353
Zr 15.082203686680225 12.531633511061617 13.65164924314247
