20
Energy = -140.63182817 eV
Zr 13.899555728654027 10.117059461236014 11.31068627567774
Zr 13.725728406539002 12.543320887727637 9.692368984372093
Zr 12.526510414951655 12.692897056020296 12.411584580739598
Zr 12.360466648734631 10.130457102149233 8.599658435668024
Zr 12.524529852135766 10.47960805962038 14.062341548363422
Zr 12.785598353005948 7.7806965898260305 12.936538989461077
Zr 12.35408910459645 7.76283742379954 10.03090261694573
Zr 11.874970739939892 13.106668816665682 7.6020781955544106
Zr 11.019996146552417 9.763437743224449 11.67495563286911
Zr 10.276015699239755 8.669895152516823 14.275653066857144
Zr 11.977732193086515 14.762238279103157 10.068339340088952
Zr 10.733858393321622 12.09992338554683 10.116664025120052
Zr 10.17013429109871 6.972389267639636 11.758764649293683
Zr 9.695146670348661 14.63748369368473 8.455889841032095
Zr 9.588618805629688 11.603468311785594 13.330856400679279
Zr 8.198110450130502 8.965173754534648 12.330103123853277
Zr 9.428117893984702 8.978482207653814 9.432729186638737
Zr 8.601030638511915 12.05054346889943 8.331488120564186
Zr 8.70675540131417 13.812311435536198 10.952632686635711
Zr 7.765530199272807 11.155321211305278 10.87236867307471
