27
Energy = -194.61100971 eV
Zr 12.676559056511381 15.69995885830874 9.886926963542312
Zr 10.85534809932054 15.565141957318481 12.180771162854057
Zr 13.545491411401983 14.127342261872641 12.606534432599377
Zr 11.71727307235259 13.966729619011776 14.624545086157415
Zr 12.7009026759117 12.979769858160688 10.225871733183418
Zr 10.059173762934421 14.295495686612966 9.344187151529654
Zr 9.006455322706568 14.291425635701726 14.172403763946686
Zr 12.385797255888129 13.905982630344893 7.617800334919266
Zr 13.837655080300896 11.045947351194522 8.69248030636523
Zr 14.82670611633233 11.201174670885923 11.445505324175738
Zr 13.054990667423251 11.47076408312943 13.962904699972116
Zr 8.207300991480308 14.431012186473243 11.478174335335208
Zr 10.532972858077104 12.478043249171355 12.211783403606217
Zr 14.245014600647638 9.065766547207415 13.073637117077089
Zr 10.735636275335727 11.477473756455623 8.308925566084383
Zr 9.976750076144258 11.499582893547176 14.879738364888471
Zr 7.630682275224096 12.118027390646649 13.014850504626192
Zr 8.406127375011197 11.696647336627544 10.180834392876681
Zr 11.9470647229994 9.741497005279367 11.068026069016943
Zr 12.10475742621502 9.020653353370578 8.022088425276365
Zr 8.821507179430764 9.683383816917631 12.507248815129708
Zr 11.387900549466167 8.924650352665916 14.018825341914297
Zr 14.346547048349167 8.390195173206653 10.081778723433366
Zr 12.84689473052931 6.928005130697791 12.258799277986329
Zr 9.46702724655284 8.903879434075405 9.52473887154492
Zr 10.08214448218008 7.285859023100566 11.951428167718865
Zr 11.703417488303106 6.909878807842162 9.687352203946917
