24
Energy = -173.13414908 eV
Zr 11.419757524633049 16.266747067178812 11.30142212706563
Zr 12.571040762340495 15.290724235990732 13.731126234557049
Zr 9.55075372686845 14.727566023641714 10.109713126542621
Zr 14.105242513834236 15.50055099416616 11.351350292889476
Zr 9.790454826642158 14.502909916421745 13.129065833711769
Zr 12.481986231548113 14.579435054869215 8.89891657146425
Zr 8.807897403007981 11.983449613924888 11.102666338021491
Zr 11.850693224426168 12.849245572910785 14.817323463783477
Zr 10.353096283898763 12.543600424264191 8.711641665725866
Zr 11.94341843058801 13.259941473924785 11.438778022671825
Zr 9.15641076186879 11.934290235683234 13.907960204494842
Zr 14.836025689270125 13.182049412196788 10.19939113088952
Zr 10.704684316843988 10.22265841210855 15.252141646901007
Zr 12.954882928468646 11.435226789929294 8.942792187921217
Zr 9.114170694995252 9.311348253278352 12.599622988928898
Zr 11.75480582146906 10.462470259547215 12.311890560043329
Zr 13.667275345245075 10.445466695615897 14.518857300048385
Zr 14.81762665777804 10.715453313800841 11.57414744110134
Zr 14.530559037924789 13.09718185304452 13.21019287714359
Zr 10.306642921874145 9.836485460724305 9.690544277777743
Zr 11.632744736173368 8.041847918509012 14.122724266559748
Zr 13.154332655540069 8.874914219511162 9.859767874755931
Zr 13.88684857643995 8.200417463607831 12.489816584494609
Zr 11.176873716482843 7.578233499014701 11.389272033009668
