24
Energy = -169.18781139 eV
Zr 13.308536300114707 8.088987236022094 11.627165926419421
Zr 12.988331441295914 11.090440498908048 12.038163561957118
Zr 12.697925475589704 8.94052757324285 14.082389656437494
Zr 14.009772308056434 12.723399470754678 9.84943766892517
Zr 13.06905837442339 9.881669932022513 9.1807220161868
Zr 14.034420565828023 15.543394041174954 10.263152126386114
Zr 12.47497608508013 14.594992521724597 8.117473111566513
Zr 13.570525534528807 13.841280771217429 12.658738216959321
Zr 12.612924238834829 11.894292538134929 7.172198679280002
Zr 12.572664073142349 11.772473261807058 14.776395719706274
Zr 11.40915387620305 7.509793860774376 9.707963385617955
Zr 10.552644184022213 7.5005860074028785 12.520635636884847
Zr 10.13385597139929 10.115724795747754 14.449214049049322
Zr 8.549969327425847 8.08688363910506 10.026495412393984
Zr 10.922055188811097 12.231675247755376 9.311452001756697
Zr 10.494603756691511 9.474858210999109 7.958592489195909
Zr 10.135738673195457 10.175742333517656 11.196779550330486
Zr 8.031983095578045 8.741538443929898 12.938599857415587
Zr 10.534996424411352 12.94228790352819 13.04243812951465
Zr 11.446599969353947 14.63158775011181 10.870112765738115
Zr 8.031131429141778 11.594160228230038 13.262122823081366
Zr 6.901289585602932 10.374122950891705 10.979031576565527
Zr 8.442765195528175 12.878576985148037 10.765132796475617
Zr 8.27638719959356 10.90866341129917 8.627353004526892
