29
Energy = -210.28611202 eV
Zr 14.230310830132652 12.225150527774643 8.45919059690556
Zr 12.241566999300648 11.81504794550928 6.704568102710499
Zr 11.862502142108074 14.327092318571928 8.408572897932562
Zr 15.726402378379941 12.6034770274484 12.44663808107682
Zr 12.82828463983153 9.38007524766017 8.689184912248594
Zr 13.746789755494888 13.81609364005052 10.755497903755478
Zr 14.164969990928725 14.958023891349226 13.620035828343207
Zr 14.426624138294407 10.672283997755796 10.853330857596683
Zr 15.388037784038664 12.623499958054202 15.145606427789092
Zr 11.430103282143449 11.76097349021634 9.60332032808673
Zr 14.54993582432821 9.990163403221183 13.759456238300134
Zr 10.288576077130875 9.933169683394599 7.261166825332811
Zr 9.655831523179952 12.825958760245198 7.30704379057912
Zr 12.52650015172332 8.581178181395984 11.726062236399358
Zr 8.324728003275835 10.969013871705284 8.903009284847442
Zr 13.330040490023746 11.014111677451417 16.22664344791239
Zr 13.052338908582719 13.867663521816544 16.16610547623686
Zr 10.786386817804031 10.95624482057451 12.242367628143253
Zr 10.013074232734619 8.741834445700576 9.933565256218632
Zr 11.18611830065207 14.512665303058096 11.610017653439517
Zr 12.857906137304209 12.415448432970425 13.484960653419787
Zr 11.624351286105872 9.31291608870941 14.710806422738733
Zr 11.12001820696466 14.798141748767943 14.43410979790728
Zr 8.962424398598912 13.491880655897521 10.17032178259096
Zr 9.691137276248007 8.326883082891252 12.72417819749322
Zr 10.64114650566176 12.116779317978335 15.736036133524847
Zr 7.987346483396067 10.656179202072414 11.611845119281798
Zr 8.825539059088555 10.442004931149462 14.413800653963266
Zr 8.9909258707901 13.176841897020049 13.304952294614726
