22
Energy = -154.51034816 eV
Zr 9.269332998570265 7.468761251083918 12.885773688106765
Zr 11.051943132227606 9.397087165168156 13.809696426417633
Zr 8.156135124418826 10.202209318555111 13.03546510625353
Zr 12.324375444778376 11.866608486949325 14.467107810161766
Zr 12.12930349188908 8.139159453077518 11.384167465208478
Zr 9.53318311451068 11.898164275849334 14.548185564752389
Zr 9.47267999167476 8.69781054142813 10.394244665187337
Zr 13.7072591770319 10.367804124249862 12.497796701464692
Zr 14.493299447483436 9.294990772559016 9.90610112057721
Zr 10.673482691406464 11.498217966673103 11.43171680187706
Zr 13.408612317421733 13.41552669110811 12.388451992180439
Zr 7.505294962471971 10.967840654154513 10.529036513385197
Zr 15.728853325249286 11.715990072410577 10.544097633679762
Zr 10.87352812973547 14.115033677594441 13.541850334612949
Zr 8.42384170273086 13.386145741829736 12.201250040372601
Zr 8.680400050229068 13.251323669487281 9.381187645919585
Zr 14.251249133454458 11.217579926670178 7.7967136284569065
Zr 11.870399447851296 9.59630647244601 8.765628529494412
Zr 9.255862798748833 10.676391096098156 8.404262860798415
Zr 13.190094339236362 12.30746117009765 9.96907640238499
Zr 10.92686945501132 14.476051094383674 10.70585887284884
Zr 11.222902530401253 12.627014402514856 8.15657971310987
