20
Energy = -140.94649564 eV
Zr 11.828330806195783 9.818424517027413 14.493413665858144
Zr 11.415220613748948 14.280278624296445 9.790834567718337
Zr 13.94603249760506 9.471233227949515 12.38995614549252
Zr 10.464584509610155 14.374272592277311 12.822864191467469
Zr 13.183532283981714 14.908019440816505 12.09695994112429
Zr 10.58582072845553 12.369716403712369 15.128858428879601
Zr 14.077287963896621 11.202542754074035 14.81770771789548
Zr 12.035783142170025 11.807693885038715 11.700845063711924
Zr 12.941649889807792 12.01576407387933 8.393614759442615
Zr 15.071151196463038 12.50927799586208 12.587685478477947
Zr 8.96755316598114 12.990212061721968 10.685593387656485
Zr 9.338463084772329 10.506882910589308 13.346985042058234
Zr 12.294708815168597 9.42373551217031 9.660949367536393
Zr 14.788368979253507 10.88603503848172 10.125073430237071
Zr 8.078018771913948 12.913960750872066 13.270128453043354
Zr 14.31900780928427 13.676225978072251 10.037088888271688
Zr 12.926407548706635 13.668246144326531 14.387860219306333
Zr 10.360043262737223 11.64368879547505 8.731041659772025
Zr 11.149588520320048 8.640934302265677 12.134294102266653
Zr 9.333483235603532 9.997891816767625 10.503282315460185
