20
Energy = -140.13947248 eV
Zr 9.991007708502773 13.953064331815389 14.007519578307674
Zr 15.145468729965305 12.893736553549667 10.929973272577456
Zr 13.140956415854347 13.189568196385748 9.020638609884863
Zr 10.653814892678845 16.087048190082225 12.217443730502433
Zr 14.194981681401305 10.349327630309904 14.733179029048944
Zr 13.64621287322528 8.615880175820603 12.41505195432031
Zr 12.562988596300192 15.06638736749031 14.347909447346833
Zr 12.615349070861619 11.490831178327792 12.33919965767249
Zr 9.22487690958947 13.600856027890469 11.397728457751823
Zr 11.979449509379036 12.246666781004155 15.177817987332984
Zr 14.736205382224183 13.015703449155554 13.881888175716592
Zr 10.888452810232035 11.68021645029617 9.556497072958459
Zr 9.65085202806211 11.134901302542756 13.258101500334263
Zr 11.081158606277011 9.113240685842461 11.229775521816254
Zr 12.749044287497375 14.361592991252081 11.670121465225945
Zr 13.696246305360882 10.31045437240369 9.888886144262733
Zr 10.841907833558578 14.808286866999614 9.451195524356924
Zr 8.669780528281564 10.77311364249517 10.621373432454641
Zr 15.608312649504823 10.583999204016058 12.256258230837465
Zr 11.547423793615682 9.349615214692662 14.22393181966287
