20
Energy = -141.25091816 eV
Zr 13.909916857769403 8.285721766414168 11.16287617353932
Zr 12.160226539012767 9.322013569080466 14.037081218048144
Zr 11.375808937461667 7.951385572638159 11.842636606372308
Zr 13.30741606376938 10.916886813401913 12.069151293182525
Zr 11.373344041245888 7.741391226580203 8.958886093750255
Zr 13.17573424871138 10.227184815549624 9.251153449622185
Zr 10.078997403672536 10.606587592671602 10.139764178972548
Zr 10.645770422910106 11.592995457934943 13.175060207448087
Zr 8.982458177430301 9.033385540740444 13.069632030040646
Zr 9.019806746438126 7.425106983747053 10.548589125427041
Zr 11.209107113374756 9.67232160755524 7.1410740293709765
Zr 8.429425603238412 9.040322300644688 8.129324310494155
Zr 12.074347084208204 12.943527902347663 10.712745748826531
Zr 7.764606256010973 11.41406061357452 12.410550758792024
Zr 9.228317093982229 13.475504496502456 11.476498300020884
Zr 7.125822557809992 9.34364077078691 10.724399807382895
Zr 11.925164423230262 12.35795609916047 7.826601742810934
Zr 9.211131770090072 11.607581090014087 7.139342275587623
Zr 7.4110444367522765 11.910067757349362 9.433017467022804
Zr 9.787078997030681 13.664275341922083 8.905715080960118
