20
Energy = -139.78153877 eV
Zr 12.546134458639717 9.623077466082524 7.803357803513388
Zr 13.359985049009781 12.331419949125022 7.592449955391781
Zr 10.656031951566264 11.633091739531672 8.385306095855203
Zr 12.102143932746268 14.084460227071686 9.063904903687293
Zr 8.753708609823398 10.615639001857822 10.21829817061872
Zr 11.074614954483085 8.937067147958382 10.313471183973263
Zr 9.558457890993076 13.680849027078152 10.391587219401835
Zr 13.04943262640721 11.379786434873017 10.380717588053722
Zr 14.011467013502774 8.560558792119195 10.027710917418686
Zr 15.371485973400153 10.212397390793878 11.773703648693068
Zr 12.270700604189736 14.300731559402756 11.997927474765223
Zr 10.90630943038405 11.703558723243804 12.289419674729483
Zr 12.765164912154145 9.114473550388169 12.673997566494002
Zr 13.755734902246026 11.823554617343751 13.537997291183524
Zr 7.891247514141168 12.086511238610614 12.334909583330804
Zr 9.555904805186888 14.327017246148735 13.227822699855704
Zr 9.404562583934947 9.442097342202905 12.958623654378568
Zr 11.69220716756216 13.354674873319233 14.797915452114587
Zr 11.629404719084429 10.456377277395653 14.97754198002984
Zr 9.190822303501683 11.878177798410114 14.798858539468846
