26
Energy = -187.01672557 eV
Zr 8.212903007910285 10.812229777296652 13.714169812341892
Zr 8.992858778204901 8.971949863449955 11.820085065350234
Zr 10.860504777563937 9.967548994461096 14.074094518027968
Zr 7.187883359620045 11.3058296088158 10.829568986544588
Zr 7.573528901140705 13.334593610311114 13.090450506692031
Zr 9.948811906033335 12.082635494786935 11.434941764282014
Zr 11.618240221808756 7.973614048184404 11.854705869879904
Zr 9.281786631677921 9.97057216669708 9.004871184693387
Zr 7.8913503254445825 14.271954403160407 10.481758227214906
Zr 10.299799307743397 12.8955186363544 14.36730469437423
Zr 9.720673629568003 15.068317822005879 12.479161876956146
Zr 8.83132071157712 12.658396080091737 8.57057961766514
Zr 9.745004541889656 7.069748087675361 9.682793849457983
Zr 10.859888378614084 14.509800269347398 9.825807529336439
Zr 13.191354534609639 11.845438957877327 14.354606435660271
Zr 13.424331142613745 8.905842557963593 13.715744396507505
Zr 12.402116822832623 14.183924472394317 12.48747532117823
Zr 11.908922633670418 8.981619900116055 9.04204680580863
Zr 12.869431615328121 10.988684937250369 11.445433400265333
Zr 11.533945842451653 11.976337761215653 8.359046628700112
Zr 15.529947658531528 10.403918565872877 13.029228305345677
Zr 15.01403898084386 13.111589051496809 12.42251754433643
Zr 13.733249951584446 13.422635901321591 9.796748792643625
Zr 14.446912791773219 8.602129196938746 10.798633764421455
Zr 14.012048846963635 10.686416731578827 8.543588061833669
Zr 15.830297466055939 11.306280817532176 10.406010690974288
