29
Energy = -209.7389786 eV
Zr 6.776001375697407 10.668200374008205 10.954261721061142
Zr 9.565459710825078 9.217971747450552 12.476347862303147
Zr 7.7230823531204615 11.393280539854056 8.216865373462085
Zr 7.39304422512334 13.463954310119972 10.069639676808773
Zr 10.373598790418923 11.470233079385029 14.799288665119798
Zr 8.45480213320344 8.866209328752731 9.446216430200652
Zr 8.060329061537159 12.884011219439081 12.830731542591913
Zr 11.554846402875564 8.77155649097193 14.766370136192492
Zr 11.185115297728036 8.180227099334015 9.693223770241126
Zr 9.438268152582276 11.434513012654968 10.611793628537924
Zr 10.36319423504822 10.344987029200164 7.450080108790262
Zr 11.883550868076291 7.22109725317959 12.337371144887618
Zr 12.474129626793333 10.131451998562751 12.333264568968922
Zr 10.1220071426973 13.336733791253938 8.310495214619491
Zr 11.96638857935407 10.998025359199595 9.797529410200825
Zr 9.92231802461856 14.551328274211572 14.116190455642224
Zr 9.779671346810018 14.877602776632788 11.049259778531935
Zr 13.260651275224381 9.448078373338001 7.862868241056155
Zr 11.338796438643515 12.758312004609527 12.369542208468099
Zr 12.8174444215428 12.276642651551873 7.474402548538017
Zr 14.21439036231266 8.260089858798574 13.678778086097816
Zr 14.182914137860767 8.495491658653021 10.553843426987411
Zr 12.751460149046418 14.07644757665002 9.923296887861401
Zr 13.600827444990975 11.082144691855934 14.810459351261889
Zr 12.483287441361904 13.685835452834377 14.938931917776713
Zr 15.436959087926136 10.478666439567856 12.485781035575808
Zr 12.324895049898576 15.422825296534903 12.623548867422024
Zr 14.763369991810864 11.552007267719816 9.797602952476106
Zr 14.347837885734476 13.188704784136368 12.486806081682094
