21
Energy = -144.25829012 eV
Zr 7.928507247642296 10.217275557877533 10.723312944551836
Zr 7.514613393832039 12.413935050165223 12.516105297470979
Zr 8.176215939679592 9.803413707008755 13.577911090533073
Zr 9.64522431736619 14.16929499983565 13.405368987588124
Zr 10.652954777752692 11.283166886606532 10.653133401009333
Zr 9.523684782443267 8.688725600824197 9.098473946120421
Zr 9.116818241874075 13.782324188460963 10.587376535758006
Zr 8.33349438189039 12.243075418633122 15.130411852136984
Zr 10.485082151552497 11.217656452274491 7.917591896359721
Zr 11.2439451280316 13.914944034325785 8.871473087478654
Zr 11.20362661860518 6.678446833817173 10.22898407514425
Zr 10.499340400755884 8.69997591726 12.030489546508367
Zr 10.599249556837364 11.43114261857497 13.718522594763503
Zr 13.335483661059133 11.933353864173393 8.908956152450834
Zr 13.823716213757237 14.64054071590502 9.867732156838223
Zr 12.12494687107822 13.548145917602719 11.815646338712693
Zr 12.388194832442164 9.054064350393185 9.024511619508331
Zr 13.172903586339169 10.566076197712198 12.322000422851735
Zr 13.398302069310198 7.813390907065752 11.523411381533341
Zr 14.990163083934782 12.55679244093105 11.293526865797558
Zr 14.998819894193243 9.853569584619127 10.274612450283259
