25
Energy = -180.04063314 eV
Zr 13.711318969960427 12.014102635907026 9.587391521930845
Zr 15.369795014289977 13.967118208159615 10.193400720447958
Zr 10.934312842664992 11.691183702613033 9.604161343626712
Zr 12.608766908904446 14.694816862940387 10.083798119406824
Zr 10.058965844430782 9.793549306293349 11.735879808750036
Zr 8.599587549981448 12.06771697936219 11.451770834605677
Zr 12.973778197339344 9.909600896285816 11.251120205354306
Zr 9.82374074905678 14.405185901676157 10.51946246166003
Zr 16.92737816317234 14.042566753420877 12.272761787123047
Zr 14.50683437116683 15.957351189399974 12.085666709989887
Zr 15.839528126498028 11.265507220418593 11.40929135402517
Zr 11.44269781409295 12.501340336376224 12.403597381412727
Zr 11.446656087912952 15.76904460578085 12.580645603159258
Zr 16.84785418609168 11.932122587792525 14.014063446726244
Zr 13.285632459596359 15.996217405152189 14.683248090148771
Zr 14.467257139726659 10.124425543491745 13.943432114707036
Zr 8.946971340749412 14.213204034015291 13.202685059512456
Zr 9.480888716508927 11.477833299891616 14.333666195825876
Zr 14.126093358287616 13.167449110917744 13.289551400970707
Zr 11.695682194706835 9.578865123021917 13.837348513499077
Zr 12.201675504509833 11.525324878560982 15.738638833035743
Zr 15.199718827850877 11.957091643432003 16.117924565458853
Zr 15.96848493789131 14.73084578001257 14.972247288686093
Zr 10.967686678222545 14.198726165863066 15.169969848226732
Zr 13.514003968784918 13.964119781611835 16.463586744108152
