21
Energy = -149.69464358 eV
Zr 11.710731319471991 10.500671103537218 6.895846031872525
Zr 10.292114688649306 12.903156767076275 7.684195014691799
Zr 13.129432148775836 12.681061382558376 8.212748594082639
Zr 8.858280990030456 10.205210445687543 8.361247618927624
Zr 11.462393286342916 8.276179852864495 8.641234290268107
Zr 13.803767666324385 9.90993342675518 8.94352249337889
Zr 8.660747966792679 12.911175305458624 9.90638515211237
Zr 11.347558013819087 14.043374034049986 10.297694816769638
Zr 11.150497620329414 11.015821279076095 9.753823500339486
Zr 9.547882108419726 8.266733320232541 10.480595009729546
Zr 13.898293132416832 12.071254760344281 10.953443708560656
Zr 12.485957160613534 8.697971751719741 11.580920015964601
Zr 12.51326010092752 13.677855518220868 12.892122998680101
Zr 8.079538447984076 10.638602949785723 11.551193134712502
Zr 9.414219790904832 13.361602960079717 12.687667299009687
Zr 11.017609797769012 11.046903927467875 12.47245811939735
Zr 13.67319291838813 11.077140118127321 13.678684022589119
Zr 9.559282806639223 8.440661152358642 13.121301981796758
Zr 8.924051585414828 10.883567075567614 14.484319366770196
Zr 11.337724586966694 12.38424633029588 15.037679757983467
Zr 11.574468465581631 9.447881141298188 14.80392167492564
