39
Energy = -286.87272533 eV
Zr 10.041411899948592 14.418617741321361 10.858225469105127
Zr 12.608897240366007 14.659185254824546 12.474313024602443
Zr 11.345011890062953 14.59938219967136 7.843127625289541
Zr 9.885196658870305 15.655207504548192 13.721307205067593
Zr 15.177388694436829 15.683458020369779 10.908447085321423
Zr 13.490474529572564 13.578399245391267 9.65969368690497
Zr 9.530617546582974 12.484927986080706 8.539347103033904
Zr 8.099567079429958 13.90255246564295 15.317521851223574
Zr 13.168100846703735 13.98244444067268 15.029584262357105
Zr 10.245530438116079 12.758552174161945 13.462718207653003
Zr 12.076300176685196 11.565023977224454 7.475422506613457
Zr 13.9802249823149 11.926305298577187 12.50472490485551
Zr 12.308887577530298 12.071877845897612 17.31692434892867
Zr 16.55749374281368 12.902528604750774 10.758479771383358
Zr 10.655849964371619 14.239298418362436 16.30588886540633
Zr 16.796104486381005 11.347583171708822 13.214142807717232
Zr 15.821860361624239 14.07442299100619 13.47226287812543
Zr 7.652682284521949 13.95350751050366 12.575924968981246
Zr 14.868943038949135 11.80271419290181 15.446607486132384
Zr 13.751327403338555 9.414297506683384 16.728477880503423
Zr 12.212806221803277 16.361139478250426 10.31921650500615
Zr 16.093956311677513 14.365916749505551 8.370733484016638
Zr 14.643832094766761 9.253027362516434 13.898195844655579
Zr 12.017022435567112 10.743086480074156 14.635843764054563
Zr 9.331210813373286 11.62777551201677 16.68071162244237
Zr 15.521311757940884 9.97097118990961 10.88328960700734
Zr 11.524927824968143 11.638693238033387 10.721812294977225
Zr 11.045069063229695 9.357450430151605 17.215781955686214
Zr 13.915654998453793 16.147025234366772 8.162919335880309
Zr 8.490666243447802 11.592007450072368 11.033982953748112
Zr 7.756318561157438 11.218548457166031 14.038851409525604
Zr 15.183568350349649 11.515622328761422 8.286897131133363
Zr 12.000384290245476 7.834290343905779 14.860195479395532
Zr 9.88058567048562 9.516064065051452 12.379918403145348
Zr 10.25055970139596 9.698762417204078 9.17183432636946
Zr 12.698202400731864 8.908925190302588 11.927504362304662
Zr 13.895600697077118 13.69579591684742 6.659341599104737
Zr 9.315315946122823 9.077197324810166 15.131133938012805
Zr 13.22455518293364 9.529451454078904 9.149280877593693
