31
Energy = -226.19599433 eV
Zr 11.8456452870451 15.074692955780632 8.927477784791858
Zr 13.063176716020905 14.77972963730635 11.668413937870872
Zr 10.154060852981733 15.497248967294624 11.410802856632644
Zr 9.123548442306392 14.16417840109295 8.836714562933713
Zr 13.823624995517772 12.81132077160885 8.996927067872251
Zr 11.3156657060466 12.46422708306816 7.501115295209188
Zr 11.53322906982477 15.482881067729894 14.103553301609377
Zr 8.779401411264274 11.171666116318756 9.16808779405219
Zr 8.823801720684074 14.758148881213012 14.034767509714937
Zr 11.079055517429747 12.69862523653793 10.380395192049958
Zr 13.525683895140668 9.98543087288336 7.305493325045306
Zr 13.93149246069406 11.893594958530914 12.021793042095986
Zr 8.05070340794387 13.314222846613378 11.506929497393125
Zr 10.860601591055856 12.746756343395159 13.066161038952687
Zr 10.427755956235229 9.723458504645006 7.350474897387851
Zr 13.436104287061063 13.481565165366044 14.45650008486647
Zr 11.882382501487726 7.514826096649331 8.14534329899555
Zr 9.533237041535587 8.303375958726415 9.858321507431098
Zr 11.190848399757204 9.908802454750944 12.209911152633495
Zr 15.269630510593961 10.48223039331741 9.81601151587212
Zr 12.28250588642727 10.042797851489404 9.749382023627838
Zr 8.132077594079167 12.095064273577057 14.264284018705476
Zr 10.67871976175827 13.023317081094875 15.788536977759707
Zr 8.211283430386791 10.32307869817647 12.031478652368428
Zr 12.780509858081539 10.705584607933764 14.721287308100141
Zr 14.348415718340082 7.8850284602744445 9.42888876169593
Zr 14.165277918759735 8.87031986533746 12.21348269995846
Zr 9.459502689283598 7.667624933517764 12.789186842545954
Zr 11.990908249665521 7.081710319901977 11.14680170844232
Zr 9.94455399478043 9.926204599244038 14.824254272008982
Zr 12.0212979530279 7.865620920464927 14.072808298958401
