37
Energy = -270.81069211 eV
Zr 16.770414002864307 10.517501868218835 13.633133523142725
Zr 14.724144551847585 8.5034129746206 12.480508303422747
Zr 15.295921039732255 8.810535820407374 15.33804488562587
Zr 15.520224746589742 11.59994585085054 11.322183957007022
Zr 15.758719408051112 11.564515602714435 16.1118973573205
Zr 15.267379662568736 12.291314955852945 8.15863458316391
Zr 15.744692065204289 13.321739318411394 13.775994433458605
Zr 13.67869214394511 10.941671595097391 13.877128208683516
Zr 13.531122454711978 10.081263854623979 10.127573953140667
Zr 12.59922616565851 8.209958065183697 14.677279323369547
Zr 15.573114891438426 14.27971104251471 10.485094135870249
Zr 12.76540040186285 10.89368753089643 7.293904780882891
Zr 11.783425987157182 8.104048876974126 11.750232727710147
Zr 13.314743734005468 10.357251151135404 16.87835565837629
Zr 14.43295284785613 15.260078301938428 8.094038795959612
Zr 13.064241672036362 13.552339147970043 6.445415060607918
Zr 13.17735359362709 13.580679888587476 12.357819523355086
Zr 13.329136722540493 13.239967840380041 15.679656698390446
Zr 13.203160568436184 15.958461729647004 10.630346414991866
Zr 12.835977248585081 13.017816331149211 9.4679603118619
Zr 10.68856615242015 10.410575218598794 9.380746161674953
Zr 10.488833469275914 12.774586647745062 7.499652271425294
Zr 11.488245219332871 15.422089595689506 8.154087619449585
Zr 10.716899466668954 13.33619874631458 13.801476194082667
Zr 10.843735637888694 11.030302555243829 15.649057945904518
Zr 8.904171370698625 9.01545493211274 11.475024775022257
Zr 9.936816908855826 8.70558585649165 14.046136972375574
Zr 11.112686523528119 10.985181077503109 12.101418773904028
Zr 12.301743877311395 15.768029629753775 14.46160144312432
Zr 10.800983225892665 14.158956882060178 16.663854293833154
Zr 8.297865067539563 11.628333154093328 10.762814297211706
Zr 10.540725327034156 15.845979949636428 12.075562223257192
Zr 10.174618591196273 13.683420072974894 10.369615514196488
Zr 8.381999996201849 13.146660440768468 15.582337663944935
Zr 8.223447865537695 11.018446403651778 13.637550404535492
Zr 9.323822575418468 15.768784992482285 14.734215639762732
Zr 8.06056672881663 13.94816948171088 12.683769802553941
