32
Energy = -231.69764966 eV
Zr 13.641227924055803 8.32901765688611 11.241984265178443
Zr 10.887139215872535 8.617888946208453 10.941282780804254
Zr 15.414574704375779 9.34926580779455 13.290584745629133
Zr 10.191377423969856 10.108165760185356 8.537867548652363
Zr 12.618859738575475 9.756711174722826 13.527136578645857
Zr 14.902037840046432 11.26494121820624 15.41605123193454
Zr 12.984320238103804 9.727822086529104 8.699407363101036
Zr 8.48636281563175 10.431524408128942 10.943354993475936
Zr 9.67265569154527 9.59370701705029 13.591538500806529
Zr 11.92412942429323 11.91457255945175 15.285758652194794
Zr 15.309514122632836 10.589950346777504 10.68168414465169
Zr 7.344273357736251 11.271647489156951 13.38129444258913
Zr 11.899428265773388 11.458355463541922 10.770336526934477
Zr 16.956236139215655 11.761434892603573 12.973876905381248
Zr 9.120316218393674 12.595338783988172 9.097181821462023
Zr 9.054226783296562 11.708276247349035 15.637200387191413
Zr 13.993186003756696 12.450827992417475 12.894669969934847
Zr 17.85596775213562 14.495862945079827 12.957544058726981
Zr 11.740193026410367 12.692783173090133 8.077777925664893
Zr 14.383241508842035 12.265220973890859 8.579065767242607
Zr 10.078211459491481 12.596806434410382 12.89552009820954
Zr 7.70182656348999 13.479603805056398 11.362690823355763
Zr 13.44425960953699 14.293777320596762 10.360230071901896
Zr 7.6094488721693665 13.876026812713874 14.342488266844141
Zr 16.243847620293185 13.42700454478376 10.602260075964141
Zr 16.396341403669044 13.7119341376538 15.12357233329243
Zr 13.715619860083468 14.175257041489985 15.38184525833478
Zr 10.454491160224348 14.684175495072962 10.395099147695934
Zr 10.297151933949316 14.42697784927253 15.364570456984836
Zr 15.169828551718313 15.220242928625323 12.789987631891572
Zr 12.138591882659759 14.98009458642564 13.058175840313389
Zr 9.290754299027366 15.571485248172035 12.839330329152872
