39
Energy = -286.36907328 eV
Zr 11.61272443788724 8.688808494395792 14.56058248327858
Zr 9.885832913098378 8.793678498207282 11.657627595438983
Zr 12.223175431888453 10.688656498893954 12.351876512484202
Zr 13.785194088897812 8.659618846613155 11.552943705531373
Zr 11.77029926395207 9.88297275595856 9.391085745728875
Zr 14.5179263718285 9.549030582750776 14.237144346866335
Zr 14.84658710361919 10.397889319330169 9.382173454379625
Zr 8.66342976364761 10.242378547224009 9.217714905960065
Zr 16.744063525702494 9.747539469505703 11.927047285245338
Zr 13.232551786217305 10.007161328633543 16.81150616832076
Zr 9.162127125996525 10.436011970652133 14.110582420494513
Zr 7.365016282372371 10.468624690289966 11.7501066659909
Zr 10.370898956921215 10.2241141214241 16.81950056478485
Zr 16.881377943918977 11.26942703511992 14.670649760275625
Zr 11.970625614273514 11.823004590842837 14.84035323384364
Zr 13.028275959714922 11.732942125440085 7.488052949350867
Zr 10.00162872017198 11.704342728675664 11.240346949009114
Zr 15.013806432494817 11.957346708109176 12.395593438386117
Zr 17.099847473956252 12.00324079595231 9.992798176064662
Zr 15.198400615353385 13.489315650096023 8.526468397366598
Zr 12.899014479012012 12.855980755071554 10.279941633632303
Zr 16.12141027442433 14.634115882029896 11.217690938534224
Zr 10.278252358186386 12.554212189083938 8.346839008094435
Zr 7.690147329175444 13.023678490109127 10.241556280374361
Zr 16.337332352505502 14.150871354149261 14.08405724811617
Zr 18.00532149546105 12.543557536818994 12.419639195358128
Zr 11.974715220420784 12.52822838750482 17.605688542499642
Zr 14.459766837788692 12.631905966082988 15.570221064672095
Zr 7.531950909158511 13.013620644537632 13.313358115838803
Zr 12.511515104675137 14.54188118774499 7.840624524804895
Zr 10.503247346944784 13.646601401008423 13.12332580321226
Zr 9.404596112409452 12.949157771096848 16.020081170679838
Zr 13.481974052081432 14.593905327970829 13.083507867640854
Zr 10.721135367594568 14.978476589109771 10.166478821459709
Zr 13.66062441958313 15.767750829821331 10.128329009453019
Zr 11.719303327768923 14.888557501541738 15.523758799594328
Zr 8.853444411575374 15.525002356742233 14.640682241073346
Zr 8.434785594406282 15.444336586450508 11.869257751717234
Zr 11.080606024126679 16.448691987321816 12.81353654194842
