35
Energy = -251.93694086 eV
Zr 6.743885958991818 12.310911561283659 15.68682749077573
Zr 6.895750850547486 12.118122650301494 12.956561305908851
Zr 8.24581498771363 14.33912411732656 14.321068918688212
Zr 9.489749571777 12.897609052277573 16.615516317583907
Zr 8.431162154771057 13.844640986266281 11.254582818103982
Zr 8.837804234335373 10.740758291092394 14.729208727685354
Zr 8.898566499842742 10.662971288990382 11.569584260127208
Zr 13.402801557844581 14.248310283970584 8.16020795882695
Zr 9.433868493651142 10.556114723018533 8.828692476962193
Zr 10.01268166859178 15.836784651046 12.796151215774014
Zr 11.156342377370319 14.840154986881645 15.321167366439497
Zr 12.437312776496713 11.304084504508687 8.074735347321589
Zr 10.785508037698802 12.664593842177405 9.941313046967894
Zr 10.654585155598541 12.763182283380436 13.037377013009985
Zr 11.751718438450025 11.177651696138488 15.723224516438535
Zr 11.338217162390265 9.597496319416626 13.481261030473247
Zr 11.442519874391495 15.211477630557741 10.383726177680952
Zr 12.507777847394813 13.258236580124407 17.450769817334777
Zr 12.886659579697264 15.285816638220167 12.891940874352448
Zr 14.032202099604365 12.630644205584845 10.533322107654364
Zr 14.147133879644183 15.885400016189601 10.444798183108585
Zr 11.735303209106169 9.970393203147355 10.609768856851904
Zr 13.617381817822228 11.725527872276551 13.289075969202242
Zr 14.165672383002338 14.160574898557977 15.272028227273221
Zr 15.142218076944044 12.03276730205361 7.714522443360077
Zr 14.52589449837284 9.445568317141783 14.713826277785191
Zr 15.74234621536009 14.738821771072216 12.551807801138425
Zr 14.556412393800768 11.608911129918864 16.5907259834074
Zr 13.683416398412046 8.66742205135919 12.124964506244869
Zr 16.28505413852451 14.202467474154163 9.435752580245063
Zr 14.565102595426922 9.63735914613137 9.550689739682381
Zr 16.321590398907034 12.096065199557607 14.432944082334757
Zr 17.270558513918193 12.678473571690217 11.8132023131332
Zr 16.19605713612965 10.002441314639373 12.187817162106182
Zr 16.9068701288526 11.272053400574777 9.593156323804923
