38
Energy = -278.6600358 eV
Zr 11.331479933520486 10.55341737838898 7.984038190272549
Zr 8.329776272086656 11.857549862629936 8.186941303603877
Zr 9.118533169153991 9.032210666004278 9.022762063169841
Zr 13.539872196512169 15.062792315992239 7.62111914077485
Zr 13.91465028989532 12.26219353434532 7.93515653230113
Zr 10.982646518054855 13.435899444527841 7.500606902399562
Zr 15.238204179618794 14.265926983695064 9.983262761921148
Zr 6.938536671671989 10.131901841200754 10.325942772369302
Zr 13.94531465543748 9.452091673044839 8.964829200374993
Zr 11.532041808778613 8.536018570973697 10.490748202279335
Zr 9.61117632497631 11.62350070284462 10.654916057908368
Zr 11.049202642538884 16.264596718062464 8.482066839984972
Zr 9.124743545163918 14.58184908582904 9.904752491277433
Zr 12.231099565264573 14.174113650424813 10.163519601169545
Zr 15.654745991985125 11.394012644248038 10.34216022190138
Zr 13.582776043019091 16.818638173486942 9.849671585939001
Zr 12.76773670939991 11.422386628537161 10.694247348609808
Zr 6.902507960769926 12.845453780725068 10.756318379443897
Zr 8.923111788638856 8.697405720555942 11.949263558592266
Zr 14.275765543130689 9.185226967343336 11.951988247509592
Zr 11.095317733623471 16.576876332841408 11.449286824971717
Zr 14.486939870965895 12.793334899850791 12.838081720744533
Zr 11.406371053273821 13.926221184968208 13.020109788774286
Zr 16.06936463124198 10.442587488419191 14.02948775325605
Zr 13.736950792247939 15.603826606824219 12.433368893579726
Zr 8.645717367600414 13.782485113895914 12.8034681126874
Zr 10.848692118796404 10.81561198754527 12.910234800767453
Zr 12.793458682717647 13.742682370645493 15.417122946803024
Zr 7.755413863292961 11.104697683404554 13.122006094438326
Zr 14.631097142314372 7.966637789205596 14.590559420578279
Zr 13.094431522266635 10.67134393065931 14.549647755335927
Zr 15.107938559143504 12.472684219079717 15.913688643910076
Zr 11.820163934112925 7.934110833521326 13.59946316219095
Zr 10.14915196677307 12.430616366838157 15.362963382143901
Zr 14.996339434096324 9.795811370457322 16.760048041769913
Zr 10.22817792790627 9.627579685182608 15.433300593243544
Zr 12.536805809783276 8.36917095335604 16.496211368650492
Zr 12.391106098676826 11.310747907162991 17.25557524947304
