31
Energy = -223.25734065 eV
Zr 9.927019189046899 8.55631522832821 13.190569112829047
Zr 12.769791670936105 8.190500776535488 13.53436585610667
Zr 15.824274269641359 8.558492678668488 14.019705227795662
Zr 13.87743939505908 10.478037820560733 15.0474762501656
Zr 11.103587709000267 9.720294446012826 15.64385586496501
Zr 8.871734109119084 10.189343435587684 11.17743861552521
Zr 12.764457471654861 11.422321043858023 17.554299274032196
Zr 11.658731118331524 8.96105763680946 10.736319304376305
Zr 14.482389902862852 9.949574115521537 11.954458613435438
Zr 8.93878461441955 11.193774282517213 14.167561144766395
Zr 16.225336221071288 11.5712686034312 13.78827103120972
Zr 10.466637936179007 10.709427615471943 8.556012014344855
Zr 11.559716590257953 12.798442295752679 15.545337847697253
Zr 11.507434637477722 10.989647835088205 12.8759611602028
Zr 14.496906301334864 13.225648942685412 15.866454644908972
Zr 10.375355667281854 14.239566821777666 13.391830072614745
Zr 13.452336251596538 11.011804758535417 9.489772286741982
Zr 13.198542236664888 15.421988050122836 14.313811716191323
Zr 15.99933603766151 12.812974650111483 11.154683152166209
Zr 16.024810585277912 14.427507331263133 13.719151707251426
Zr 13.546221506381174 13.01789101834356 12.731397467774796
Zr 11.022779687980234 12.890499794077405 10.481073956621678
Zr 8.073465813903146 12.413066938267358 9.507430967990079
Zr 8.205623686918484 12.927278600444042 12.16546230254764
Zr 12.361613477524438 12.810268793627785 7.669748802931551
Zr 9.158699004161626 15.132882280455707 10.387128450317585
Zr 11.889061468062277 15.823632133840059 11.640629544462284
Zr 14.12449867715038 14.017643352262764 9.424834795131783
Zr 14.78919157909646 15.617274534943494 11.663210950044299
Zr 11.664517747002042 15.457612559089581 8.79490742541023
Zr 9.716428963693117 13.627399982556751 7.772048579827517
