36
Energy = -262.74308679 eV
Zr 9.25157005108625 13.737786134666823 16.500763611232202
Zr 11.27564073665673 14.951057379577998 17.88548140190122
Zr 9.511330297355167 11.186356858884961 15.152567593336878
Zr 8.914243494095807 14.261394636628602 13.663230195818532
Zr 11.721997427874786 12.301491979628148 16.83046940664712
Zr 11.000986989926389 15.656910930177032 15.078205393466813
Zr 8.579032370520583 11.615979040869671 12.277729521783002
Zr 9.882889112057411 8.935868146395784 13.250708088815072
Zr 8.36566369023115 14.41819167995165 11.012736501746248
Zr 12.199014850723742 9.879388477661454 15.00387228839672
Zr 10.681373664512561 15.943549998424444 11.854277473067146
Zr 11.597481180783832 12.794078898499203 13.837067912956638
Zr 13.536959696052698 14.616952456724691 16.07651294162862
Zr 11.051826546447534 7.3975554988004735 11.002217555188398
Zr 9.343291926930116 9.635516869976831 10.2923733744065
Zr 14.737860330639819 9.646074139554894 13.130927964130015
Zr 8.555197204268822 12.299237419826731 9.364539530276497
Zr 12.012053001976453 10.2841658350978 11.637318459692391
Zr 12.620147082655123 7.70270168465272 13.226966650762336
Zr 13.360635250280273 15.365296769838945 13.270167375827624
Zr 14.37266623886802 12.05012843788748 15.093456088893817
Zr 14.348354861050453 12.746740239048139 11.931583248574883
Zr 16.12062468232417 14.289055140117988 14.009606844968276
Zr 11.178893330282559 13.061634708489674 10.882909634522875
Zr 10.3540816002847 14.78003829669813 8.897207964442734
Zr 11.846039551651812 8.87936418478445 8.790787106810685
Zr 13.946980298723346 8.189197676343932 10.64037289606306
Zr 13.181725316456856 15.506727092585358 10.185131610435032
Zr 13.859887797931583 10.9178922135459 9.1130224179935
Zr 16.782967230310298 11.519590147187548 13.529336389949002
Zr 15.6798684210604 15.540932187583309 11.483867880874717
Zr 16.266737931960826 10.752387654393859 10.685619333497144
Zr 10.971801805284057 11.52868476966219 8.196739044373205
Zr 12.929928067519846 13.54312002896658 8.182569371605727
Zr 15.560302036307338 13.430886396662777 9.286806236512161
Zr 17.40902778613296 13.310682665776612 11.503302649355945
