31
Energy = -225.61594674 eV
Zr 8.50286419490048 13.210262145689466 7.625779731964785
Zr 7.985501278532047 11.75467913381555 10.086417614267013
Zr 9.873246594526593 10.809941192819473 8.015210558981291
Zr 7.969116992507321 14.642863002695918 10.14811997749724
Zr 11.59874815551505 13.240508983931772 7.051551009064099
Zr 9.840713245466997 15.597504476881461 8.081834606125488
Zr 10.389279800546351 10.392900538415613 10.940905312171724
Zr 9.116005627542549 12.882218493104016 12.4966403693737
Zr 10.718930207792349 13.29184659405591 9.766556878462811
Zr 9.214120943812087 9.926740873003455 13.89014670576469
Zr 12.610056790480005 8.202637006996591 10.602166262617834
Zr 10.147105304942393 7.708896286043623 12.132477160369405
Zr 12.530593098898319 10.8247149231807 8.659679471305369
Zr 10.523372996517352 16.09018184435016 10.878696896060434
Zr 12.526795522582432 15.635566024053174 8.750921722080452
Zr 12.688888089696057 6.663787841574223 13.097383947018537
Zr 10.750839556367927 7.492216909153686 14.94152073046239
Zr 12.412773228178006 12.436384217612485 12.06761483369848
Zr 11.066757573261311 9.841156099237198 16.258067493654313
Zr 10.779081705357378 12.369633111376421 14.942736238581867
Zr 14.019886607928898 13.259639857860366 9.210340227143346
Zr 11.049577401435899 14.863213830756607 13.379748978326852
Zr 12.180719522992323 9.664503923467272 13.372299330577986
Zr 13.374138858609479 15.249857732826325 11.488458430948176
Zr 14.502278164815648 10.501679325415195 10.756061265253724
Zr 14.864013677128025 8.285770251510566 12.563292534615869
Zr 13.729565668831162 8.42404172469595 15.384065010978558
Zr 13.364273251935959 11.34587636635361 15.90013238011003
Zr 15.30308245637568 13.13164729524885 11.897668655406703
Zr 13.597150721763409 13.716162829920536 14.31027774457094
Zr 15.124537994971318 10.92308705195782 13.732157845737039
