31
Energy = -222.05995938 eV
Zr 14.939389807188457 11.508967900634902 9.056800024327137
Zr 14.008833773292535 8.699535097771973 9.551296737192251
Zr 12.179648790474108 9.908021599885126 7.985432973602617
Zr 11.308329596786274 7.324917695167122 9.669318569151885
Zr 12.923687107759939 12.810654129067043 7.464681974288325
Zr 12.652400450864297 12.132991907431041 10.599995507922106
Zr 10.323591510610669 12.013639607200739 7.854699809777564
Zr 15.044264456552527 10.045545678948821 11.793601945971162
Zr 13.624883316215914 7.364208590017781 11.925505772727421
Zr 9.228251359069066 9.686985219597656 8.934575552342844
Zr 8.069222042812147 12.978217087982918 9.234639476301146
Zr 10.952746605679653 7.058957773483238 12.812390480553285
Zr 11.44971956620282 9.593311937086037 11.317388928390566
Zr 14.029001188944868 14.450285641355281 9.45130668884588
Zr 11.005078214506849 14.502963014535693 9.040595363735862
Zr 8.841102479871921 7.966720484575002 11.209794403280528
Zr 12.433844279767522 9.21509335355971 14.24618696185401
Zr 15.008457547925703 8.562371514257253 14.269866012803384
Zr 9.98045917466011 12.345447373536095 11.18614483328468
Zr 7.641083376057497 10.50536542386282 11.536464990091549
Zr 15.147001854043374 13.119313138473304 11.741743641749977
Zr 14.470598685064187 11.553414462949931 14.214149225994817
Zr 11.992167388906509 14.973745816048783 11.657699012001443
Zr 6.712489567141092 13.207639874876579 11.753505080999828
Zr 8.876025204073226 15.139835891045148 11.345697367128
Zr 9.404829822537614 9.436778421493292 13.69835695366793
Zr 11.555643445351004 11.934216711160698 13.767584800283526
Zr 8.563365712648393 12.304525383850098 13.934561336226514
Zr 13.44215103824639 14.174911487389375 14.003460535010506
Zr 10.361100687745829 14.607107741522626 13.992052468619212
Zr 7.428357510469549 14.906854843759515 13.797077237882554
