30
Energy = -214.91946788 eV
Zr 10.704573108911324 14.860744604641132 8.032307239882707
Zr 12.29551780330103 11.350449287222197 8.252567198404087
Zr 10.48646634707593 9.469817754615336 9.55601939966266
Zr 9.813306468756192 12.474623371377282 9.743393985226433
Zr 12.471242258604947 16.582750239984588 9.395985637078029
Zr 15.022131897474738 11.851041835140304 9.38277578995538
Zr 13.591963954607529 8.971317311125622 9.847086113577902
Zr 10.239748215658246 15.378208379321121 10.92127335658866
Zr 12.675498990033294 13.83111509564075 9.76838964053033
Zr 15.23291504761366 14.880408579039488 10.610751648073705
Zr 12.291690514022212 10.934939508092885 11.176480457849756
Zr 14.027085838721936 12.703849563749708 12.354240434775564
Zr 9.105876728795785 10.56604253045819 11.99612288769684
Zr 11.354778899516454 8.361648956186638 12.360577599390487
Zr 10.991736729729112 13.099707509264753 12.743061002332757
Zr 12.866773732906282 15.682064585687826 12.360379951286431
Zr 16.89199218121688 12.707519103457374 11.774989984343197
Zr 8.213593529243777 13.43157436977881 12.139900034520075
Zr 15.885241647002017 10.15718277175597 11.504714532986576
Zr 15.671433474325303 14.66446243200437 13.536046411576455
Zr 12.08466558685365 10.947360568661928 14.404101933039712
Zr 9.404740995668156 9.152215661615324 14.439543864136757
Zr 15.555688119231416 11.443564943305837 14.260122820541387
Zr 14.003599520369745 9.02083505996324 13.071999094467094
Zr 8.76455003692686 12.061406349401093 14.72433026091561
Zr 11.969182668890255 8.37055246194255 15.41439506393357
Zr 13.085284909094597 13.913302060727865 14.811372026295603
Zr 9.830059274025682 15.045767656897942 14.219028176914296
Zr 10.38862641476338 10.559960106203286 16.729187778084984
Zr 10.87297173581066 13.318503971888088 16.261792305083183
