35
Energy = -253.8304365 eV
Zr 15.962049964576078 9.913619251443663 14.34785398149892
Zr 14.832661617259536 12.432359308584997 15.540353258126872
Zr 13.035851700622867 14.932900383913806 15.897688369035562
Zr 16.838795696039337 12.557856990371246 13.346312645635038
Zr 16.70347328251324 10.282012809446417 11.66914216601553
Zr 14.809270926545032 14.629717475302117 13.296449710888755
Zr 10.33562425090578 16.153348540751683 14.870151533821424
Zr 13.052671839933588 9.238185765707986 14.655329837893916
Zr 11.90082783821623 11.554457477442673 16.17409994697721
Zr 12.722451728814555 16.684462469717772 13.437968085931999
Zr 10.381279216958081 13.890780037283537 16.590947557591544
Zr 14.290007904671938 8.521913394001583 12.13558934763872
Zr 10.219581070304988 9.211090285709167 15.001337218653429
Zr 14.153626412298856 11.63777266277393 12.781560755706662
Zr 11.800859030515547 13.77583813050101 13.717557549818252
Zr 15.003325227371846 9.69602082431728 9.415742558039796
Zr 15.5776761932291 12.912861858198976 10.440388539842568
Zr 12.630360935907177 13.947455279309958 10.962270532262261
Zr 8.940378541353997 11.621020562875477 15.452954311541069
Zr 10.986519565481919 11.274551215932577 13.027839511853117
Zr 13.541182190255372 14.709148245533541 8.31231737351042
Zr 14.152881873807557 12.104937099555912 7.963554252108672
Zr 12.607829897590669 11.021772812701943 10.489610147993513
Zr 12.503715420116919 8.10078700311794 9.81057539947498
Zr 11.146117371409902 8.405372552409595 12.315417619604991
Zr 7.841401342185351 14.526152334683482 15.653084663529926
Zr 13.170499808450248 16.63664417500798 10.636383814396734
Zr 12.353730976505886 9.955374810475845 7.776139519175145
Zr 8.797034708085928 13.67219752420962 13.308232606411906
Zr 10.363244265634666 16.046250726250452 11.786011684210566
Zr 10.923397886479485 15.443301397364616 9.092762463850436
Zr 9.724014523273967 13.00798077166387 10.701330522444533
Zr 11.180025354892582 12.613920325887118 8.219025944288559
Zr 8.542054420375914 10.2964297258899 12.652723503887051
Zr 10.031370870133816 9.915567366965105 9.847734500860364
