32
Energy = -233.50128637 eV
Zr 14.096243607552317 15.268040609816325 9.062387094771774
Zr 7.847947628698411 11.224618662778592 9.396609336191878
Zr 9.185826123348136 13.934312383822416 8.758664604150882
Zr 11.279574258437798 15.955491275085357 8.767104006405328
Zr 8.993483670777612 11.181433806262016 15.247559385018066
Zr 12.057445164663498 7.5686414888334275 14.804289278165447
Zr 14.69441018537071 14.990755319905388 11.93462973765937
Zr 12.093298103577041 13.331974311823394 7.800637175585418
Zr 13.507540480695273 12.684219650886707 13.386253857462258
Zr 12.740923187956314 10.366302152787899 11.300506018391154
Zr 10.900513823082532 7.554933323867328 12.123237233441122
Zr 12.752087030872808 7.766481627225486 9.868466596218076
Zr 11.128246425236265 9.587187838518295 16.51762089133985
Zr 12.215831816906842 13.948563596190189 10.840392297188524
Zr 11.226036157021051 10.238696301529306 13.645865534968653
Zr 10.10517120089229 9.022370751503315 9.45358090239898
Zr 12.715613969101012 10.284578956189488 8.312128491799069
Zr 11.744823404575799 12.305719493257754 15.741258381168764
Zr 12.137033433304463 15.344787158668957 13.482449785331172
Zr 14.601545516973722 12.351880019233377 10.119834727993817
Zr 12.594298875442863 16.86684085344847 11.061247856907684
Zr 15.440774603918218 10.662567689359758 12.59512173993588
Zr 10.151838733949795 13.151192481799278 13.35539682631342
Zr 9.78392593317521 15.567694958368628 11.363565577735276
Zr 10.027743541928617 11.282817710891432 7.550898941127979
Zr 15.12683208922309 9.330726669155881 10.109842379631374
Zr 13.947507227021044 7.998610400649332 12.63857132293335
Zr 8.637791673013957 10.23926933410167 12.193785291668453
Zr 7.962116776870067 13.187566988687225 11.449006837071819
Zr 10.444095427523774 11.821199603773998 10.440439830287284
Zr 9.256290849980122 8.32167168533603 14.58990513379527
Zr 13.833494431866198 10.005551347819278 15.039375992569294
