34
Energy = -242.33357403 eV
Zr 16.46203146802096 15.65092271345853 13.753109929928126
Zr 16.212873135371503 13.441903652974105 15.21251644669957
Zr 16.398763296627607 13.147218711357812 12.257158259595348
Zr 15.92379981166067 10.769134434851185 14.158410645801975
Zr 15.673239773433307 10.359772204307351 11.147359892290089
Zr 13.717202143775456 14.882386895810674 14.437293064356737
Zr 14.674077296993072 8.507689833699347 13.253245448867888
Zr 14.458320101693182 7.821080298999089 10.422353941982358
Zr 13.716493660779076 12.257143360510383 16.06289347637357
Zr 14.58256444895005 15.361705371051348 11.632833725869835
Zr 12.724041229949067 9.95056214843731 14.869104981319003
Zr 13.618544005968605 12.120738938204257 12.910057983732118
Zr 14.272199564346263 12.918457117476926 10.025247765072761
Zr 12.406447389030948 9.475040741014373 11.6771603031952
Zr 11.940386610367497 14.08239688747359 17.383772806064727
Zr 13.659932062024033 10.217004935607033 8.876125274389876
Zr 10.799874572968458 11.448249602522255 16.86742905460871
Zr 9.339760058418198 14.034331313907627 16.643834391737407
Zr 11.944857992024648 7.835289466902455 9.316731560779344
Zr 9.481289852146999 9.261198152144848 10.810503834354035
Zr 10.217401848221629 10.816888828548674 13.19885841360805
Zr 10.616870961048484 10.199371889582002 8.31345291143016
Zr 11.232580243412299 12.132029982653155 10.523497341029223
Zr 12.13788527356496 12.649445175997066 7.669077035616516
Zr 12.404309158250603 15.096857664330429 9.309714400014588
Zr 11.758960893433343 14.673483900173729 12.086988493750065
Zr 11.230974039796575 13.214785670630487 14.599958354947217
Zr 7.4747063323182354 10.816579115104563 12.658185817049553
Zr 8.40065260846906 11.775620875053576 15.283339223876146
Zr 10.52776492537573 15.02013870478846 7.106340022867066
Zr 8.228184503799264 11.967508427285606 10.247967730813482
Zr 9.239547682405751 12.658882256645915 7.5636028306205185
Zr 8.735532251875586 13.516961212428455 12.812234820034117
Zr 9.54296343020781 14.548520135755556 9.808748035448128
