38
Energy = -277.87070838 eV
Zr 10.269583326194931 9.896238571872663 14.935432979397545
Zr 8.428642776407155 9.032003859285666 11.324307374521485
Zr 7.672063043567498 11.193187569616475 13.467002277780248
Zr 12.645848079171556 9.914284219632757 16.63018998301768
Zr 10.772413951941617 11.897177967596283 17.206916121538438
Zr 13.192809265434596 9.27495076153375 13.676296981859002
Zr 9.78605528886426 8.268244475297243 8.7113049316218
Zr 7.805130266305973 10.268342684892014 8.50439549278694
Zr 11.505072382271285 8.24612658574123 11.151786495853633
Zr 9.431355375626602 13.004682539867424 14.778125269664152
Zr 7.3115140485333505 11.67114479007607 10.765231501772545
Zr 10.46417041296694 11.089854399186084 12.572132981465089
Zr 15.070596841680505 10.581678874362263 15.631597306003696
Zr 13.716762390252544 12.789712012391382 17.215402038480452
Zr 12.499343958976628 12.165627544613564 14.644813576915878
Zr 8.63697536117599 13.849956615444276 11.960395940578143
Zr 11.355837658156037 14.49360643572595 16.373431466293383
Zr 10.374167001500156 10.918531026805576 9.790147501403018
Zr 13.16132969151737 10.92438854113813 11.192511715203768
Zr 11.129363511279232 15.136255209212495 13.509781734722846
Zr 8.724709972485444 13.345976981582458 8.858814971520866
Zr 10.344589024380747 10.92350873748705 7.043637935741126
Zr 12.451597096316636 8.969192738335199 8.4166915392418
Zr 11.563020436165282 13.329356911655356 11.061707686566104
Zr 16.02580429966002 13.225361239734601 15.135983381404538
Zr 14.527902998218574 8.78485258850422 10.676029737558103
Zr 15.852387561508332 10.744659880299388 12.898600088611591
Zr 13.764701968253675 15.25350104791485 15.143375148850433
Zr 14.343860552432297 13.419566474927954 12.59358677681339
Zr 10.679448390414672 15.630703061255813 10.098467715170099
Zr 13.192931239410818 11.674911392163583 8.131791712386493
Zr 11.299488162297655 13.712344721581099 7.845892166905659
Zr 15.697829096353175 12.118108400233002 10.192714373516514
Zr 17.34227135466048 13.253222235883866 12.42549482746396
Zr 13.393230857094832 16.14470808225349 11.995958039267453
Zr 13.655130603447958 14.47632019443731 9.400468388816186
Zr 16.05765775765391 15.692743896541742 13.479479055447486
Zr 15.985780500618851 15.113847209973734 10.733091072770518
