35
Energy = -254.86794064 eV
Zr 15.695835021543123 10.48035735967965 11.104470759421103
Zr 15.290704788875797 11.987455281669039 8.70139423070843
Zr 14.016679126557198 14.42561161065648 8.550223747235963
Zr 14.242380082195279 9.52324908603015 8.71829648996687
Zr 15.529623458432205 12.145710265809779 13.50934985030479
Zr 12.41936807854484 11.656901229451597 8.081086054938217
Zr 16.225260366911314 13.5494758022713 10.816951155892133
Zr 12.444119214956787 16.264106042535925 9.85071013018924
Zr 14.722018164915719 15.827101383814488 11.427330698663813
Zr 13.948031794070607 7.924611374149464 10.867497148892378
Zr 11.529083054415793 8.857034580461152 8.997702066278098
Zr 10.803466556665944 14.039323942585336 8.744382787777697
Zr 12.388250372165563 10.5232831119998 11.218738387061418
Zr 13.353689674649026 13.294406110150677 11.180273539276397
Zr 14.260489327325446 9.081330051095941 13.412704289989438
Zr 9.674174423836053 11.33026654092419 9.194566508702856
Zr 9.525747972138666 9.062208487205265 11.056490608770375
Zr 14.82124707426465 10.145872034379552 15.774363631931356
Zr 11.59751725615899 7.973230682673689 12.597964256280642
Zr 13.869976666186641 14.64432778132925 14.185209957083146
Zr 12.642767473781435 11.881219141691753 14.332656067150339
Zr 11.874736072216477 16.17509017413684 12.65818497675236
Zr 10.528471734457941 13.161121892826202 11.950889030698088
Zr 8.190525098556224 13.790339842362014 10.383603503133141
Zr 11.931784798008811 9.20394342516727 15.44567128317565
Zr 9.853453858127299 16.07314225374977 10.51689234005626
Zr 8.021026924865515 11.198974704956578 11.634135586873162
Zr 9.687986982402528 10.12449627790732 13.7320872544483
Zr 14.925234975283276 12.88633759472018 16.309261301539106
Zr 12.343596987358975 13.85431818928857 16.767401182967184
Zr 12.804002801226149 11.172262682666554 17.421263288929946
Zr 10.611370319300319 14.505823564323373 14.871261154891657
Zr 8.848841489354594 15.542899187513859 12.95694296043749
Zr 10.247362264058962 11.731966546196347 16.13150263826516
Zr 8.259231808106042 12.876001008399736 13.869452106824555
