36
Energy = -260.45104616 eV
Zr 15.735430300007739 15.62510569386653 11.3083264186768
Zr 16.86676471640069 12.926051050778266 10.755644336948047
Zr 15.73984274780962 13.764127260716762 13.430193436016411
Zr 16.289134313875604 11.066645812985803 13.41533659474859
Zr 15.461612616073483 14.748715702717316 8.708874888268268
Zr 13.398115079328365 15.450017502661998 12.987018188676691
Zr 13.85624520177322 13.171612570721184 10.850188361481097
Zr 15.337829899267492 12.024734275333094 8.355047212035265
Zr 15.033376698471798 10.348857880495293 10.729489639624076
Zr 14.948403920776359 8.634427743579534 12.961326450853596
Zr 13.336611504712554 11.426433979533252 13.296179009403659
Zr 13.469506125869334 13.482658960286559 15.585571928545725
Zr 12.810558291811672 13.658777087652217 8.083855888815528
Zr 13.075580428343267 15.94466487157288 9.993402331573039
Zr 11.915006342340824 16.10419490323323 15.167012535215992
Zr 12.905002316446371 10.593208092215496 8.612143051169753
Zr 12.969873298196907 6.876366269015851 13.698740472239919
Zr 13.986671525848365 9.578143773879415 15.495945287710017
Zr 12.929392008133027 8.261649040517124 10.95953292190713
Zr 11.522362539895319 9.043772689182196 14.075064049476648
Zr 10.482092413161842 16.28026364730872 12.555452058049296
Zr 11.066025580073214 13.49169701789512 13.674832271172916
Zr 10.810539831230258 14.033490279726207 16.755467285572337
Zr 11.31421899049121 11.377761802628354 15.840451887321196
Zr 11.281134424100077 10.903576802213998 11.102694935889422
Zr 10.820291476615216 13.988373762190507 10.548011348950581
Zr 9.094389473081161 15.572047323895944 15.009718445900091
Zr 10.304443274183614 11.783113181980033 8.241796433245058
Zr 10.224321838667816 8.904817054832687 9.133222508595123
Zr 10.240734503951966 7.91850383984509 11.960941975963378
Zr 8.605942837433544 12.762427095863403 15.341616188729649
Zr 8.403588289788052 14.116665378708745 12.627282417448312
Zr 9.304945855028954 10.90919282696108 13.289656601330586
Zr 8.461724374732729 12.010041911978416 10.42505299202612
Zr 8.00486305366188 9.20173424413097 11.045458651087053
Zr 7.726911705288943 10.139332753050587 8.440904737923036
