39
Energy = -283.65073929 eV
Zr 13.145405350115881 16.67276219676075 14.890867651253235
Zr 10.295518243808091 15.611692072942091 15.752428071930375
Zr 10.54007066943773 16.72128995651066 13.319841510090102
Zr 15.767994280378893 15.764670583152519 12.676292825326808
Zr 12.577483201658028 14.614277930378112 16.943853239101514
Zr 12.952680051949718 16.633842025055188 11.816173860585653
Zr 16.628075636571886 13.561641591095482 10.472875424513509
Zr 9.97113665141841 15.736005441868445 10.75137405211695
Zr 9.200754570109627 13.9318729357854 13.444552544069623
Zr 15.001525140880219 14.237610210532134 15.311559578539637
Zr 14.804538545093559 15.603334358839733 9.946267985797682
Zr 10.449164643298609 12.67507061493904 16.11643048172108
Zr 12.159134104615543 14.144570536554355 13.925993831472923
Zr 12.245343988616991 15.790857424529483 8.912455822086184
Zr 17.229807834109373 13.391598814370372 13.404852634266579
Zr 13.362641284254995 11.948760615449956 16.677803699509017
Zr 10.543825456143606 13.448430679946497 8.467700137746977
Zr 11.972695258925189 13.733770778623676 10.964790232370442
Zr 8.522500797226929 13.230288108363586 10.574774461665443
Zr 15.70973572224034 11.423279672726643 14.918013742653837
Zr 14.48841519715311 13.115626812248413 12.195713545164836
Zr 8.993069546684424 10.899059967282454 8.679871473529788
Zr 12.683136468228899 11.2252442443846 13.666035863169956
Zr 9.619426619414707 10.877858859614054 13.809487906615512
Zr 10.806258936563335 11.061650518519908 11.095340001044177
Zr 13.989213331097892 9.126310426937367 15.50671361890228
Zr 13.79834380613463 13.209110253220887 8.614350822763722
Zr 11.29349705825326 9.923521728968083 16.055458589216197
Zr 16.733501487587834 10.939893825099245 11.883663948756316
Zr 7.636098058895316 10.809268165588044 11.570080018530097
Zr 11.964445447566966 10.72930890621974 8.305541110603018
Zr 14.171370235165918 10.77470303146663 10.253209572446469
Zr 11.715116634829009 8.470591032529216 13.608880516638516
Zr 9.448096932747758 8.44197048881107 11.656903919574466
Zr 17.064050461233666 9.190157781555769 14.26171170492975
Zr 10.207159815683353 8.298420597752914 8.82746118313022
Zr 7.528121313438046 8.65850681157828 9.62575927104255
Zr 14.721807313398127 9.095439467530175 12.718501641693505
Zr 12.318296664913477 8.5380678217487 10.676820291003894
