36
Energy = -263.48319777 eV
Zr 13.779994290055074 11.47739917242555 17.057975100646203
Zr 16.313479878786644 12.457462165685044 15.566329412390196
Zr 14.878575688324776 9.715280239095325 14.989145105206942
Zr 9.397442217144091 9.178665656768047 13.01082164420506
Zr 11.803960231292624 10.507132899710097 15.084884563130936
Zr 12.825571952506495 8.444960530151123 12.85688571066746
Zr 14.36972203170207 14.239927572274922 17.147252741732714
Zr 11.559767140299122 13.347096549464707 16.559186014410884
Zr 10.961953601173262 8.499447469068821 10.519059700843805
Zr 8.39368098403536 9.809756423602138 10.12672954469926
Zr 13.619153628705034 13.081918144927768 14.533223132184627
Zr 9.22504157213655 11.955625010003997 14.34564504690282
Zr 17.161163108119208 10.812712361992064 13.25686875957062
Zr 15.603955419545601 8.788701630651152 12.06523125713197
Zr 15.570822068121089 15.326732506729906 14.779777130484835
Zr 11.465008062901653 10.893660124351568 12.216178674799147
Zr 14.354116453020854 11.304022985017381 12.55235389087413
Zr 12.701012802640768 15.775030838056196 15.266063531243233
Zr 16.467759675607756 13.56807953309497 12.658889016341513
Zr 7.238039028295651 11.085484290514191 12.624716037130986
Zr 7.84501595786088 14.098878826214985 12.521861876166765
Zr 11.02797683991107 13.90891303525473 13.496431407783584
Zr 16.168561277407505 11.265821556474789 10.332451046188986
Zr 13.61386986499278 9.590554250550515 10.000597774421681
Zr 11.108790760810011 10.762804850986065 8.695159428049601
Zr 15.517105263956177 14.136758988700427 10.064060147876825
Zr 12.80476376604205 13.014812862743579 10.875416442520665
Zr 13.82555200509675 15.426252353854373 12.343254917016743
Zr 9.546285158913996 12.447768497633874 10.981869941436402
Zr 8.5336318277797 12.053202552922743 8.151633402389301
Zr 13.827836120044834 12.334035006131113 8.326292513644235
Zr 6.661820007142936 12.381574355610105 10.281252426655932
Zr 10.699632654729362 15.373101360291447 10.995729839544337
Zr 13.15234937773622 15.290214283496852 9.236205502393059
Zr 10.900684514654687 13.788943301516422 8.344106547511334
Zr 8.26742915149656 14.660121863211359 9.519072960663818
