33
Energy = -240.94830473 eV
Zr 11.619357785914406 16.655645481968126 10.760076061708741
Zr 10.617925984282838 15.758986808691589 12.98180671865232
Zr 13.655426866464094 15.802043369888352 12.946824245333326
Zr 11.974414026286931 15.145955939206866 8.51772313610144
Zr 8.655647911653439 14.112565844728374 14.190128007720679
Zr 11.804960432252662 14.272122021124753 14.964082652831737
Zr 14.279060712686318 15.844126627559158 10.04403820267769
Zr 9.580584985365137 14.109500152498782 10.484162441955371
Zr 14.153509610529726 13.17319403573929 8.756658356749428
Zr 12.44181776543648 13.764015822748647 11.243877934590506
Zr 14.747626283330561 13.34155914919037 14.5264371748283
Zr 9.86171426088188 12.34921278573779 16.10826166948846
Zr 11.143720250367513 12.587765400292028 8.04815377246781
Zr 7.587081183218493 12.349581361217622 11.928515059429293
Zr 10.400214121274804 12.164785085076385 13.008483173945033
Zr 12.641561544725906 11.627673273025902 16.027991022127882
Zr 15.504404033447914 13.627871196891354 11.547522124306525
Zr 15.251265439252665 10.420574562260207 15.232543001758037
Zr 7.889319002466788 11.26180967152063 14.460182240930106
Zr 13.274193713692492 11.197676235276036 13.098922799195533
Zr 8.87314680123101 11.144842411667522 9.651169857275208
Zr 16.319091749247704 11.282971330939903 12.8983684138256
Zr 11.748458589891747 10.913642789439974 10.472014323514339
Zr 10.885691464776444 9.623926145294432 7.9075628409184775
Zr 13.437880251242651 10.600930829742738 7.886352574724069
Zr 15.042096352786704 10.766614421706835 10.36837712575266
Zr 10.39284767088974 9.665925955500745 14.94973271105025
Zr 13.076260003576397 8.779266617154137 15.021727369371192
Zr 8.835850337574168 9.541204775502852 12.313897606841774
Zr 11.700552697580031 8.37544278105971 12.528224429461332
Zr 10.10119343659166 8.340235563563198 10.121221298358302
Zr 14.80156065065053 8.72973832423502 12.65576084010801
Zr 13.065416440968498 8.401054242410357 9.760366672775499
