33
Energy = -241.34351971 eV
Zr 10.918503577116097 16.25719713596404 12.852155787677875
Zr 10.172192731236098 15.304277223582368 10.209073892657273
Zr 8.295842960913026 14.692280790694086 12.621798880564599
Zr 10.058291527395625 14.847203509404522 15.108736524497916
Zr 9.478795364694562 13.710478981241236 7.8625366362914875
Zr 13.041290448351626 15.053780575859529 11.286480488665307
Zr 7.800440423904727 13.55701568774663 10.006939189590563
Zr 12.940449347443526 14.592717543700223 14.519037021485818
Zr 12.361992058133598 13.814968430238252 8.613312118983522
Zr 8.548867449366298 12.51944603054887 14.681111818680842
Zr 10.802590577163855 13.25272050424189 12.748098786135097
Zr 15.266722801328246 14.137423172346157 12.858464599899428
Zr 7.927485323714772 11.5802035650871 11.946038127721183
Zr 8.32746869473428 11.03069080261046 8.602915830866039
Zr 10.599320168690578 11.898175288765817 10.140899189800027
Zr 10.944837920455786 11.545411006273351 7.154037360902859
Zr 11.463435020102255 12.256863690481655 15.573929092968385
Zr 14.689747523243916 12.695743595894369 10.266855665142163
Zr 9.971643801140598 10.26813348952617 13.726051816474826
Zr 13.282502326335184 11.849838600507212 12.942661105781951
Zr 16.37931361100042 11.675750289667732 12.574566841070451
Zr 9.096589560879687 8.940661202941863 11.051173088401068
Zr 14.873014639588169 12.107623241061093 15.11702639992548
Zr 13.330703952791588 10.791888964619092 8.543127008797146
Zr 10.70479955525232 9.070246677845294 8.593229352784542
Zr 12.149859529032629 9.650405938745779 11.425441382878478
Zr 12.617523345788504 9.37123010026264 14.711271776218021
Zr 15.22583988493167 9.682131837843247 10.758216434106075
Zr 10.789647182352386 7.58519509092186 13.254621743491711
Zr 15.199198659232461 9.453799899738264 13.693288390787734
Zr 13.462927565090094 7.942827265258281 9.290993795794519
Zr 11.190672266885173 6.949999880096194 10.55823372209451
Zr 13.673445898482578 7.397742922511058 12.266740131943436
