30
Energy = -218.5661488 eV
Zr 15.023803343993924 8.163335675043415 9.692932017691232
Zr 7.6519348786313515 12.226448016055203 11.549103698004318
Zr 10.607633435760176 11.897316896393992 13.218118635421456
Zr 12.601633369269459 12.80161817174966 7.566602291939676
Zr 14.429128771879984 8.717504571703167 12.524935253963093
Zr 8.155542223246904 13.79750593392865 14.064197559557368
Zr 15.61790992793298 10.720066828002597 10.714791745583561
Zr 10.7422096769079 12.183546714994383 10.22464021342305
Zr 10.719055965475306 14.784023368948317 14.375851104863271
Zr 11.534772012655452 8.739903464533956 12.93622036247684
Zr 9.975152382570442 12.30563637042258 15.993537851797376
Zr 12.537505545362292 14.349531929924627 12.166284533191673
Zr 11.080028627790517 10.223067839491039 7.444614859554104
Zr 9.882637738722828 12.87730514283857 7.356375015106647
Zr 14.26979928618609 10.54195070391824 7.994285624889816
Zr 11.307474323570256 14.830740883182852 9.195103093321965
Zr 7.767667199407748 11.104791089031787 14.204990789523363
Zr 8.482575487574495 10.764670987815764 8.966519262772403
Zr 12.669198038884051 9.967692934424468 10.396187407979404
Zr 12.391082858827607 10.392067067459243 15.291264694756888
Zr 9.684700982278288 14.90889878764002 11.708246164636106
Zr 10.226500589890628 8.323812511067153 9.586638591978462
Zr 8.39982534027961 13.88035414624514 9.367355257476847
Zr 13.801537634759963 11.605330686462697 12.819260073234082
Zr 12.686550626157306 7.969638953924565 8.120319424818474
Zr 8.836913029213214 9.597629723492396 11.90949726805093
Zr 12.813759484374637 13.157459278326492 14.988446311752522
Zr 13.996902582391188 12.972165492526509 9.95772902215278
Zr 12.628062814991114 6.986542134689951 10.855460163233415
Zr 9.73822216994005 9.446115899848053 14.93981636362988
