38
Energy = -279.17818942 eV
Zr 13.717230959014403 12.674514614777745 7.297474096340201
Zr 15.299574133129372 14.675632915366183 8.921656189073325
Zr 11.32514163796605 11.220194350484716 8.273729018087879
Zr 13.187959163184827 15.656246433342396 7.374326321696205
Zr 15.30071882930521 11.92299421224041 9.798498528564298
Zr 10.916901455845387 13.905611849797745 7.169519286947979
Zr 10.710869133985634 8.815863128504256 9.860518397987478
Zr 13.598133160010509 9.447139982156196 8.79964017055795
Zr 8.667444617649053 10.947575625324276 9.217124590896098
Zr 12.493666616594886 13.837010166123735 9.73638168271433
Zr 15.490111670326861 11.555896600150238 12.894908864778962
Zr 14.698356364859869 14.389359649514228 11.815350313813896
Zr 10.807127231957217 16.18724031045728 8.979977329218931
Zr 15.356440299993437 9.263813273364374 11.04783780937192
Zr 13.479483994857805 16.62971440475064 10.192473111986954
Zr 12.910083770295985 11.003969139782342 11.14562961399161
Zr 12.966650961396368 7.629269741940672 11.40353592473856
Zr 8.059456325510412 9.17481594557733 11.216221372726402
Zr 9.320408845520213 13.684943616649008 9.800236126698781
Zr 10.014182197704226 11.56883122175464 11.931933780088729
Zr 14.651977560170254 8.662038911572475 13.827284666701921
Zr 10.030066376274037 7.5687148464598115 12.53978255919745
Zr 11.847473321362834 9.741062926446979 13.544824326364374
Zr 7.283771264450714 12.006497223218462 11.754976378358243
Zr 15.059712976272012 13.915826587458474 14.660986646638166
Zr 12.32171764068939 13.065221070426121 13.429810509008567
Zr 11.194175440215393 15.535901166678759 11.882251582807447
Zr 8.382550270858355 9.808506857307057 13.955171415050216
Zr 8.627729582041939 14.504479888570598 12.532493677627443
Zr 12.336377161608569 6.851970401722843 14.193275978282337
Zr 13.922707232504974 11.278414306757787 15.343209931985406
Zr 13.120481731823617 15.891970430696864 14.05258237217411
Zr 8.442482908948655 12.57280435471678 14.533773578579671
Zr 12.80666851832258 8.863566597828045 16.237567873979508
Zr 10.162010758255628 8.251266102143504 15.499745149416555
Zr 10.88305070948278 11.43794848347322 15.77655030842956
Zr 10.391937683107468 14.830334162647432 14.83973701649319
Zr 12.75631235525 13.894084420217634 16.28130316978906
