36
Energy = -262.56467576 eV
Zr 9.415747919700026 7.064344911554983 13.87456755052642
Zr 8.798293620174451 9.598402899379487 12.876919729352199
Zr 9.188144962719537 9.161312246348908 15.719359476656695
Zr 11.238667566693834 8.282828142133216 11.77880445886625
Zr 11.787537451573872 8.442865563351942 14.547272272898008
Zr 10.392383346379523 10.671308505715519 10.537549313759989
Zr 8.546894883202413 12.641476816939766 11.876258126296069
Zr 8.608541293463622 11.90493676654413 14.734187605417869
Zr 13.019320736544021 9.377580114311764 9.296442282847085
Zr 11.264575511165017 11.379701427968708 13.622325014149537
Zr 11.633337894056961 10.564594333135844 16.47582516971253
Zr 13.72008262086027 9.986104244417128 12.156928485244876
Zr 11.217228548292095 11.161718797992249 7.822261655207694
Zr 13.909825159485363 11.347950154617822 7.265999638167841
Zr 9.721401417270984 13.286231417879511 9.117186018058762
Zr 9.478845092839821 14.697051224333674 13.898544609311255
Zr 14.30759788589901 10.276554290872019 15.123497445106791
Zr 9.0072027620837 15.399789293991512 11.139806186160687
Zr 15.599302552786227 10.846736977564051 9.674619232490878
Zr 13.066295331357958 12.261760817931524 10.04274386828789
Zr 11.092547082007732 15.9037493093588 9.432324673631221
Zr 16.15601204266171 12.345425585673446 15.705910303482002
Zr 15.260727502541393 13.546012747365655 8.34278943369316
Zr 13.425227333374895 12.84503218437753 16.623575120383844
Zr 10.63716272013298 13.317357847240388 16.20310463513073
Zr 12.384595773213528 13.961434211541143 7.657337303776772
Zr 16.33656144381297 11.195125764802794 12.997223256241456
Zr 13.985192819979085 12.944568716453276 13.585383911869599
Zr 11.485239078353093 13.865987447127068 11.746980159951931
Zr 15.80570022604704 13.548246063867175 11.089445406200173
Zr 13.77443094035442 15.51567486270228 9.984972405475188
Zr 15.055223033710849 15.022805007877471 15.604912238768547
Zr 12.29621011478087 15.363224503225373 14.936743107927839
Zr 16.85201621839845 14.060729298355692 13.582494728817426
Zr 11.475879112222037 16.613800343586664 12.350411251936025
Zr 14.485286107314854 15.892426529363387 12.891500341260022
