31
Energy = -226.04105232 eV
Zr 13.890534240604032 12.426297878746455 16.68617296050468
Zr 11.217184708216383 13.356206247164975 17.129235581680927
Zr 11.593174483297283 10.636515762390015 16.665965427429093
Zr 13.88898284380761 10.195111856892826 14.82190062899272
Zr 13.125369790142464 15.021164091096864 15.446782900480097
Zr 15.334828420308739 12.938467626751152 14.251491381001053
Zr 9.21131252536798 11.912528063671179 15.239927812670889
Zr 11.89464650427093 12.536840153873918 14.30059735428527
Zr 10.094005543848315 14.850113130185157 15.170872536742868
Zr 12.912723328333435 9.4116828838108 12.099253924243923
Zr 10.95496535395361 9.540266204087372 14.181498740262404
Zr 14.58246428110965 15.341803156419873 12.991615516448064
Zr 15.538041986209878 10.7488025590376 12.434567823581562
Zr 13.16374944895628 12.643773506586449 11.757600228755114
Zr 15.777453432471283 13.439152064500108 11.08704676378829
Zr 14.542057864113808 10.765881996888544 9.73535167534482
Zr 11.662385533462087 15.640005416668973 12.827140294099669
Zr 12.960250087230746 8.336658945214372 9.380373327329677
Zr 10.52660784811159 8.126606055419785 11.010401231740813
Zr 9.79617787289651 11.017881620852366 12.049228705489185
Zr 13.472128681024785 15.41059894979465 10.480674525846247
Zr 9.281194751574379 13.71677697362796 12.795314158864459
Zr 13.509470900708664 13.14207641700169 8.778795458997099
Zr 11.325727777524257 10.912977710635126 9.72437497130971
Zr 10.795863491850055 14.09504427884927 10.398472813545585
Zr 10.473364109789523 8.3704019800903 8.095022166867063
Zr 12.443140224166534 10.52471231083451 7.234916161720349
Zr 8.39682647107765 9.59280879556913 9.740810854547409
Zr 8.573337624923687 12.454455673123718 9.504547479965268
Zr 10.799525234735265 13.143481965087677 7.687636032695619
Zr 9.373591865063338 10.762599510290116 7.283953392090927
