36
Energy = -261.49060179 eV
Zr 8.646447842208401 13.458039594949781 10.875911335077054
Zr 8.895625893933863 10.567876968026452 11.642043950018913
Zr 9.607853602963823 16.20079299751731 10.279347718883617
Zr 10.221231967719064 7.994410488492289 12.269203308452077
Zr 10.423089516693059 14.339813990101462 8.520517084889148
Zr 10.461976804701246 11.670160921710062 9.148897722511453
Zr 10.469757988494598 8.933600649354485 9.556331180996064
Zr 8.838850698276248 12.547933130936537 13.874337312218335
Zr 10.5353227548095 6.049205261514431 10.043957471703084
Zr 10.026992292533201 9.927136406612252 14.439977943735071
Zr 9.275930649427716 15.384174726048556 13.086568382124405
Zr 11.541102925899326 14.04408076393587 11.440812941045651
Zr 11.875900391473209 10.666758254502048 11.843780580326568
Zr 10.3547391024068 12.002945172282947 16.56929875966988
Zr 11.42978412747269 17.19625232536856 11.983401509915053
Zr 12.6205629464148 8.427889106525667 13.788486718914426
Zr 13.046108757374993 13.133371900163786 8.712901228638364
Zr 9.937578893757971 14.606979711312404 15.724970857558754
Zr 11.979693453732336 12.719247798351141 14.292287640175417
Zr 12.57170772756953 16.108876002469298 9.522412278571387
Zr 14.416663539943883 12.27160894901555 16.298570025601673
Zr 14.326713182335212 12.625588288966181 12.358424579308936
Zr 12.772704397362254 7.799632122979083 10.827550178108645
Zr 12.042430750850125 16.070748267816008 14.39483092617091
Zr 14.72841163841382 14.843090263852226 14.800006297111269
Zr 12.567510445981602 10.138043247249781 15.970790409248359
Zr 13.27583498660122 10.238609815350507 9.17749831161216
Zr 12.513934581849275 14.333939683553432 16.773603738162794
Zr 15.067029137112376 14.71026532445822 9.865984427080413
Zr 14.989272867442807 9.502825919290274 11.429053822124159
Zr 16.68437865678918 14.232657848681725 12.158236444005276
Zr 15.046974467895838 10.165255190997454 14.330687683259503
Zr 15.808726826177395 11.987297167720238 9.865644787736654
Zr 14.132670407046561 16.084875977119403 12.161573092011833
Zr 17.045159272586286 11.238840280695634 12.36160515683792
Zr 16.5673920063464 12.705984704839247 14.627002818088569
