36
Energy = -263.50450088 eV
Zr 7.178226639034122 13.655671173933065 11.40659779127335
Zr 15.591899295861548 11.56347834822339 9.968290015855985
Zr 11.915407991075476 15.359851839741582 15.590981687451546
Zr 11.036983029439334 16.57439835417609 13.193179507677483
Zr 11.777256584116632 13.735036498989727 13.305057224272927
Zr 16.565970531736248 14.867883122377897 13.442400081017718
Zr 12.165788492762383 9.659241279899492 16.25581059561161
Zr 17.37240124902582 12.691047446765248 11.790608733148785
Zr 7.4987027263766315 11.499846776170683 13.051721591126746
Zr 10.708715141972242 11.755972561170347 8.22771415246981
Zr 13.832311296072673 8.234354117052403 14.126864881126876
Zr 12.682025609219298 12.239922086861467 10.598967358377326
Zr 14.744360901603239 10.833957295683025 15.54566029609093
Zr 14.677104139976118 14.042543356539019 15.598630935053013
Zr 15.323443949144766 14.576644879967045 10.701814861900207
Zr 10.782997977883346 8.185051025933515 14.568104691598704
Zr 14.052660127369196 9.115589818774977 10.901127015262132
Zr 13.932552470977923 15.998409221514331 13.36708179334909
Zr 12.206453580425181 10.450348797792758 13.250721855163508
Zr 12.342800709491117 12.44323203130102 16.126146444722533
Zr 7.854389392136834 10.972440601386594 10.107460189185007
Zr 10.930179533057608 14.530329624595009 8.684245189465207
Zr 9.488511793804996 15.465333377979531 11.083242162074603
Zr 9.864744610654492 11.292143110921728 14.691839716172064
Zr 14.55186535423361 12.680784356913362 12.922189424878722
Zr 11.87514267083334 7.619677769830507 12.04351152733994
Zr 9.917037645989497 12.360741687385215 11.377927946754799
Zr 8.891675811322823 14.252982943601694 13.808487452389665
Zr 11.054042569934204 9.498794985596016 9.963443918096992
Zr 13.547859093282959 13.409489095693763 8.307640611422748
Zr 13.365055440353371 10.406474789920255 8.365587988036875
Zr 12.510064373966125 15.54687185202426 10.758185761427804
Zr 17.02012888093153 12.330784240613028 14.58592997738966
Zr 8.36897705029647 13.579023948181229 8.922427802073821
Zr 16.074047199272552 10.12148245110755 12.839626822106908
Zr 9.381870644967924 9.402320756034948 12.304480378617974
