32
Energy = -233.50431552 eV
Zr 16.595754114273323 11.902209644844232 12.289610256709944
Zr 10.203340863134972 9.799041065761038 9.040368879540981
Zr 13.411104475514565 9.8801695845749 8.632146380806471
Zr 15.431175308582944 12.091495918962194 9.630888395087366
Zr 7.775289889659614 13.807230658613292 10.656143763156628
Zr 8.746108110995396 12.676142524528158 15.462303624585163
Zr 14.64553853194488 13.090685422977048 14.459478599335593
Zr 15.174538144447974 9.395867727282015 11.153653900177716
Zr 12.33038055567348 14.4536513031261 12.506820720038265
Zr 13.597892756133737 11.444197465279125 12.37259222333178
Zr 8.381347997080853 9.8618328846145 14.829676214833109
Zr 10.995419948594733 8.537382306427439 14.42239041197845
Zr 11.54313669682128 14.160390707415342 7.456170012020689
Zr 9.97946032511099 12.025154715922579 11.142920530705155
Zr 12.260802763765394 12.277679025432692 9.761450847908922
Zr 11.660584851354267 13.348959713382714 15.372109940489057
Zr 13.180796659005928 10.58222908205938 15.57644519788661
Zr 11.426818161320337 11.302828441984447 6.907666906675348
Zr 7.534936457774535 10.928117890613676 10.067612395384128
Zr 13.646229729830637 8.482969669643353 13.446876922549583
Zr 8.905176336861533 9.176671531855348 12.015470928723305
Zr 11.905451864021346 8.896705782878572 11.225624694789179
Zr 9.206284225995846 12.685353554841697 8.311236243641787
Zr 7.523119929979399 11.826894264118737 12.894015652833158
Zr 10.531939297398221 10.736461265784214 16.472603565210996
Zr 15.69615804662676 10.190160640971 14.165525147321995
Zr 15.083745435424138 14.169202500813599 11.802715518520927
Zr 10.460596194462745 14.939311205915063 10.075567463255181
Zr 9.485500084556973 14.258478612206547 13.170873108067589
Zr 10.798567436264477 11.260614976708672 13.57326728294613
Zr 13.652261580391633 14.757000855185813 9.44260592743803
Zr 13.91290549536331 12.589269464482888 7.324630417031094
