30
Energy = -217.76268388 eV
Zr 7.237504655935062 8.760415510937055 10.553187284677204
Zr 7.898405442162391 9.172596115732034 13.38417027751576
Zr 7.200851760461509 11.501290803365327 11.655017748643946
Zr 9.585927476852216 11.620723779289445 13.83354283614527
Zr 9.34133869791501 7.161887076748995 11.811835955813784
Zr 11.541500541609922 13.404740861229898 15.160996786811616
Zr 9.447190953003295 14.597796347371576 13.386067957561902
Zr 12.532611049291315 10.69077300794842 12.363522988237138
Zr 8.364894399821853 10.964686183675113 8.796360071254943
Zr 13.217034130707429 10.97919427531706 15.060316278918906
Zr 9.801640266965162 8.171468376743322 9.013938617068781
Zr 10.881239099674657 8.7461395496777 13.913531801761843
Zr 9.736215669208084 10.093533401840036 11.379689258868831
Zr 12.147899841360516 15.791897530822164 13.85063055372733
Zr 9.328221250754732 13.27857982230759 10.528586959878409
Zr 10.865357322043522 15.960937585068185 11.196660486654782
Zr 10.745210457182967 10.21472847665321 7.080189427239911
Zr 14.003678818459099 8.531500843946677 13.32146272892664
Zr 11.798170482663926 13.37921086745105 12.142539320163875
Zr 14.2972656684898 13.539945337240749 13.814324205251584
Zr 12.139393157062996 7.841249858171299 11.095091100213551
Zr 15.412435383552165 11.022853127250526 12.988698096798373
Zr 13.806063185451452 15.48066987403361 11.527075661501753
Zr 10.460911750812443 12.937665736541023 7.741522304895996
Zr 13.44513116796669 11.535119918273828 7.714581902475562
Zr 11.79810373505775 11.167385758225159 9.723098760889286
Zr 12.707269499998052 8.611945051250816 8.364992030550207
Zr 14.611948286889254 9.69114148271584 10.39827739491358
Zr 14.634092716803782 12.726130798516923 10.66964338671044
Zr 12.50764895698715 14.226598020964387 9.258830200478549
