31
Energy = -221.45693068 eV
Zr 11.37477004349879 12.951209210039902 7.285173266003887
Zr 10.293950803134965 10.494499113330747 8.271622776532688
Zr 12.964046333752824 10.626680876696973 7.389756899410633
Zr 12.214120491116299 9.049037587750858 9.79534346189014
Zr 9.34820530724889 13.028883445190159 9.367801457961734
Zr 9.678132890435458 10.430175871629533 11.037758638341082
Zr 14.187566109972533 13.3129633143829 8.104918026681014
Zr 8.323311814935542 12.932364512343968 12.09209217426425
Zr 12.397677965363124 12.077384232309813 10.134128863945136
Zr 16.05287192845101 12.993080397070162 10.244969609280629
Zr 8.884860206379795 15.539346855725293 10.64393535658904
Zr 14.930316011006905 10.434986871531908 9.373112252820363
Zr 11.061958937146663 8.6382130147508 12.901553395263317
Zr 8.90883551718676 10.348242551734401 14.013983316787865
Zr 11.743843777317325 15.00368423732164 9.105058751387622
Zr 8.642090059141495 15.4904673734911 13.423084495644453
Zr 11.019559281851862 14.353482880450107 12.061102307922331
Zr 13.895781856567872 14.748340870059037 10.86385229345876
Zr 11.730495370529985 11.613920843335798 13.322145311872983
Zr 13.949261980620436 9.57931299844581 12.111724438570999
Zr 9.47638401758114 13.164061745878893 14.97732995071633
Zr 16.786314803191196 10.539371855332966 11.704938195122775
Zr 10.208819481927366 8.067314557328224 15.487723098960917
Zr 14.7770692414986 12.43452479735406 12.721250923342195
Zr 13.122999837398739 9.027054055826365 14.940206421968819
Zr 10.906443742562638 15.678272189596795 15.056126332113452
Zr 10.961560771183898 10.693328862366247 16.115050983713143
Zr 13.240371840105201 14.278157399119078 14.26200558805204
Zr 15.998167502755335 9.997783952871426 14.180354398599436
Zr 13.91741933076791 11.728147999386177 15.553665015416398
Zr 11.857877728636 13.498498747683172 16.562826156010633
