37
Energy = -271.17395651 eV
Zr 11.30760592125116 9.870861452741398 16.447494713511134
Zr 11.304130529568212 7.848086035418816 14.234734930617913
Zr 13.691874860370369 9.889869389658264 14.844060506932387
Zr 8.936173028826007 8.896803630118852 15.460213780365699
Zr 13.881755312256333 7.557515541722009 13.204167438175073
Zr 12.224227078446399 12.432249831577156 15.72163661751617
Zr 11.594216235563149 7.459152935155801 11.276773913340572
Zr 9.075507520912694 11.888701851574476 15.9527577992781
Zr 8.88886189633274 8.346362336769348 12.516647006644009
Zr 10.427252802214383 10.841425677220156 13.611237286858161
Zr 14.442636685241977 7.626694402920774 10.569358247876204
Zr 14.941026061843242 12.21317569124819 13.94169345220512
Zr 13.04229972425665 10.23157033956134 11.5949427107849
Zr 15.799661345909076 9.580403765060352 12.431092110131003
Zr 12.505310566631387 13.174958656866206 12.830528740142068
Zr 7.295150644532913 10.439770923607998 13.994620297725291
Zr 10.305050662219772 14.153795658825869 14.46542306321202
Zr 12.547392004422932 8.919278239100578 8.79039205810994
Zr 15.345511685369274 12.348270301146904 11.115024092460626
Zr 15.364556331478541 9.949791488694123 9.469622899227772
Zr 7.4866622994371115 10.579975471093796 11.149457760685756
Zr 9.591588070437357 8.98099291131156 9.54464816288034
Zr 14.944156175969304 15.096264618628283 11.963726569687678
Zr 10.347513717195106 11.69987406819609 10.625261119228755
Zr 7.962167096649679 12.973753073533198 13.113658384743603
Zr 9.947497084898915 14.701152746805786 11.613037918683968
Zr 13.565101551888572 11.857384747574297 8.566769538902557
Zr 12.659400958914476 14.000610213799511 10.263592074640247
Zr 15.3787658012372 14.409909614942704 9.037321442964153
Zr 8.313265567429344 11.395028793842691 8.443102426036027
Zr 12.351202614529832 16.328828958806707 12.198010174756979
Zr 7.72022330579732 13.410653032944161 10.269531813488111
Zr 10.954554254848178 11.032304020161948 7.675255201394932
Zr 13.947450888615515 16.755728595818155 9.734314041156575
Zr 10.136709634048431 13.832889307396544 8.5097658444243
Zr 11.167218505864934 16.514307126088774 9.464617105184637
Zr 12.905437357064915 15.005143255406427 7.573110665139876
