39
Energy = -285.43368827 eV
Zr 16.49426670423441 14.27154252849354 11.25959713132855
Zr 15.044313945781251 16.623667327782535 11.317583157533555
Zr 15.260873112536805 14.957953077704548 13.808724940203986
Zr 14.497671492649475 14.722065989606959 8.951731642802846
Zr 15.648725468377528 11.976060775562155 9.689994947033956
Zr 15.624423418189382 11.970917793248885 12.932381858005872
Zr 12.84923309119443 16.554516393856396 13.23349685040773
Zr 12.4298881138847 16.56524353897589 10.279537792035585
Zr 13.49111178835415 14.011180720887102 11.578971182339062
Zr 13.343685566696024 12.083556363004604 7.56722152001419
Zr 14.211861863445158 11.827034035355247 15.751486224871028
Zr 15.026016242737036 9.507246465124863 11.421141231043752
Zr 12.552621982622385 13.7276940812489 14.367800319170751
Zr 14.94717284659712 9.303068283620625 14.493972135525404
Zr 14.378820823168688 9.500388987607492 8.65725881089906
Zr 11.33254224873229 14.12630083452881 9.19997421246086
Zr 12.13359479039341 8.58609933733155 11.014944068619052
Zr 10.408022760109597 15.356816670695006 11.976132429418703
Zr 12.950924901772611 10.783979514954364 13.225654617107171
Zr 12.72736035920725 11.352853213291198 10.172534173141795
Zr 11.607642834794056 9.394552689619594 7.939184865279348
Zr 10.606349454823704 12.707780032723882 11.902008658059616
Zr 9.712980046722471 13.91126595477643 14.73294756644011
Zr 9.983259375374645 11.830553184822636 7.794883884201311
Zr 10.24477138321718 10.44897282386812 13.45583535075414
Zr 8.397801437696279 13.331459383386974 9.985540092978331
Zr 7.824498205210709 13.42292720664673 12.813858724671777
Zr 9.691354573063538 10.185608388288907 10.293295469877254
Zr 12.565539774249816 9.392852035278075 16.11744390413381
Zr 10.901191275124567 11.72162034608033 16.211673642504497
Zr 12.079596366917833 7.814018960201965 13.870332815286684
Zr 8.688693405391724 9.119645311232217 7.592505390847596
Zr 9.96956052578391 7.308966876517139 9.484559545782888
Zr 8.075033268466465 11.460482876600762 15.075317709358895
Zr 7.143730536803198 11.057462708471686 8.88537442167199
Zr 7.339261236540917 10.675342685496071 11.995366175539703
Zr 9.12903004195237 8.033810989386255 12.34001765978022
Zr 9.763044070044758 8.930313964732624 15.729103256607281
Zr 7.301989740063793 8.391153243292715 10.049441289039077
