36
Energy = -260.60221078 eV
Zr 11.449449852838727 9.017103871090518 15.825357737180283
Zr 14.777558504591806 9.451040252236584 13.90118619729429
Zr 13.679204065219423 11.56650076734853 15.782711368766597
Zr 15.833680581382906 9.797899960408694 11.274235227523631
Zr 13.005367292405879 7.544526333233871 14.162381474383736
Zr 15.40117944460793 12.182585477945816 13.284749229845115
Zr 15.030795490818006 14.040437119684 15.455144449465516
Zr 13.23298160237232 8.196449659092476 11.49551820288521
Zr 16.234543712718935 10.827868782235083 8.758409542093418
Zr 10.917005760790316 11.675152554949936 16.26153093393153
Zr 16.08739376797639 12.906687155384716 10.616703377985038
Zr 15.559561497547064 15.242829010960364 12.910810650477694
Zr 13.79200805267755 9.391399684575013 8.762431204548625
Zr 12.136672963257075 14.295177382373573 16.19249595163865
Zr 11.817480680839878 10.593690312498964 13.307969501054108
Zr 13.325207425851872 11.433324158036285 10.837980450962315
Zr 10.388571341878476 7.982590117440588 13.158463973515202
Zr 13.700860660664464 16.40213033799371 14.931622726244322
Zr 8.987497250567454 10.346684360188187 14.585422932667889
Zr 14.106926256234802 12.45618344813919 8.107326576162357
Zr 13.853842528107613 14.647909481140923 10.429153568394725
Zr 13.27246501074488 16.825236457580917 12.22720379706151
Zr 10.955820534338676 16.18214639023716 14.01393429515453
Zr 12.733896845234614 13.867924798986877 13.258562661809778
Zr 10.944512353929893 9.249672355210189 10.244907324202106
Zr 10.54800700498455 12.60719761641123 11.000364251846783
Zr 9.506302382865798 13.441190523712118 14.681667618609255
Zr 8.629856050851055 9.658273711193113 11.871053470209167
Zr 11.383094620056783 11.097970044174703 8.16131391471159
Zr 11.846954483926389 14.159109300282202 8.452352715608281
Zr 10.992534030068413 15.788745760607258 10.865302749983375
Zr 8.424870831089441 11.114456942036705 9.54480158580668
Zr 7.747231198168774 12.290062887364837 12.339801411493983
Zr 8.827898710314427 14.965388328766812 12.490585936166985
Zr 9.514688109254207 13.128952369683505 7.8495370260733
Zr 8.180432603618312 14.139345506582357 9.972522495925704
