37
Energy = -271.07876963 eV
Zr 11.347875396080175 11.348766644908896 16.948255550832577
Zr 9.939505042234703 10.620675639404414 14.714313767924937
Zr 8.604408709347226 9.471113770278416 12.13853117103568
Zr 10.56097657490119 7.9965032920635775 10.577500000426133
Zr 11.326429416130448 8.456210969611611 13.281665928540498
Zr 13.179309589578612 9.80005713450836 15.179351138289894
Zr 13.207734912706485 7.31350405370626 11.362371652097888
Zr 14.206385587446663 11.862573073360922 16.839101910276106
Zr 9.865174095145784 13.636685409556685 15.623737259674034
Zr 8.224017974718318 12.456840352967395 13.377179519290719
Zr 12.260145065454875 13.992995958790651 17.191088998253917
Zr 7.844932361054716 11.71753425714498 10.545295170947597
Zr 15.247549417819537 8.570728519198253 13.289211486607854
Zr 12.479473576263516 12.619123048322471 14.351499643550685
Zr 10.814652764593369 11.103405396846622 11.494539386726451
Zr 9.741055515737855 10.287193046168275 8.94343551119511
Zr 9.288128394860044 15.735805240123108 13.384650239984632
Zr 7.829557951079056 14.398683308931735 11.20728000792388
Zr 9.764058801079166 16.14616720142738 10.406145736714222
Zr 14.659973986393561 14.397292370235043 15.738396151663848
Zr 13.656732233753251 10.463803923781782 12.039321108225515
Zr 12.672713047228974 9.367473309131302 9.139348851651036
Zr 9.7302607243455 13.396210599437975 9.03296465131219
Zr 10.689512078615707 13.837553787519532 12.0776506912971
Zr 15.418126003147266 11.888797923926903 14.049882761301813
Zr 15.361306191110504 8.494320139813697 10.330728265115003
Zr 12.032461116797752 15.652302585155194 14.839378640239772
Zr 13.228622055193428 13.142337160217194 10.855882411103247
Zr 12.232685760991648 12.159096508133922 8.148868963114946
Zr 16.699173640855538 10.515534482413493 11.665281953354267
Zr 14.48792096905822 14.909918643206195 13.091710146124516
Zr 15.131482515330362 11.135508431823022 9.14610538347736
Zr 12.103109861460121 15.177794955219007 8.896487383915945
Zr 16.164485150790032 13.292588286084987 11.072910126257751
Zr 12.208060270036533 16.44955488058412 11.793772455323014
Zr 14.715615455232044 13.844879138348816 8.389986075330292
Zr 14.62696240050534 15.792033239184638 10.366344712563965
