30
Energy = -219.03597364 eV
Zr 15.249004755121462 10.844005954598982 13.248800109128679
Zr 15.68361448699726 9.819280205577195 10.475122411046591
Zr 14.350858020093721 13.843994061959004 13.415395826387272
Zr 14.926551722571299 12.51511278760503 10.663274161289978
Zr 14.12882059867448 15.192757646649477 10.744873487560534
Zr 14.897713872261296 7.940775667074876 12.405534385924906
Zr 12.559249149585048 11.648603896080706 14.581284364780474
Zr 12.497025225661378 16.179650540276512 12.801534627685593
Zr 13.25824060441563 8.883972333055489 14.380478541721171
Zr 13.76154929586579 7.820316491459029 9.848067057945961
Zr 13.383001625079414 10.577528697978426 8.723453234185415
Zr 12.5312744645827 13.468295829753343 8.849841214620014
Zr 12.847601042272874 10.1668436035081 11.630961554464427
Zr 11.65670296974135 14.366075638429505 14.629782225205382
Zr 11.916079200795131 13.30764286080058 11.772609710851576
Zr 9.657103525002062 15.102390781199377 12.508118296754304
Zr 11.419666337796317 15.920945906383508 10.219680414551055
Zr 11.075166733824737 8.492116387814914 9.426716352528297
Zr 10.493053437593527 11.359436514366891 8.175104662618528
Zr 10.503227767783669 9.509687534873644 13.880322303857211
Zr 11.927191771427308 7.376727606779051 12.160771972870439
Zr 9.521620089117333 13.970648572785088 9.607362564393574
Zr 9.640448883711075 12.433742519098205 14.038795101497474
Zr 9.707780197980517 11.016982237442628 11.03850918541476
Zr 8.444097722822727 9.253342358347327 8.841936852010257
Zr 8.910582512790072 8.193838379347913 11.599620130411603
Zr 7.810292302807394 10.351891232394575 13.345498818071928
Zr 7.664314254058923 11.990267671855046 8.946033343738367
Zr 7.563888880488584 12.930185152758789 11.790740272265095
Zr 6.719542126006077 10.154148369738307 10.852254936488684
