30
Energy = -214.16001777 eV
Zr 9.660760269306103 10.47975640977011 8.29965118881676
Zr 10.575335837267346 13.012694393775433 9.252814661103956
Zr 13.299025893597646 14.376996377598125 8.759231081710357
Zr 13.134419635640853 11.538935854929287 8.632997871502909
Zr 7.757419451693065 12.347770308935303 8.526023084218165
Zr 11.326047769123337 10.200831382604514 10.732020679666702
Zr 15.568541931438237 12.917058880044927 10.46828388275962
Zr 16.849458645042567 10.119647692597415 10.803670351870998
Zr 11.18953279433502 15.640755517790396 10.589395097277643
Zr 12.909518858421677 13.023707012784246 11.273014298737774
Zr 8.309524817356039 14.11901383344105 10.9881380957432
Zr 8.711012314795212 11.284508817261084 11.034131047240626
Zr 14.199400964235696 15.650342902834065 11.093022059587694
Zr 14.214153490790594 9.771577687207442 10.697688890769305
Zr 10.410967283378916 9.985565101994295 13.637285983207956
Zr 12.519863599664724 8.278649130548173 12.604371365156315
Zr 15.291056610937913 8.612493698821579 13.125774368955119
Zr 9.222112379471211 15.734276187306651 12.991400384721754
Zr 12.233230837282074 15.842884002787335 13.267789000006685
Zr 8.212246043576222 12.989100807554935 13.898622059245989
Zr 14.885337725655917 14.11274620399733 13.475894418961508
Zr 16.27159250598952 11.553959490830719 13.074331887675012
Zr 10.679028414337731 13.10807648437733 12.784046733816483
Zr 13.261572520806492 11.128444964965025 13.517836660427928
Zr 11.016253891797577 11.754434699473645 15.742318133165497
Zr 12.826199709637747 9.146876628591885 15.476742708966208
Zr 10.154072341178235 14.674141676379083 15.361841591843314
Zr 12.803021389057662 14.081971006475444 15.448208493629062
Zr 14.055657940238198 11.835898705247153 16.295272768677478
Zr 15.713279467999378 9.936529473129042 15.407826484590771
