38
Energy = -279.23028285 eV
Zr 15.320828612748194 16.214108944529578 13.222282112406711
Zr 15.921397935522279 13.560021682294545 14.38908425879645
Zr 16.482837238744615 14.306355638558328 11.563440757144289
Zr 15.898308080918765 11.484019512186354 12.105371398149408
Zr 14.302581841121622 15.983857006751274 10.360304091563634
Zr 13.372764428901474 14.91386165765377 15.175208878243332
Zr 12.668770766808466 16.85302087857784 12.86842009028002
Zr 15.683566090212889 10.658416407568366 15.040444405612314
Zr 14.218666381477428 12.45324507056577 16.591704989150326
Zr 13.476004055202866 14.018582673246152 12.08033905720311
Zr 14.920509940319343 12.787995635672983 9.608010172236908
Zr 13.163143253035951 11.868264679784268 13.79765051470591
Zr 10.880128302551622 14.549492208030449 13.813669249499712
Zr 11.1704271918279 15.683641298501515 10.72543203467924
Zr 12.191345175845509 13.722229287118854 9.019627924766027
Zr 14.43010071963251 9.131623440434707 12.969423793256302
Zr 12.809803192201565 9.941356521975239 15.790407746157094
Zr 11.453821069386366 12.638367438106958 16.1397707657307
Zr 14.982727933371297 9.587163506476347 9.620653171808131
Zr 12.823212841996794 10.825951404874763 10.855132874059171
Zr 8.652372455963178 15.325354740128075 11.975243228830157
Zr 13.281309262431058 11.270732695523545 7.82577596985773
Zr 8.249155569753873 13.22472866905834 13.937216593588458
Zr 10.181332232681603 12.807661801898066 11.54018926125532
Zr 10.2215818920367 10.869011953285602 14.103416853607133
Zr 9.045131111398769 13.985321184364686 9.156711841390702
Zr 13.219707255014974 7.600112032226083 10.856861123470953
Zr 11.727349499907506 8.252319362508986 13.198948931351342
Zr 10.413133812703478 11.400212838363348 8.055584234244998
Zr 9.993801321829887 10.034788047131041 11.00457372413216
Zr 7.054337759702339 13.17272329638765 11.240557917305228
Zr 12.07862880901494 8.764009887881285 8.497529140607433
Zr 7.4444687465417765 10.681001875227537 12.589497122075045
Zr 7.673144047570131 11.113602965182665 9.398653199426048
Zr 8.984821880028477 8.22614646241933 13.174929517326232
Zr 10.372460244281536 7.177025172353998 10.599948710656866
Zr 9.206806414958393 8.803776358470586 8.365249985642965
Zr 7.575772251912104 8.399330439708644 10.665095310790948
