32
Energy = -231.07856786 eV
Zr 11.787947951141936 16.071172623688536 10.730553404820704
Zr 10.007954850531117 15.889065870637204 13.02710383408067
Zr 9.309078620669089 14.63928886029741 10.137087602191764
Zr 11.805040027648761 14.158761797189959 8.793701653043849
Zr 9.687065875934774 12.51101543412634 7.955645844252112
Zr 13.16519654059707 15.790247060285894 13.167374108402974
Zr 13.97952446049428 14.063444751883756 10.646946245574542
Zr 11.536427707430004 9.976323573601412 7.589879920323353
Zr 11.29806342175845 13.37445651275809 12.357256753734571
Zr 8.129815455999896 13.739349131205488 12.640318336797653
Zr 13.392660643821673 11.898755029676398 8.643031535808758
Zr 14.334250121271795 14.852762786052798 15.636461166008509
Zr 7.85648984684392 11.94706448111985 10.352139904434125
Zr 8.837756200538697 9.868399678428604 8.3695272000956
Zr 14.836523018259834 13.212749402412268 13.223231205704904
Zr 11.518003455636135 15.432345822449808 15.499225526273552
Zr 10.766661318380946 11.016707158337644 10.356469406952327
Zr 8.33296185038445 9.136991754954431 10.977730361953313
Zr 8.836971783722367 10.995673716449824 13.099054993592514
Zr 9.673910278483707 13.280456690027847 14.939559129850185
Zr 12.5813200145757 12.78465236067809 15.32986620801196
Zr 15.529683925574574 11.283920378921602 10.403186744438711
Zr 10.750582330788193 7.989476533304328 9.729417618421644
Zr 16.481619189173568 11.06019632483759 12.963912012138604
Zr 13.665011635198855 9.081240389206167 9.406128972560854
Zr 13.164198809438178 10.662469648593163 12.207763546431124
Zr 10.45505737313021 8.435249605395388 12.706867585704186
Zr 11.231243229215387 10.453195383963891 14.746791600850454
Zr 14.483384055357913 10.493113778954136 14.894311436337905
Zr 12.878134082344227 7.385237867610286 11.518338339335905
Zr 15.27644462272386 8.66271670235191 12.253266620734879
Zr 12.972925275307702 8.193230399422585 14.155182398211545
