36
Energy = -264.24942414 eV
Zr 9.875481249734433 9.175733868254872 15.418197153946673
Zr 10.994517982569077 11.917135895056353 15.624085430271565
Zr 8.110647587090897 11.20180258045863 14.317034855954914
Zr 9.580179980396213 13.907037026911036 13.721750557367667
Zr 12.798467146363015 9.266258174043415 15.441384741263805
Zr 11.984877534946229 14.721965333323762 15.291389151895947
Zr 11.150298766793034 7.319031911698 13.667580087104971
Zr 14.039150462190973 12.51759281542587 15.26796240201126
Zr 8.566972103079328 8.597941521585465 12.79512149797002
Zr 14.86013270220215 10.297535720689424 13.64958607666531
Zr 7.088873694345131 13.26583505398568 12.247894016156387
Zr 9.46275827526378 11.505832998931265 11.612541100826824
Zr 6.588962744224952 10.57517843255607 11.80552460714593
Zr 12.37456564004237 13.02134602194444 12.982924145210205
Zr 13.750269556512672 8.02393625860858 12.662039160768998
Zr 11.70505623632463 15.97056314170158 12.569647401491501
Zr 11.45066622222773 10.204976950251176 13.113533797494513
Zr 14.3468163562245 15.1049742370599 13.796286527335731
Zr 14.166643533464281 15.370924504478575 10.89091650512705
Zr 7.610760087473028 12.240314714099476 9.519640018684775
Zr 15.341289072041288 12.70622270564177 12.321221687507224
Zr 12.053453587235085 13.28277756725586 10.242416390976013
Zr 14.971988040909325 12.623835559279565 9.426584185824371
Zr 13.05211146734115 10.478512547681875 10.540969318366566
Zr 15.80132575476933 9.679742946852125 10.943707295380548
Zr 8.2286378816021 9.32431664484713 9.854113069464562
Zr 11.515061475159419 16.163699423411487 9.662241137465516
Zr 10.920004225763208 8.300574955707262 10.75896211631442
Zr 10.309107999182709 11.048346629908036 8.746825187148428
Zr 9.287861201855096 14.586124385594927 10.783553839899868
Zr 13.853010842795761 7.621565390966828 9.82142350968736
Zr 12.76092847856031 11.850063759798175 7.624112106820396
Zr 13.366432754333026 14.75694817310634 8.053178774461303
Zr 14.879250871942507 9.803430535908646 8.219569163415256
Zr 10.431531915151075 14.03992620630612 7.972258423373559
Zr 12.168183583306169 8.86511631836018 7.957288415541336
