39
Energy = -285.39709408 eV
Zr 16.443938924035706 8.630330950954994 10.025168157114821
Zr 15.420831492989215 8.921381703780012 12.844993954524229
Zr 16.8220677829868 11.08541968704757 10.958591693458406
Zr 16.418286541234124 11.58987361350465 14.06648627203444
Zr 17.056479233444577 13.999574716238449 12.133097390917204
Zr 17.46499609418549 14.054585208639415 15.013676807591919
Zr 16.613850092954458 16.499281860002863 13.81956968985404
Zr 14.761981385548612 10.95343407930314 8.775900147817161
Zr 13.773305175329986 8.849878862087442 10.50508262483742
Zr 15.288502872845555 13.744318824861217 9.743890316177437
Zr 14.255813897374608 10.194360440414465 15.452379635982838
Zr 14.19827616966806 11.668055510861745 11.922859594885674
Zr 15.561111190286253 15.770003924520521 16.340972928536925
Zr 14.965797476159128 16.310935129795713 11.544280084134359
Zr 15.26617894239909 12.840831283771326 16.643716364738253
Zr 14.626538767488931 14.225116497054001 13.827158249531665
Zr 12.236766128526773 9.506442204086522 12.81489668579002
Zr 12.62700837625229 13.349621430280383 8.401935281331303
Zr 11.935711433668983 10.95487932809488 10.012617240161864
Zr 13.705716369301664 16.981105569827204 14.286589122433218
Zr 12.38121465882013 14.120980980816592 11.377904777590997
Zr 9.02279967860688 10.22131718540352 10.946309966020685
Zr 13.532362783814348 15.987865009605745 9.180148600556933
Zr 12.637248433937225 12.467772396146538 14.594316135717566
Zr 12.911361200195143 14.850726663489954 16.51770732439722
Zr 10.799495759180585 15.64217450855339 9.206443808032592
Zr 10.240159863755721 12.119934370513695 12.853807526302692
Zr 12.649071050886576 11.896737745604726 17.45671042261691
Zr 11.972516940748516 17.00356856155739 11.580724529442826
Zr 9.869491110935265 12.926487952624692 9.755258534465048
Zr 11.307482648368625 9.990476736229075 15.69194774499339
Zr 9.452162561041579 9.157199639844746 13.632607205912135
Zr 11.074255203334058 15.20782488675318 14.129216435242363
Zr 9.476621816055143 15.098147362590415 11.794311933633418
Zr 10.312024891484388 13.358109735673295 16.33286373661297
Zr 8.164660678648783 13.780139534584572 14.257823149256968
Zr 7.578390418516981 12.916466718134972 11.402242760574323
Zr 7.344721068147472 10.994341724904052 13.264211456314927
Zr 8.682104931930386 11.134282232669767 15.632484120198544
