39
Energy = -285.79472866 eV
Zr 10.734310652824941 9.203361587454642 7.568762580121326
Zr 13.515042581639467 10.246144664085026 7.958120110486342
Zr 10.974173711451932 12.192977403801793 7.961357033578899
Zr 8.591242606982192 10.43768420703349 9.053860607322166
Zr 12.402490047066904 7.588741545074611 9.245864295062788
Zr 11.842193507029668 15.614883294913364 9.816089042454209
Zr 13.565329140434804 13.145982001082851 8.676587330434657
Zr 11.57165003517319 10.317678724173717 10.157130781856804
Zr 9.717462128391361 7.989072641938593 10.140559269639004
Zr 14.805166177939277 8.667352265936488 10.19200527748999
Zr 8.886238485439607 12.974517922514996 10.152748775681241
Zr 13.997162711282424 17.127588317444125 11.342536162103105
Zr 14.579816725016038 14.166591126776964 11.186996862969645
Zr 6.985007867245494 11.505048153829566 11.792585254990025
Zr 11.216447277355696 17.78863957560432 11.81685403728865
Zr 11.957226849643776 8.268861047252944 12.325008673908394
Zr 9.448765263161894 15.702719778508985 11.547853184767536
Zr 11.643639523408453 13.069451875153133 11.055019975458618
Zr 15.731391909494079 11.533089630963188 9.792338292173833
Zr 9.359939025801305 10.343846424648385 12.094807190527604
Zr 13.984091951449162 10.99417818951502 12.110713248078131
Zr 16.697682993582976 9.805115764349486 12.056877036208393
Zr 12.178503895555364 15.127676661343882 12.955678105169147
Zr 10.025498795781079 8.727011919840468 14.575885996262405
Zr 14.749584144568463 8.111975137745686 13.122973954851975
Zr 9.103216050601112 13.41268089912284 13.08339673865281
Zr 16.500658588138247 12.574394178946692 12.703560266566853
Zr 12.958789266511308 17.896778362028446 13.989198713373066
Zr 15.110913407940439 15.978834224506942 13.684432373931044
Zr 8.6947258303338 11.280684919546966 14.89066001511315
Zr 11.59603398865823 11.273615717285882 13.8341772179758
Zr 10.275018401834567 16.512470755431814 14.466075655753047
Zr 14.209745343374898 13.33341515765017 14.355733687444342
Zr 12.955456680758763 8.958300374763832 15.295999949296005
Zr 15.49581005965776 10.51763835307214 14.707868026381199
Zr 10.980583772212494 13.544149201604663 15.572665464054166
Zr 10.836017619014827 10.618852025058677 16.6610900942511
Zr 13.007746169508764 15.702872611444652 15.803983568959255
Zr 13.306257776693444 11.733053918853681 16.427195926502648
