37
Energy = -270.95666718 eV
Zr 16.400143349170154 12.041823417980048 11.260457254735595
Zr 16.00999888965046 15.199734973352239 11.407028327404422
Zr 16.01513862663979 13.705825339630557 13.706987345935783
Zr 16.05642712776582 10.974696064395875 14.032281866167926
Zr 15.148441454115655 13.79578853861376 8.927034066017635
Zr 13.662193206850924 15.659323153834283 13.420708468169224
Zr 13.82574872298981 9.324080293527523 14.938853791310455
Zr 12.447082789082994 10.716981769981905 17.08209938662009
Zr 13.66667332444908 13.53863880490291 11.701710779894514
Zr 13.547428881855621 16.215276428334697 10.169681052121803
Zr 15.313597675019139 9.041308662778516 11.825793636921432
Zr 14.227183050095265 10.943524432277432 9.467308677204523
Zr 13.650161004537239 12.671338774358578 15.09298918033248
Zr 13.084286942401654 15.097197984567968 7.389251080636458
Zr 13.208510596175215 12.320122116984615 7.20322980998902
Zr 13.532585616067797 10.924642525862588 12.520173968901316
Zr 12.209857933027376 8.103952607951578 12.850830566610435
Zr 12.77085767436067 8.566273423680576 10.173514314412461
Zr 10.967961169098071 13.17665920795273 16.38390344324898
Zr 10.486986791245247 13.607325239694903 7.102841658354399
Zr 10.95358008252591 10.711254653788368 14.48519711302809
Zr 11.200324645596618 13.69126663879909 13.55173529964021
Zr 10.979993186553127 16.247568202960828 8.63018508405593
Zr 10.858878587040541 8.319375764890772 16.021211398427877
Zr 11.646361216538278 13.427192185330794 9.676872450531489
Zr 11.356093880044314 10.441512509600253 8.436038274779103
Zr 9.570962132920732 10.845651024727719 17.163280013588544
Zr 9.748782218340855 8.674246714986054 10.484698942170242
Zr 10.985399842416292 10.940439144532318 11.478795844551069
Zr 10.95800707677887 15.84256461465454 11.543955021530342
Zr 9.45832703252968 8.059836545471644 13.329848866564593
Zr 8.525990134672238 12.499208369703775 14.791533970120712
Zr 8.862018117178993 14.746627310789469 9.36734283230246
Zr 8.994122968681477 11.695422499510164 9.474732872500896
Zr 8.160775237811007 9.544276534880776 15.203498108108567
Zr 9.017978509471671 13.388451366933962 11.797984560621927
Zr 8.057000300917611 10.48130464900615 12.427001711787664
