37
Energy = -269.11067625 eV
Zr 15.870985784940148 12.65046836593632 9.33360014744603
Zr 13.869853817401813 14.81377027294177 11.12359297520159
Zr 16.63703903393822 14.18005418677963 12.348297216404065
Zr 14.640011150641273 16.024415585257188 13.716558410112151
Zr 16.488904242203834 14.546897812938669 15.304560249124124
Zr 17.23903714721714 12.088535472870559 14.332822404810791
Zr 11.475076876653695 16.539920197491085 11.785564290303547
Zr 13.830395726812828 14.813142044396828 16.344475610196714
Zr 11.916697636173822 14.830709630075454 14.128738654786853
Zr 16.21387128319621 11.151890871182227 11.843428258378148
Zr 15.285378185422072 9.727620603858037 9.472754312098202
Zr 13.617963195759524 13.810739643373761 8.186373481564763
Zr 11.310929308081297 15.004829864885869 9.077453795431408
Zr 9.108549063143839 16.264046135329195 10.381171758321988
Zr 13.329581744142988 11.843191124863955 10.591979138895153
Zr 15.23238920828083 12.121204706628353 16.534725206653146
Zr 14.318278458378838 12.979327399230804 13.81809754199135
Zr 11.007131686727316 13.52899818741032 11.638272146941267
Zr 9.019358824092519 15.214759982334781 13.1734160823057
Zr 15.352512538572313 9.844384064988388 14.434398172263517
Zr 8.73381782359027 13.387919285790709 9.58991964383022
Zr 12.055081922310542 12.511277858210894 16.39504537400459
Zr 11.19347472987514 12.00645638030987 8.361063930354636
Zr 13.837007010002349 11.077791051203924 7.631755833826779
Zr 14.056032158445962 8.831923132852483 11.891316699210474
Zr 10.337473887218398 14.926826075471606 16.40100746265044
Zr 12.13749778715052 10.879390552194117 13.443618400813815
Zr 6.854889940213034 15.059583268470194 11.10676767300372
Zr 9.755121538744108 12.615966388038176 14.51734184985298
Zr 9.972709099007547 10.76038019934034 10.812426546848437
Zr 13.239508266469615 9.991586457163192 16.44661072843701
Zr 12.254194587352275 9.299518148870495 9.509080133617958
Zr 7.863282104017887 12.509026119907636 12.17388668106341
Zr 13.000778950699187 8.07038451479259 14.483679115270627
Zr 10.577539967568592 9.471959913622362 15.463443373372915
Zr 11.011011456632588 8.319055316536245 12.463104869269138
Zr 8.932637800648031 10.021510294912426 13.34197799446124
