30
Energy = -218.18783359 eV
Zr 13.209903842893022 10.32543279648273 16.444137182402777
Zr 14.82900936293847 9.950354008670345 14.218312446550653
Zr 12.370226779624144 8.013443728913828 14.651511460324544
Zr 13.951210653468104 12.682683094031201 14.806670868571043
Zr 10.444856450552027 9.759455193706367 16.194963448329787
Zr 11.361008176287518 12.542993065001367 16.081651387634995
Zr 13.941269971672382 8.56942522224757 11.863156984206709
Zr 14.432352984843984 11.824675525796888 12.008878239294216
Zr 11.893829416004607 10.684211594095844 13.726741773501168
Zr 11.412764274872387 7.430818171803616 11.940983689311867
Zr 13.596877776350809 14.579780474703517 11.808762549481115
Zr 11.221027112960426 13.585509524086753 13.339447447606103
Zr 14.231584122301415 13.174831785285697 9.172469130912058
Zr 9.066974766643263 11.708314682737967 14.572797765620082
Zr 14.464238937899134 10.234489120789023 9.54375848301476
Zr 12.748028915588122 15.829769537758205 9.413275111058063
Zr 10.973511844964468 15.861853622828658 11.611111827939556
Zr 11.69223219592696 10.415232659526374 10.803787287135167
Zr 9.461773830765864 8.800821630557673 13.626065502024595
Zr 11.294189884941753 13.198899045712102 10.097793614699508
Zr 12.121818906658199 8.341444662553435 9.161702317986885
Zr 12.439342417128604 11.163306771762853 7.6834218398532155
Zr 8.968487834844662 11.21635781419884 11.800679953232871
Zr 12.241316647427205 14.16899346173673 7.283711161042066
Zr 8.740304114428685 14.217549266102875 11.634089181647294
Zr 9.268387133700575 8.493036399094182 10.53273548555462
Zr 9.77084100011495 15.284318926072542 8.83721231098496
Zr 9.754358094710764 10.24757318758748 8.431163102204103
Zr 9.939609466369735 12.768427193205685 7.205216673203419
Zr 8.202240623381902 12.673565253756655 9.379888493426744
