34
Energy = -249.5425947 eV
Zr 12.71907013038622 9.598029118046009 7.537371626005882
Zr 10.930447724228292 11.750151785821924 8.271043812236117
Zr 14.351420621275496 11.257111643301203 9.517474015540756
Zr 13.208900600028432 13.568240842178687 7.864499052142393
Zr 11.967618476809902 7.058550784985232 8.73264565504184
Zr 14.338474215193708 8.312346393766664 9.579320648705409
Zr 9.846128581270383 9.009245904672385 8.157143880304417
Zr 8.099573377419519 12.294022726552893 8.90509539743544
Zr 15.071605712441038 14.201052387572878 10.031552645692265
Zr 10.332218704792067 14.486461379849585 8.685296699235195
Zr 11.741469931166236 9.72641319834872 10.453454844018639
Zr 12.423112873345032 13.227044291214085 10.724448053394495
Zr 14.408651607640511 9.493604768098963 12.22961181782483
Zr 12.862151949848554 15.995732277629095 9.42334574571535
Zr 12.57793806736665 7.130474182809241 11.662780398525845
Zr 9.8335245424306 7.283570721276348 10.516312899064006
Zr 9.906348728409105 12.620632897817474 11.238484245396515
Zr 13.617821412493832 15.541512336778926 12.195111918549157
Zr 8.551607078922839 9.898702409066855 10.780893215872034
Zr 10.366993083004857 9.69661585019175 15.739590494844867
Zr 12.88782130740445 8.518576473783975 14.676434790635593
Zr 14.693333694724352 12.700235104200921 12.654330023897217
Zr 14.873630884836677 10.72505744372944 14.815931235835393
Zr 7.032261202275743 12.35122967787583 11.648793074493636
Zr 10.593994341396957 15.737098862179026 11.41892655748422
Zr 12.066717926537669 11.185018483109245 13.618566834647561
Zr 7.885569123066582 14.813806339758683 10.428268179548402
Zr 11.431653454434164 14.207433803714183 13.640569671965821
Zr 8.509868027451663 14.31096506638129 13.259249973186135
Zr 8.863404120404223 11.306574300180053 13.8117682802258
Zr 13.51697603337266 13.234365554098163 15.40863464532678
Zr 10.295166774437067 8.550342781488736 13.081052654694856
Zr 12.784714412804592 10.726445195549644 16.69179573687957
Zr 10.644040874324032 12.588419648687664 15.951094737539131
