38
Energy = -277.07533405 eV
Zr 12.25449796909894 17.352848878692942 10.826728240566716
Zr 14.70809628074369 17.135246188841215 12.77026642031573
Zr 11.742420640365157 17.16602027556201 13.495344310640787
Zr 16.192048020751084 14.885912704844298 11.331521249989203
Zr 13.49082035662422 15.608920946957815 15.187125598954504
Zr 10.087273250912325 15.14044949896393 11.47804762316883
Zr 14.6368284122371 16.259180391757518 9.840695259611772
Zr 12.153873583629963 14.885681832367979 9.138171364686789
Zr 10.764312940494207 14.733234509498116 14.610982553997866
Zr 9.636412223872396 14.014251311313364 8.471993488836663
Zr 13.089803947155842 14.814752149852572 12.13793417320381
Zr 11.881522468900396 12.59222151256571 16.48086051181238
Zr 13.608552394169813 12.74614072421178 13.989052756260946
Zr 8.122277563061784 13.398148837385799 13.21270565395967
Zr 15.916115061231324 14.598196486632421 14.088797570498658
Zr 13.895512126910297 12.692298068157273 10.124765656817528
Zr 10.7707401512294 11.916715185279099 13.748756253627986
Zr 12.971443412563458 10.037914600950378 15.216957765903926
Zr 9.022560821759937 12.766022952955456 15.989961530980848
Zr 16.08880653847507 12.193203555411385 12.098094469429281
Zr 15.820048750137788 10.900837304892757 14.609448608393466
Zr 10.799874560249506 12.20621409690497 10.719788877531277
Zr 8.018374215781472 10.6384983352701 14.347287806965193
Zr 15.224232260462928 8.09852719938635 14.152817572768738
Zr 11.911706102817634 12.227182476355216 7.879132843463395
Zr 13.556138943369708 10.135448831467107 12.312412620670308
Zr 10.193834865484073 10.077041111116856 16.035922901037992
Zr 15.30413035181235 10.243472494897901 9.791304077444817
Zr 7.8681040947456875 13.24083506401152 10.295916169475477
Zr 16.63380234478009 9.39024237859338 12.169462981495068
Zr 12.363596767299793 9.79044849128653 9.499796610333853
Zr 9.213673518330209 11.118541686456267 8.522079361050354
Zr 8.054196207782418 10.77974857942506 11.496141106594497
Zr 10.399905103154728 9.154621144769044 12.956041751407657
Zr 14.570239008415957 7.554407036738405 11.214505146093037
Zr 12.700821119849639 7.3750114763320465 13.684694430565914
Zr 11.744027266083984 7.319723082167336 11.144012473493019
Zr 9.670142556552145 8.849699333421773 10.14475471704639
