38
Energy = -277.19944574 eV
Zr 11.05971590062353 10.389806530770073 17.22583653656112
Zr 12.575373698612907 12.759214262239883 16.205945409492802
Zr 13.555694306751302 10.102049345183028 15.821330934775146
Zr 12.401461665183398 15.367668910216821 15.055101923976492
Zr 9.439059670872517 12.752542173949154 16.24136956174331
Zr 11.159450189986437 8.166227218545307 15.154669949198025
Zr 8.650636773172108 9.775727028961372 15.87568827036273
Zr 14.806233578191065 14.088331551116397 14.248527009909845
Zr 13.294621805514598 11.83085033111199 13.285092898491877
Zr 10.863116480603312 10.919037220680703 14.328397899786092
Zr 10.195344793800752 13.719686242805416 13.47885784833208
Zr 13.827081459621638 16.591546628538925 12.687556531908719
Zr 14.195249580571215 8.619166919393091 13.412149788278567
Zr 16.13921101800483 10.977825571196181 12.997520233722781
Zr 7.869841263970783 15.020887520262065 13.907202126715761
Zr 12.35203176821397 14.367217988723386 11.977394217606827
Zr 10.859137914638067 16.886256019636114 13.423228060235523
Zr 7.8953182105506015 11.850768484074822 13.85493545648677
Zr 8.947703030246872 8.997287522698509 13.117861562362627
Zr 8.999179740469005 16.07011218976358 11.455363599982984
Zr 11.587674446498637 8.818587131268455 12.105321791745055
Zr 15.23169164767007 13.475307965767923 11.333044377311847
Zr 16.26386663073547 8.595809666014372 11.0968937485297
Zr 13.990273007395276 10.382839393321609 11.028156144051719
Zr 7.994006416720669 13.435714760107484 11.348418036441293
Zr 10.194232650916579 11.323124712366502 11.25101654371996
Zr 16.738410369192376 11.174068444557934 10.070037593609324
Zr 11.607340452458534 16.975245815287934 10.619133218549367
Zr 13.696094120379378 7.508955276702497 10.533081899375615
Zr 12.513175330913244 12.263881436666743 9.696416411369777
Zr 10.394477847278829 14.31691123596355 9.559157728581226
Zr 13.504919912185235 15.131820241679756 9.40881652716538
Zr 11.67397109454086 9.143973990189439 9.068556565888118
Zr 14.84370905433687 9.399108281409031 8.428663675329341
Zr 14.977953312088598 12.51192854393333 8.150744491717406
Zr 10.16863765481884 11.613349101385664 8.09881681411226
Zr 12.183148104558711 13.617707135332896 7.1724447765036325
Zr 12.768244338978711 10.851366622247642 6.998061450043157
