34
Energy = -247.9959982 eV
Zr 11.029612615892603 17.319790000160122 15.484783071178548
Zr 13.6113389609423 15.939500909114775 15.49678797368513
Zr 10.329636026594136 16.638196401454522 12.8330634623416
Zr 17.08888465869828 13.783012079857372 18.975681359912993
Zr 16.169162332506318 15.826969685508079 13.403498477837777
Zr 11.873930019865492 17.049007637454398 10.584577620990412
Zr 13.870114569226532 10.537416412583624 14.95500800409988
Zr 11.943836800119884 12.02850403879024 13.300083828342546
Zr 11.269658790926972 15.087677583960028 17.330885852584046
Zr 18.306610443002388 16.865351703245675 15.22878549971609
Zr 15.49963423335823 18.46949480288826 13.951882284841709
Zr 13.139028876559262 17.20127281174674 18.062070622283198
Zr 10.59668784946901 14.362324192725469 14.53930833597014
Zr 15.20291447211269 11.798634185902825 17.264927135909904
Zr 13.127791308089865 15.085874427851754 12.575706762597635
Zr 15.714733358549136 14.066885811571204 11.178904205894327
Zr 10.759000836597654 14.207397631223554 11.24866184763061
Zr 13.384065824934519 19.01591805268035 15.793920034301653
Zr 18.211167214461682 13.904788513484311 14.150671846414463
Zr 12.742775502935974 18.36051601893429 13.016963598684036
Zr 16.335389088297518 14.845632698709705 16.468645718506945
Zr 19.334793475430043 14.58158008750929 16.82586552754514
Zr 15.572254381107344 16.31244427416064 19.19880544696306
Zr 16.65605957237792 11.015140735857416 14.685620014178168
Zr 15.951553981634868 18.110770052079115 16.838606982153276
Zr 13.377335654831409 14.98932891740851 9.559057456757525
Zr 14.674040585803827 11.157147655940838 12.306231744827294
Zr 13.114758475651819 12.54761469702997 10.690815506395996
Zr 12.479877228047528 12.739938038991573 16.222454433784197
Zr 18.017364230044663 12.207375562607039 16.649831218430794
Zr 14.965662363543073 13.296648531179338 14.24208492893896
Zr 13.843622434739961 14.152614544809396 18.488959020669956
Zr 14.794735710706409 17.145161105736268 11.019784000320891
Zr 18.10902388916159 16.646064317842995 18.172601350587243
