30
Energy = -214.787668 eV
Zr 13.257268499231584 13.217307415819041 15.595553677182158
Zr 7.643568959362904 10.847593442853901 13.964485631820693
Zr 11.762294369793597 9.902178392321469 11.56235772530289
Zr 11.680613254086428 13.333550521379554 12.96235909989169
Zr 11.428611021836442 11.257326032600917 7.324977336239026
Zr 12.037606117330265 12.239022290375688 10.166434477018136
Zr 13.904398296182952 10.279750032236777 8.770897682166938
Zr 12.864964380973653 15.013090283468387 10.597094054548457
Zr 13.241108639439695 8.104840059558096 13.346533583043062
Zr 14.866200196858292 10.226134167746121 11.729499839613192
Zr 13.540785835884067 13.276091422135293 7.946639014475104
Zr 10.935260645357637 14.989740431792193 15.350999309493083
Zr 12.641025373388786 10.720597636440505 14.342557904907643
Zr 11.208358400744102 8.68583905292103 8.868908902102667
Zr 13.648597849124297 7.846164145167227 10.448038345624516
Zr 8.83291851614857 9.565921137641373 7.79127870489081
Zr 10.183731992243757 11.932378722997269 15.294197078970269
Zr 8.83598559095468 9.076932039859114 11.04820829133321
Zr 9.084233141418997 11.643053461728602 9.344869914360011
Zr 11.003038308701326 7.150178304094574 11.487552409319232
Zr 10.816671528877768 16.162042660478882 12.695291913086413
Zr 10.77806999504914 13.996292329771245 8.208011133690317
Zr 10.120584564917744 9.008789062035502 13.846288065778625
Zr 15.312084751898825 10.628660834175795 14.6024969204448
Zr 15.042840976112826 12.731991226607535 10.149448682816425
Zr 8.778412022760111 14.088407615529478 13.725503528555784
Zr 14.71664979343997 13.024550525558773 13.007844769100764
Zr 9.708230916694806 14.501225933131442 10.756023671842005
Zr 9.382525253048406 11.669404601044484 12.232354655782137
Zr 13.39711045617551 15.576415885306494 13.80652680639164
