37
Energy = -270.43053555 eV
Zr 11.816901851387547 16.17620058209002 11.641747262943023
Zr 8.907688113985055 16.034351977763034 12.651975402398444
Zr 12.253596157823315 15.1708810208196 14.280312286100163
Zr 13.296974436303747 15.879367989789497 9.13408623999795
Zr 14.5311972440168 15.034487946845307 11.841202657842551
Zr 9.89898145226029 14.923127778336195 9.900128798652036
Zr 9.540755466042796 14.652012903686416 15.408726065519552
Zr 15.393026963774767 13.845708913691332 9.191994623906776
Zr 7.557849278334649 13.816313327252352 10.98356696585375
Zr 10.01234663433966 13.503467900157123 12.670746674504725
Zr 12.428894141488492 13.516887389503712 10.262846090203789
Zr 7.218475922825816 13.921948789308846 13.810372996214918
Zr 10.848042762550705 12.17687766681144 7.845900541861866
Zr 15.531975002208764 12.105957315139932 11.371033944980542
Zr 11.56517107827928 12.653500445416038 15.845579581142772
Zr 12.876245147766925 12.511046962195227 12.950595399783227
Zr 13.550861658896892 13.172585951040547 7.256755850084715
Zr 14.60541771339008 12.994615450547967 14.84546244521342
Zr 9.894548989044576 11.597436874492272 10.44925264184437
Zr 13.179933935548084 11.072485388470232 9.459647656871907
Zr 12.517750301491937 9.847560062723144 11.965821505898315
Zr 7.517814383415494 11.258824270339739 12.521107894388946
Zr 15.415040266720466 10.331103722387772 13.487944143584421
Zr 8.373432262380014 11.822939291848652 15.465344373652153
Zr 12.897986992402801 10.374523930737283 6.661838558137502
Zr 10.371578322341481 10.80478490030885 13.586120010349438
Zr 15.603419936261243 10.910546437173934 8.189997411744061
Zr 13.139189437222097 10.120719530765921 15.172656277907674
Zr 15.351446582741856 8.985273578078381 10.786362357807645
Zr 10.918846125728528 9.199348500180703 8.609488359674469
Zr 10.367775526299859 9.736397654516802 16.267524724860127
Zr 9.590008790113558 8.80189286741015 11.565932081096816
Zr 13.85144419664308 8.376121660863598 8.379946085463839
Zr 8.324921020855818 8.976357732627726 14.313033064240178
Zr 12.519642411051008 7.411599741122417 10.703390586172246
Zr 14.104273421217796 7.831148138908341 13.292693930464976
Zr 11.142449897133131 7.90686155371412 13.871700059877199
