31
Energy = -224.31124947 eV
Zr 10.554680620776558 15.918936708036105 12.121454250925154
Zr 12.623627742543016 14.740974875122976 7.635474887362762
Zr 12.871085021606593 13.699604786548198 15.774702623289938
Zr 16.437441282704135 12.2959800190165 11.277899018323824
Zr 12.804496426551875 11.793664714570454 8.07788593488293
Zr 10.497544343079044 15.782207149094607 9.206665613658423
Zr 11.49577885678674 13.065719653633836 13.06573734780076
Zr 14.948606762522155 13.857023198552861 8.98891026059617
Zr 15.20276302760477 14.721585320954103 11.64571614549992
Zr 9.042244651863285 13.71722610488509 10.671043718300494
Zr 10.27603817292804 13.185221998279026 8.029252986952649
Zr 13.290226643915256 16.26420549286394 10.141521236409368
Zr 14.06118554640409 11.19109401692441 10.834481046170644
Zr 10.414797621471374 11.019132979543645 9.944814228070822
Zr 10.617109023994578 15.05913970754125 15.025210693690118
Zr 12.421326607188789 9.133623567659061 9.783711416457145
Zr 12.229979495129154 13.615967209714258 10.442810740132025
Zr 13.123032882928142 15.583604203487301 13.426128701751166
Zr 13.382907003498206 7.710073784550584 11.970614864820936
Zr 10.25848353465105 8.305369221516205 11.508292303852258
Zr 8.641087967405758 13.920939896798753 13.53718927519175
Zr 15.176306228763718 9.961190048661438 13.302922520833517
Zr 10.2489059627632 11.913946989228561 15.441067882191902
Zr 12.013632883489175 10.113593319976863 13.072763531125393
Zr 14.690397168899718 12.771086090058272 13.677700673822276
Zr 13.449700939970693 10.965455374728194 15.726647863874033
Zr 8.916327191900548 11.259185692428211 12.448407156271063
Zr 11.234834388899513 7.190916790378667 13.966219162503688
Zr 11.317297788440534 9.133240379786121 16.08430927004167
Zr 13.70890563004278 8.159771277374366 14.844457060640394
Zr 9.245470155714456 9.258970740355876 14.21863461070139
