39
Energy = -286.9724605 eV
Zr 11.24858220775555 14.236795605119088 7.541817621149828
Zr 13.52700960430255 12.328673866303866 7.332486938592863
Zr 10.782917089239016 11.543481326445294 6.738259852053527
Zr 15.948948382266954 13.231134832614766 8.501349906418817
Zr 13.644832093437573 14.993890561903328 8.930314875833233
Zr 8.770792613721014 12.93899977195262 8.304468177013623
Zr 12.415957204015053 9.658393586516068 8.190287242390026
Zr 15.201084602400256 10.420335891321553 9.06499031695465
Zr 15.917512625482553 14.855105201661033 10.849052452103496
Zr 10.944857258394016 15.071371131667155 10.316893517218759
Zr 16.97201979784909 12.170630201721767 10.91885612503093
Zr 11.190930893532771 12.03276812815839 9.717596558086846
Zr 9.28179809621235 9.839889804271357 8.593531875320297
Zr 13.232627149378459 15.237394190461307 12.037796617760543
Zr 13.957941512124954 12.531689027639276 10.766237268781133
Zr 7.526824553608706 11.37032531434472 10.235096600975886
Zr 13.014886090740656 9.481406967013422 11.279201522858294
Zr 8.517908969655602 13.884750759630068 11.25387537111115
Zr 10.884642143727813 8.118715607513655 10.233892359801235
Zr 10.972172728744585 13.244231691176566 13.082298466298282
Zr 15.463112365737413 10.102609980781741 12.116753866174784
Zr 8.169120697440068 8.717384078518966 11.388180657259378
Zr 10.400564890251081 15.966467942727816 13.229548224799675
Zr 15.425200061884716 13.364127699130249 13.335947767666703
Zr 10.168106943924467 10.553808660720328 12.200163684924336
Zr 8.138137154703163 14.15123592287465 14.02518062747356
Zr 7.38954752541245 11.513928360306636 12.988029512716855
Zr 10.728271623178818 7.777596496651293 13.029180622331683
Zr 13.746559585198181 8.524876608848585 14.145389531312063
Zr 13.18011741524289 11.454594073775485 13.861714455562057
Zr 10.194891537147148 14.601982988184647 15.763084513499834
Zr 15.94369567465768 10.679710830271482 14.809328533254575
Zr 12.957731122400785 14.802247562896682 14.948768486292217
Zr 8.511673633392466 9.14353302942775 14.28971835341042
Zr 9.143754637797388 11.7711635191021 15.41986413752147
Zr 14.695937348284405 12.838721836304266 16.1742795081463
Zr 11.18391080586009 9.556167965763297 15.405080615273405
Zr 13.770833094238117 10.171029421930697 16.582604151608813
Zr 11.851241768328572 12.426771125259616 16.57213691715744
