32
Energy = -231.67075685 eV
Zr 7.214895752052147 10.839516499722293 13.768094587805491
Zr 8.993886018996792 7.377668084599517 9.695670094572755
Zr 7.731441590671392 9.839838942340837 9.076025111279955
Zr 7.583750779574726 8.827325223266582 11.931634605486314
Zr 7.42681483806722 13.606036957978146 13.486789677985893
Zr 7.323078334364764 11.883337148048366 10.969090615489463
Zr 9.004535502728034 12.142536417044786 15.465944676252768
Zr 12.00217179551807 7.741716605705093 9.854759339857038
Zr 10.07116472160079 9.846657439331493 10.945031722120119
Zr 10.419985654801755 9.558460522345227 7.976601545915596
Zr 10.237923881826172 7.308133647441844 12.309072856172572
Zr 11.688221732526905 11.9244455008616 15.210632215107097
Zr 8.795294199230058 14.489257459254805 11.261555452275363
Zr 9.964157536390358 12.070829401881788 12.620376404263515
Zr 9.765232358500855 9.401130655586213 14.282022326452072
Zr 10.133649053923927 14.611127634778848 14.105602060363589
Zr 12.631304102831647 9.375598995260264 12.618323311029728
Zr 12.992601327772794 12.5567351541406 11.842251946382929
Zr 11.454176306923506 15.250372296922786 11.558178169355989
Zr 10.122795894912521 12.503151998255777 9.361092494950993
Zr 12.587157779700544 10.683219082197523 9.816347859027987
Zr 12.313409437446213 11.813958972469282 7.17522446129783
Zr 14.780759144661536 8.648345581327149 9.826885711239747
Zr 14.253329787585935 11.352446873073918 14.292460743895461
Zr 13.372597113901733 9.128312685321262 7.41578623049887
Zr 13.136628225082339 14.286639175660925 14.223892663782225
Zr 15.484104718898122 10.691672631634422 11.631890224043858
Zr 14.15946008787818 15.311720321104664 11.55330906805218
Zr 13.094457913810796 13.938783971027679 9.013982709026598
Zr 15.044095855371282 11.378172451501598 8.523458290055444
Zr 15.704466260388852 13.36523260070444 13.089344866865119
Zr 15.712817036991641 13.362960663296928 10.301419910530221
