36
Energy = -263.65701698 eV
Zr 11.990695608784488 11.736988103864205 16.203322798889992
Zr 11.285085919990443 8.830976341227364 15.895401785666083
Zr 13.009073960038378 14.508150353594239 15.570422533186024
Zr 9.464616486454112 11.020066811208864 15.088568527522975
Zr 10.111441754999186 14.729325745581562 15.28053476047961
Zr 15.182799172435416 14.991108767899282 13.678550080749858
Zr 14.004151144133216 9.566978826112832 15.468535064675168
Zr 11.855337961744953 10.311720844097966 13.243757604521955
Zr 14.596362979350923 12.279058046661723 14.93640009684648
Zr 12.892725924611272 7.57283419583912 13.886071021716646
Zr 11.262015411393593 13.1455874897012 13.49735365318266
Zr 12.199663891893186 16.05001500902738 13.234778612747663
Zr 9.347369925518999 15.251796672720355 12.179974687279136
Zr 9.934333629328664 8.126449053936247 13.409294390525321
Zr 8.111751140702566 10.556305619598069 12.54808226093388
Zr 8.060564332770292 13.24104515980216 13.896407734082967
Zr 16.452265986728257 12.251426671963355 12.813313938671387
Zr 14.67127078322769 9.874736531395657 12.384094574217876
Zr 13.752735027761023 13.2180433738781 11.856102937141788
Zr 14.234022846109287 16.138683974725993 11.088306113664682
Zr 12.614044679431 11.049410288131718 10.221169990137927
Zr 7.234571043453014 13.244212534792144 11.367587398004353
Zr 12.344330661370277 7.997978850485392 11.174272622448802
Zr 10.161457022823555 12.387439433502413 11.010717642669052
Zr 11.632753031888319 15.260417521037649 10.319056884704608
Zr 16.36563197553221 14.351986267194185 10.964525116071199
Zr 9.762491598989287 9.131373043849917 10.405977384757186
Zr 14.514546881902682 8.979690397945319 9.402239489649872
Zr 15.701331341997665 11.571255223114624 9.932731513212497
Zr 7.80958437839335 11.110298973377443 9.654160686537562
Zr 8.871705497725985 13.93672619868624 9.09514769110361
Zr 13.433378678291984 11.18531454497216 7.54927065596416
Zr 14.284152306310176 13.917908619965273 8.936472130403141
Zr 11.850567521363901 8.783426936198136 8.365227513865841
Zr 11.619974201865222 13.525470763852018 8.117387785396234
Zr 10.220220108484943 11.17302843502294 8.000678960109129
