37
Energy = -269.13181512 eV
Zr 17.69348354242745 9.950526601917552 13.000058872085672
Zr 19.041042054473746 11.832242879199226 14.196907390293008
Zr 14.814058861138292 10.087084663962095 12.70562493477776
Zr 16.839085834907596 12.790454841113315 12.367416973188988
Zr 13.103581606072218 9.64579068608051 10.452004515763706
Zr 15.854828832323603 11.101660101172653 10.273357771935535
Zr 13.821546666423686 11.825092294903499 8.60525203517091
Zr 13.976425311870615 9.375662045457407 15.29010987116934
Zr 16.18151896882077 11.632996611568073 15.112690741844109
Zr 17.96430156281227 14.15932440143287 14.835827890730934
Zr 13.321516696593848 12.273591982766085 14.563229214265132
Zr 15.22411597741623 14.767493087648539 14.33697868882359
Zr 15.84481396799407 15.644154339555943 11.880960847747577
Zr 11.907682373176392 9.238861660206224 13.252591732861362
Zr 13.948721958338773 13.153421747510913 11.650901279705515
Zr 15.246477112836804 14.15815222713395 9.416069854391486
Zr 11.220534322837524 11.111911606916646 8.826980835337242
Zr 13.825339175756923 11.173871800807769 17.296494969667425
Zr 14.996656895365962 13.71302926852332 16.92957779372995
Zr 11.95725023001032 13.938858484340754 9.126204660251148
Zr 11.194211665930755 10.635646170166861 15.82269169162064
Zr 11.414892189305219 12.154993096138638 11.912780205987119
Zr 10.168945774582458 9.572488314048782 10.892552576491452
Zr 13.140932088150851 16.15058945863168 10.724093155373385
Zr 11.897362078158073 14.969501937384935 13.705937125582711
Zr 11.906899292225727 13.332753861653885 17.10686278037706
Zr 9.132754509238945 12.372000849286598 10.14396637530298
Zr 9.262524540209688 10.799249860636582 13.318022623224621
Zr 11.29705516767647 17.76098205901333 14.909199619960333
Zr 13.822084642273706 17.344543393353142 13.460573405348065
Zr 13.321758338091156 16.04040172541967 16.249552385604957
Zr 10.068586335505573 15.274094591448149 10.957893423352544
Zr 9.56324155836902 13.184602519082542 15.222819285848482
Zr 8.477558798329683 13.493788782032059 12.625771018606805
Zr 11.178422125927664 17.57784674791491 12.194533919766734
Zr 10.439500594079947 15.654262861577308 16.4106976111784
Zr 9.126110089574421 16.00273487625724 13.787276867862351
