33
Energy = -238.64264358 eV
Zr 8.774909761169658 18.211217259074825 13.791775838376894
Zr 15.470878969135148 11.487951326092233 12.607496459364548
Zr 14.14242912500701 18.831121985600916 14.912456709933648
Zr 16.207989838916653 15.646803798961535 16.563893106461357
Zr 17.541996181441974 12.910855445517832 11.750845414668229
Zr 11.684230541449942 18.386840331452653 16.525014447988646
Zr 10.21154673291651 17.305650227231006 11.400829064209056
Zr 11.456672526635426 17.568753108933876 13.845634849257335
Zr 16.888178354353663 18.49645817186854 16.406837776500343
Zr 12.050817489085434 15.611556420422822 17.583101073918225
Zr 16.550443074700578 17.186610656996752 19.073869230025114
Zr 17.68166895750609 15.686659520581967 11.97037612168284
Zr 11.86024765811946 14.945132308429628 12.080534890384428
Zr 9.62242419719191 16.415918050442897 16.02285075797212
Zr 16.294999812612954 13.873854991687363 14.32638916156847
Zr 13.131225284706554 12.649983127515426 13.748096113372203
Zr 14.826866065725428 14.576296528842462 11.915381482210336
Zr 14.994251011213667 11.12774362054289 15.322713339630557
Zr 14.718957802669781 14.777720493089696 18.945787203443977
Zr 17.866173426838262 11.533824411495202 14.578315487654015
Zr 13.545270440878069 15.768984758757295 14.73013781761041
Zr 17.670405441461376 14.56257853124281 19.062711200602113
Zr 11.106094834387498 14.036427214420138 15.252974390245436
Zr 13.610044613447513 17.38422118799777 12.046577862584476
Zr 19.38706328931381 13.965085275604531 13.614605738493958
Zr 16.117597002490946 17.160500847824895 13.70348343926164
Zr 18.707538680124795 16.504270631346188 14.794164026001829
Zr 9.26827953569507 15.424871641116296 13.357649892212441
Zr 13.557202037094356 13.088445300498163 16.72261835325614
Zr 14.14986241740432 17.686970067839553 17.785725799380295
Zr 18.914602889405078 13.868931217842315 16.45447221960888
Zr 16.455815145496235 12.531599549596317 17.38319176490993
Zr 18.941282676395453 16.66540830209261 17.627358045269812
