33
Energy = -241.17789034 eV
Zr 14.261175216218227 8.643456580200132 10.966322932558246
Zr 12.359787043274155 8.87902377318635 8.59666611098162
Zr 15.182582694351996 9.849971939015857 8.660302061266771
Zr 11.737927206115426 8.991468047494312 11.911456449833766
Zr 14.44102944243799 9.656553452552007 13.670682082978516
Zr 9.11119841804076 9.127630309715334 12.874681258367033
Zr 9.495246111906471 9.026145524632923 9.62153433898403
Zr 16.249668196273433 10.759161379609143 11.277120238541208
Zr 11.656736728566685 9.472675880503127 15.019295634241528
Zr 13.433648564228502 11.383865381070022 7.11996178435543
Zr 12.755900333734761 11.320573170072723 9.945610860959473
Zr 15.362380108522318 12.773982554361067 9.024243497534282
Zr 10.585351294066566 11.344788422985106 7.770187406011331
Zr 8.866314038830302 10.392143314383231 15.530172098478543
Zr 7.941981984610342 11.384542518271221 8.585221055416293
Zr 7.066495375957564 10.0630308617765 10.949709841356563
Zr 13.653081702602291 12.138925907887378 12.329078609422872
Zr 7.439703712663081 11.6717439831352 13.32632659839079
Zr 16.032975165635282 12.105555986768813 13.99439631566593
Zr 10.744956787625975 11.808650799198837 13.551994415177601
Zr 12.401339895076186 13.80582750032468 8.428980571349209
Zr 16.282674097767696 13.682079084943162 11.702018671116578
Zr 9.758759752696239 11.603791312796234 10.965121053869307
Zr 14.03413467216215 14.837583071518608 10.5894734780931
Zr 10.955147136590439 11.993871629918802 16.54292638420758
Zr 9.427277609207845 13.927190075257592 9.251990223965256
Zr 13.470630276056347 12.075994032470732 15.399615207183038
Zr 7.018596394182219 12.962486194804383 10.73633021734464
Zr 11.530306430229446 14.436295743426212 11.548529560295405
Zr 14.1935001174373 14.57905881818098 13.63031128028206
Zr 8.708131438250264 13.29001993998867 15.360218430516838
Zr 11.390181581229042 14.37975750037603 14.768902415039943
Zr 8.935366045983857 14.25065948478514 12.579066487404614
