36
Energy = -262.51533686 eV
Zr 13.052551658396393 10.760668287773923 11.820594241443159
Zr 12.995666817780721 7.698200710805825 12.402647616528476
Zr 13.090345643741411 12.762837774252567 14.304108883416923
Zr 13.82791533477286 11.969898458502191 8.786002810252816
Zr 13.92945264964232 8.908212914516835 9.826952527754019
Zr 15.94789728295239 10.764274362411696 10.238780064609696
Zr 14.32248904684051 13.452484269590608 16.990532348998794
Zr 16.8868754369006 15.005829393986462 12.211351675405595
Zr 11.218925675733445 8.282545041025028 10.433272174714526
Zr 16.356125552848113 13.52217329061752 9.729159663444257
Zr 10.455286151426575 9.05268996452014 13.14809366766027
Zr 10.434074573660718 11.082371125269574 15.33115933420098
Zr 13.80435082746903 14.82432103836047 8.628605445065238
Zr 11.342095930928728 13.752985275184646 16.425246479160375
Zr 15.452702311756134 16.315379623183755 10.29751950407652
Zr 11.38264286192843 13.850254220390164 9.922225228884821
Zr 11.053532495732036 10.910067603570212 9.369520744391052
Zr 14.05455591258312 13.85643945524617 11.547806257495695
Zr 8.523237630075933 12.5977251733787 9.980934638164094
Zr 8.769897069583749 9.741473590023773 10.847427943680572
Zr 6.25691145003193 11.301823888601628 11.129807768991292
Zr 14.438032505933478 16.46392588542399 13.082517326774266
Zr 12.589759283062538 16.442793061909473 10.72617098695449
Zr 15.398362082114291 9.278376409922936 12.690853708713185
Zr 9.274370305790836 15.044562453683866 11.629252226241844
Zr 16.571070753473734 12.111262256967926 12.634226304546354
Zr 10.464268462880762 12.323295492049155 12.322974514704871
Zr 7.0157933506619035 13.583220984061649 12.362659981197476
Zr 7.968019435225287 11.030264162670893 13.431386687587437
Zr 15.890167855328569 14.213862093471468 14.704464935826026
Zr 11.51084632214053 15.190725880833792 13.2406935051022
Zr 12.808624537196845 11.212342791552302 16.920028847004676
Zr 8.96045831004337 13.65112996121243 14.504264371335763
Zr 12.93871126052231 9.366703159914742 14.756907927719187
Zr 15.371472893195786 11.144342303131022 15.247227564671398
Zr 13.359444627774327 15.608247496608705 15.530577035228022
