32
Energy = -232.47645909 eV
Zr 17.56536884350108 14.337641581751669 19.403479788240283
Zr 12.817962090279833 13.453367680347736 18.283168969011708
Zr 16.116699494474435 15.323626686736622 14.642881568311479
Zr 15.018621354690945 15.846941703798755 19.10974178908643
Zr 16.109915510062187 13.04021018607298 12.517530369401875
Zr 15.734353925844646 13.954667743067816 17.15526207451277
Zr 14.617459770488756 11.131894627174322 17.33787004751916
Zr 17.369859938230917 11.650289251565832 18.227709547860975
Zr 11.488659372346085 12.618056149534633 11.131905395347394
Zr 11.001364149182905 14.485990319248103 15.626042881376959
Zr 12.765137941879393 17.18807214283228 11.677845428574143
Zr 12.901483171970295 15.95886075067047 17.129713318449156
Zr 15.214521563939057 15.643439790965079 10.74458847140449
Zr 17.752239234218838 16.071812208652 12.451392089512941
Zr 18.559193345364267 13.536753360576373 13.848193271186721
Zr 14.246678973022073 12.835862011886375 10.390813776908832
Zr 12.37481785710972 15.039624404170453 10.032825380344827
Zr 16.857449517430723 11.755113642258975 15.339695713301374
Zr 12.506722096719011 16.941851800083104 14.557123032655293
Zr 19.244307932492337 15.978560722681861 15.0320504578503
Zr 17.42634858848071 18.02360088512055 14.79978169145224
Zr 13.374884785982768 14.442363442464044 12.812469072574311
Zr 15.187942172589132 17.686087072266545 13.004761206737301
Zr 15.038572838112906 17.625617341534355 16.41068267787653
Zr 11.836733394348025 11.525439191866912 16.177284876435277
Zr 10.640217534285282 15.270580556160844 12.586670843951447
Zr 10.8828695304845 12.456918193310903 13.753045960564638
Zr 15.181070096125206 12.777630461198232 19.795562715966245
Zr 17.66737105688086 16.56391529948617 17.463818717978075
Zr 13.53644981945277 11.325140717374143 12.9126587725778
Zr 18.821508004147777 13.74635253219051 16.79181986016043
Zr 13.824932737357333 13.188196163903665 15.192021044628037
