31
Energy = -225.37768299 eV
Zr 15.127245549505504 13.68603141642713 15.110750495962764
Zr 12.641744109816523 14.032707784315837 16.373383619257726
Zr 15.726398131957742 11.469557349902304 13.359526157909348
Zr 13.468620661682571 16.079061361774095 14.365708316759877
Zr 10.442711910636001 15.06715745510768 14.94965266341892
Zr 13.424762206396291 11.355699269920128 15.479013919926405
Zr 15.494962103365795 14.406886420773878 12.401218494660643
Zr 16.282273854599982 12.197004766179852 10.645514596472674
Zr 10.472799107272158 12.301521371937335 15.385725472416784
Zr 15.241112776535967 9.423696166222935 10.79801699192223
Zr 12.534793891023279 13.523721133595863 13.316287863432239
Zr 13.957714483872698 9.272040610360902 13.527596188826237
Zr 10.924581395491245 16.149400502970067 12.592186178692772
Zr 9.55172082613343 13.288706518462922 12.50595037763112
Zr 13.42595120901789 16.07349794927566 11.44819331866514
Zr 11.205315875691634 10.098306431721213 13.916260554793036
Zr 8.278337453178807 10.572750852075515 13.33541256842278
Zr 13.305315235125912 11.465027747090163 11.272742592562945
Zr 14.314857716854581 13.995311286439824 9.582432775810142
Zr 11.432548622637382 14.411058252762656 10.310424049691045
Zr 12.39978787981158 8.21460863626801 11.536851243558914
Zr 10.344391333369202 10.76030578974476 11.043632235419985
Zr 9.046643612560795 13.224336846554804 9.340419719509418
Zr 9.624717996722733 8.044226321218321 12.700403820806894
Zr 7.409085167049106 11.726352980503057 10.79641416262831
Zr 14.642858147271914 11.303913724077235 8.539658414738309
Zr 12.424484513831246 9.483114536011064 8.984102297546512
Zr 7.693610491873488 9.007165352793246 10.864824571205595
Zr 10.077984551279767 7.9188661420149105 9.852260567460094
Zr 11.772258489052335 12.20886409989489 8.57248201052236
Zr 9.027477821869843 10.378134129380566 8.52907281688434
