30
Energy = -218.10212838 eV
Zr 7.884849450432566 10.253116157207923 10.068529383749983
Zr 9.670594528264939 8.514720604489021 8.268102701482087
Zr 10.083140328164301 11.182172967764142 8.040986183116715
Zr 8.661912431749695 7.510617064656004 10.751708743079007
Zr 8.757763009225643 9.377868774068967 13.098132114263072
Zr 9.35413553540337 13.028811471109396 10.082686772702074
Zr 11.736176832589297 15.218349686306118 10.3396717798069
Zr 9.889171845750953 14.429267241802139 12.766959950879631
Zr 10.684759317326048 9.820545460931799 10.741789502522527
Zr 12.57677940830148 9.395659639010189 8.559349220236314
Zr 11.446666522147101 6.985538933749968 9.859010261555296
Zr 12.231435857038093 12.543135208129462 9.363129907598802
Zr 8.23209814649389 12.051201864809524 12.40228153800008
Zr 10.810906328615529 7.26103019488145 12.592964550978524
Zr 11.655025169986132 16.52798289273046 13.009396227629495
Zr 9.793065320807113 11.935307720048728 14.863068870656452
Zr 14.006586993282697 16.721536079263267 11.464636247168905
Zr 13.312236376135118 8.499734137528657 11.564832910021831
Zr 11.438362657435535 11.892980069654916 12.501818620331811
Zr 13.389399750476148 13.925533949363889 12.559234759498676
Zr 14.797553217839315 14.255328652117376 10.023935736584873
Zr 14.100888928011098 11.1404434620487 10.698844104622724
Zr 11.681413670675267 9.387666041132741 14.107470811512817
Zr 11.850774259730985 14.46054178768296 15.16624401731917
Zr 14.115414147003065 16.271035545226223 14.402215655874377
Zr 14.412375679755831 10.722536561515325 13.661700472711532
Zr 12.637435409061165 11.777666062735133 15.488234278156773
Zr 16.084250239696555 15.184923028067598 12.629298081676817
Zr 16.10793275934246 12.501546013016046 12.230587568558127
Zr 14.97889126547651 13.522447874298184 14.966967242580177
