34
Energy = -249.23947623 eV
Zr 16.610301527253295 12.816226099569034 11.384418224517256
Zr 15.306500257174864 12.428526235563908 14.412059521215463
Zr 14.802118747452576 14.893141325010626 10.225861944254346
Zr 14.947136596656403 14.84809277144159 12.925778713171281
Zr 15.764163166381902 10.22703813878445 10.054275209082107
Zr 15.996838290243796 10.22536693805526 12.748682090996306
Zr 12.739480774020047 14.211591214998155 14.617218462635936
Zr 13.205319758308507 11.92656686286042 16.333684534951193
Zr 14.031556778548826 9.53116144814318 14.712496550906529
Zr 12.463636518353244 14.591409287956346 8.62916271678611
Zr 13.918441225653162 12.23592209767516 11.564924616635558
Zr 14.824425357486074 12.519820417476621 8.59490678014196
Zr 12.251699401779186 15.143341304626574 11.633584803093596
Zr 12.039225818851516 11.39314199775848 13.589243231180049
Zr 10.05830840155792 14.365741260662102 13.336665120775478
Zr 10.343191102362168 12.54449914989524 15.765758618865648
Zr 13.637177153499088 8.889215846808614 11.709393215623198
Zr 11.42305720770057 9.779543015484636 16.090182059290246
Zr 9.734638643701686 14.62343111006097 10.184248929203356
Zr 11.505137616378178 12.092897666187557 9.956283357708152
Zr 12.441268062715944 12.045631949460546 7.066206329153637
Zr 13.252624811251234 9.829654919397493 8.74846135465512
Zr 7.915652140130347 12.6386067134845 14.264700369823359
Zr 11.338384191384776 8.368514687693892 13.575164081483203
Zr 7.566917100481424 13.684752120757366 11.784170588514128
Zr 9.608463494757508 11.34088116391077 11.998380504294364
Zr 9.993633012232944 13.298338473154468 7.615772660911133
Zr 8.909955440921358 9.96813423714289 14.715431606533786
Zr 11.082006037660378 8.68745190979649 10.480762516370847
Zr 10.234802085881423 10.320912448888137 7.9766600708869175
Zr 8.020125677577585 12.160805502377086 9.387083384666008
Zr 6.91700094765051 10.748435980944366 12.186454956120766
Zr 8.758627790479771 8.351828988427727 12.34763039337489
Zr 8.323318349911444 9.400567003722605 9.898626799524399
