35
Energy = -256.24716656 eV
Zr 8.27065432133091 10.993531050882307 14.348617005238825
Zr 9.84787416122455 10.360063322444066 9.221254783207028
Zr 15.86334087301488 10.716781153580888 13.1489548163604
Zr 14.973827281717007 12.752657388571691 8.978830607175913
Zr 10.256081659027164 12.517839406417343 7.4588116914481315
Zr 11.683826350570195 16.1960856050002 10.103501792913171
Zr 10.976064448173585 13.201579898351973 10.36657596978212
Zr 10.785563152492307 12.532603237767654 14.66499691581761
Zr 8.14446229331765 12.956986883839466 9.520838459792584
Zr 10.528961031989024 9.523703464084315 15.365214312655274
Zr 8.539284540334043 13.149602987517707 12.508426457404058
Zr 10.646836354035361 10.509324519637474 12.430604118756085
Zr 14.634617811980776 15.565813001157581 13.704821855198992
Zr 16.740852240061 13.372188189642074 14.493539050907238
Zr 16.058739065297267 13.073976117179924 11.689625693297458
Zr 13.394854702886455 11.60096650574035 11.369622198726248
Zr 8.674590759644252 8.367645202919041 13.477160429945753
Zr 12.675879855199131 11.064539688722592 8.272485449948558
Zr 9.793700918921829 15.124913495440971 8.272405179737126
Zr 9.053301690814548 15.456615572137535 10.979941406206827
Zr 14.2146987845716 8.572516611179887 12.215240841196213
Zr 14.004321789606362 14.82849298277141 10.784022801075434
Zr 12.670915096727157 14.15624345707839 8.065740589014112
Zr 12.297665211538561 8.720963585856762 10.129886391474917
Zr 11.498296766265076 14.92163237205186 12.808488227910313
Zr 12.744686400772974 12.249086550268249 16.752684462427062
Zr 13.790169881939974 12.931495510989706 13.918928868346145
Zr 9.554363564420143 8.073533095094318 10.873229239638238
Zr 13.175320835102438 10.008373344889703 14.559090819530033
Zr 11.569055060215417 7.754511658138936 13.064732979377649
Zr 14.90941816813624 14.240830968046845 16.41552885640912
Zr 12.321095800693556 14.960802022684257 15.605309103216172
Zr 7.776480620025934 10.400892625072508 11.46840428029874
Zr 15.197948853288356 10.033106429124691 9.943894401427675
Zr 15.397723297993986 11.388842294284734 16.099092117600307
