30
Energy = -214.61947408 eV
Zr 12.143419190554718 15.594180605450749 9.094105188368225
Zr 12.758418044115619 15.62421008829795 12.146385226550496
Zr 11.88032424874395 12.883934818718176 10.616875078097193
Zr 10.090795061194553 11.011864172527963 8.652517995721505
Zr 11.752891232094461 11.329522863240703 14.583171922273046
Zr 9.913626339807838 14.026167089765204 8.491642007178145
Zr 10.573334189929534 13.825936063933728 13.29554756705628
Zr 8.273455981948574 9.477751569813375 11.140970865105631
Zr 12.838636188639974 14.262017460977122 14.997427835977115
Zr 14.31244606898632 9.569979261972891 15.310686141977373
Zr 12.828291665472387 7.658771396329378 11.051925360975503
Zr 10.97955643899195 10.206105260667282 11.672410295897135
Zr 9.391476268223698 9.134796765935379 13.998983939364557
Zr 12.806951696945857 12.893524329941942 7.917691899030242
Zr 14.8033754190325 11.782275532310871 9.942936773893358
Zr 16.3110194019904 10.803114908702984 13.632480867350013
Zr 13.84429091801849 10.253371424490501 12.217013212159866
Zr 12.769491483378022 9.9964487681339 9.0371699441328
Zr 10.453306448421786 8.252011402056983 9.40341549404265
Zr 8.683431723012346 11.620283543218996 13.334269513222598
Zr 14.598119793096632 12.257897389637476 15.561353919790934
Zr 8.582781570975039 12.599191314556714 10.651849460324364
Zr 9.899327714928905 15.480443924111476 11.10224539232803
Zr 12.225421223801526 8.250979602237749 13.88663957695293
Zr 14.197214035622967 13.150652217267323 12.743755133910136
Zr 14.459791509939333 14.458889929883588 10.047180544954092
Zr 7.299062845777151 15.14634705480973 10.00754735013959
Zr 10.082112485950953 7.289165146231923 12.017614058431453
Zr 7.565877870520651 14.511685199414494 12.622465747868644
Zr 15.306148860787772 8.117118846856222 13.122555236312616
