30
Energy = -216.6669425 eV
Zr 13.928803587169204 13.82512132633391 8.853181877307675
Zr 12.173341820829394 11.766354606110873 10.216566852684013
Zr 11.391664655423602 14.690958192443848 10.145709327582347
Zr 16.30321647392601 14.612002579898034 10.526812193776923
Zr 14.078659967589049 16.393397252380673 10.221665798979108
Zr 15.33803061517487 11.77503063869526 10.123220073994837
Zr 13.92698640480407 9.498750490219258 11.328357102346738
Zr 13.87163674726921 13.743541546118616 11.7837612305139
Zr 9.901662283725633 12.84345776052583 12.023379124253609
Zr 13.687110779824287 18.63295885527008 13.05479751315983
Zr 11.13773538929602 10.084220404405588 12.534171691431126
Zr 16.632837141941735 10.783584246990344 12.471308778860665
Zr 13.66858610890571 11.223491485334709 13.774558139173882
Zr 9.508893287943964 15.812900802547631 12.217424295659447
Zr 12.101776206349497 16.89471528038731 12.061962147599786
Zr 12.93944008556994 8.121503398084426 13.67691768519397
Zr 15.2218677311222 16.12767371993502 13.08994670712822
Zr 13.372893548432593 16.66073220482685 15.231541920560597
Zr 15.64076479418723 8.791869852575216 13.813405159901436
Zr 9.09462159502765 14.43762909016458 14.621901418332156
Zr 10.396090022911716 12.002458368596217 14.968134272194982
Zr 10.623851895683307 16.942187005268618 14.68495467370533
Zr 16.484403329529513 13.377733904953345 13.300843631426483
Zr 11.899629656538927 14.360969360322349 13.663719059276419
Zr 13.025878484073921 11.878701582212543 16.69391461261719
Zr 11.460357760651338 9.6286404899865 15.537953446304815
Zr 16.05787209015778 11.301050304109 15.478825208417131
Zr 11.537132323227139 14.598919865088668 16.449557953796656
Zr 14.579565246632832 14.080073154901433 15.43018047649748
Zr 14.127954277910574 9.222636543141816 16.134591939151893
