37
Energy = -271.76661206 eV
Zr 11.698540443414952 7.07801052432011 9.855216229597827
Zr 14.29807631594846 8.00572631505063 10.966448773912864
Zr 12.114804105180431 7.530633718716397 12.82068180228359
Zr 15.15100041392342 8.246411783777853 14.206968100032693
Zr 16.459671421448135 9.6720704123827 11.820495881296921
Zr 13.086641722443646 8.993846715227736 8.282001417637955
Zr 9.457020474233827 8.230349026525147 11.210605630324688
Zr 14.805794798351343 10.832256534314538 9.729059776711368
Zr 10.225039643946598 9.249031625425188 8.507297826252584
Zr 12.431181737963254 8.96250379635791 15.499037892899635
Zr 11.89089539401922 9.941797213344095 10.86690229860279
Zr 16.606940585607703 10.947625590808194 14.242613874276692
Zr 13.766096974766567 10.411163348073588 13.165350458886154
Zr 11.944755736445078 11.882182987506159 8.510640813750463
Zr 14.093270216649419 13.913220151057178 9.243911515262958
Zr 10.303554095311362 9.741534671493714 13.589948833049423
Zr 14.57666310984104 10.66576774153345 16.061635576737142
Zr 15.98141084823873 12.605246457874488 11.858435361926645
Zr 13.074669576297076 12.690400048189195 11.867075451087038
Zr 7.62937402942935 11.060680513964641 12.905745364119404
Zr 11.5213701570205 14.693808724116627 7.685728487147789
Zr 14.727980742227516 13.277648021228833 14.386442268330278
Zr 9.206372944262746 11.174374938738096 10.427866719233648
Zr 9.182774052714816 13.364164964840805 8.442336347564552
Zr 10.152164386034459 12.66891961831855 13.041834116194753
Zr 11.160398738174845 14.157228909950913 10.63551055713115
Zr 12.087771041163574 12.074869189570531 15.331986641164946
Zr 14.084031725803467 15.41879858457516 11.72151535982054
Zr 9.01590959004717 11.484663195283225 15.521062189928426
Zr 12.655525852772097 16.53769671422185 9.369069745628417
Zr 7.887375877369483 13.722084145756188 11.180506937822686
Zr 7.491007474773995 13.620762317885776 14.179918260233782
Zr 12.129443481317212 15.08474060150728 13.975459582648657
Zr 9.60775126700112 16.208822713229658 9.601617154800401
Zr 9.873927472264024 14.236877207276173 15.589544808324677
Zr 11.557513107734724 16.98374472663709 11.842117199505653
Zr 9.259001053654375 15.631135191921885 12.884807051298953
