30
Energy = -216.72393206 eV
Zr 13.360451039837104 12.221216433589001 8.163813516116576
Zr 11.004811303204201 13.716250543737896 7.929790850318938
Zr 12.933303328480546 9.315638629850302 7.9553960736027705
Zr 10.392880232931914 10.859113458474253 7.800378022561357
Zr 13.118704581584451 15.212832395489063 9.467920121038606
Zr 10.097496773426373 15.384218319616435 9.862556202645665
Zr 10.571159939761113 8.049672506932788 9.06340092683811
Zr 14.986996696201977 13.129649222098799 10.33287699659724
Zr 11.870304564824552 13.237918360092921 11.01350906538831
Zr 14.674724478670578 10.257460302882077 10.151502932783194
Zr 8.897065392937645 12.645479426566974 9.723015810304288
Zr 8.702636983985675 9.710619393998382 10.022939363803022
Zr 12.986063199734764 7.747437220360349 10.389788238838848
Zr 11.660096776054509 10.441878182139911 10.464966008829025
Zr 13.290277950213223 16.170508341545954 14.908670852040421
Zr 10.538357338460285 8.423770296153094 12.288650122412252
Zr 9.20201299868939 14.119294459649183 12.380262355631187
Zr 11.593063676117414 16.025250929714524 12.154628523670457
Zr 8.81838702346958 11.166123127551252 12.36515991990685
Zr 14.07443512880596 14.548010048097366 12.678209081035408
Zr 13.725346116729243 8.918569259805428 12.799738309601146
Zr 11.8061732065664 11.393161811613975 13.555720359581311
Zr 14.93938328454336 11.660193864100622 12.81048175955886
Zr 9.50510029518142 9.780505234111853 14.886832257088425
Zr 11.320799121200618 14.37635571107031 14.533882168781235
Zr 9.196595553767953 12.533052821671552 14.939615073906955
Zr 13.890562944679822 13.177480725801972 15.276938204153018
Zr 14.130708739425769 10.41059256237748 15.328091058392342
Zr 11.971508147204547 8.701919239497718 15.12188367215365
Zr 11.52692093171945 11.452154919819204 16.415709900831853
