35
Energy = -254.95622638 eV
Zr 12.069508817847323 9.070210525585075 15.127472248916806
Zr 14.703868275212825 9.700769733691201 13.970916957246432
Zr 9.66740820221235 10.60661725546613 15.829579928466016
Zr 12.610719250593831 11.891094281875922 15.398999313025831
Zr 15.54536805839424 12.368660427802507 14.503502638701027
Zr 12.584925204072075 7.514204944166208 12.642457311372517
Zr 8.130747320251196 13.09880327149395 14.354676311958691
Zr 10.971924992814978 14.455161046995798 14.223942217549167
Zr 14.877173627723568 8.726330518983245 11.17804643130169
Zr 13.917760818723721 14.51150227735721 15.311102108813984
Zr 9.690688812722685 8.451377728510783 13.635337539362677
Zr 12.602824165287192 10.28743339945864 12.174676251984316
Zr 15.736509715513279 11.52079060603911 11.690250530764215
Zr 7.464619849405144 10.289043434729553 14.03516270913061
Zr 10.209152608859444 11.57044666789763 13.267692932598854
Zr 13.219767123034137 13.34388292383295 12.738556707745376
Zr 15.80937854176172 14.659140120954705 12.764016007947403
Zr 7.75748865786273 9.22723496100621 11.17689170554776
Zr 10.1392313919044 7.54575388242992 11.002208051409276
Zr 13.21469220403723 16.321246439886263 13.407946280655986
Zr 7.210439743567487 12.01278146235482 11.812543850967574
Zr 10.222196734438679 10.798375217651584 10.547751429529983
Zr 9.427150444644548 13.734720062079713 11.463034867183424
Zr 12.318807884702608 8.587944310459628 9.465135718549908
Zr 12.297782971675424 12.907207842822668 10.166466593063506
Zr 14.212695164383959 10.8090598670043 9.145084638741686
Zr 11.264715016130609 15.805599054534532 11.118203463839578
Zr 15.194790180290997 13.663655004498908 9.596714426305585
Zr 14.164056170940189 16.042718779735413 10.893771633863173
Zr 9.343104017477298 8.85862977941074 8.624835487860135
Zr 8.152574007830967 11.559825384950638 9.024069976291072
Zr 11.212682958846356 10.994806539966408 7.732147823454958
Zr 13.1439642206128 13.04860319224374 7.375181873012065
Zr 10.324359629961435 13.91911869744727 8.40913739897021
Zr 12.875526431878308 15.47308050952514 8.613696646330341
