32
Energy = -233.10484942 eV
Zr 9.253713566098602 10.470623353608843 14.683630570434886
Zr 10.596795400338095 7.841016081098745 12.884056570692966
Zr 12.408190426065909 6.79637516311134 10.798423745984145
Zr 8.613639487647042 9.429366924603105 11.836904889597882
Zr 9.824609048271252 7.841815499318047 9.567745458795127
Zr 12.598743135452134 7.971679741527909 8.194864724867918
Zr 13.572057210671538 8.411316574240358 12.879912513679322
Zr 12.080487698443232 9.191764406528646 15.232339330179244
Zr 8.764768347194826 10.817521676046333 9.337579182114442
Zr 11.294995211254278 10.885226106283987 13.060865727886586
Zr 8.148053430919264 12.194950761710345 12.111702432957788
Zr 10.777610722072467 9.910881467681383 7.521336311600168
Zr 11.717075303354154 9.714477966029962 10.446887436004078
Zr 14.570966017728354 8.679217973493152 10.106081202571609
Zr 10.968232952403413 12.682190869545583 10.908538290464834
Zr 13.545615344749999 10.828957241123058 8.308081051140928
Zr 8.698873151192442 13.746347352052213 9.449249198816435
Zr 9.807836442889496 13.621586845722247 14.253825824133852
Zr 14.2163905880937 11.125843337585392 14.20424345885549
Zr 9.041253059638873 14.979442839926925 11.866805326410484
Zr 11.121516985517362 12.711180159944826 8.069137516472122
Zr 11.914207813959523 12.200644172797245 15.712902734210505
Zr 12.773634138616698 13.660343714008262 12.961371646058137
Zr 14.409715991588541 11.20037622413905 11.376557409755614
Zr 14.549733654008858 13.752945790504052 15.389194861754804
Zr 11.290419093233806 15.388160085212709 9.925797077669884
Zr 12.013181941653663 15.151535290012431 15.559228594615368
Zr 11.309153249738348 16.30011796768244 12.907973224103372
Zr 13.790887547712693 13.557863067838186 9.802507823781724
Zr 15.558183156539002 13.925103982894477 12.46963010477057
Zr 13.80666110370253 16.047533558318648 11.23632826314595
Zr 14.177434087923183 16.152485311006227 13.937937644474909
