35
Energy = -256.19269711 eV
Zr 16.753440221157884 12.965976029379448 12.730995360571598
Zr 17.35235940711754 10.275803827522472 11.99981633838617
Zr 15.650380379534136 10.806993381991177 14.410657764452868
Zr 16.562163030547726 12.162792176854094 9.776028721757813
Zr 14.917746680644521 14.472836898516563 11.130768484942143
Zr 14.092550010878515 13.372310762992614 13.861936752083743
Zr 12.30331390330289 11.857383952871716 15.570240392103342
Zr 15.137176588715601 8.43800009207022 12.637378295529896
Zr 14.48299786302414 11.258472079763836 11.668393014084543
Zr 15.826159035194168 9.179325198169247 9.941983845510432
Zr 11.474616862300405 14.760807310725356 15.580376783460268
Zr 9.817466666041538 15.994383969781051 13.411984591777882
Zr 14.62272025039002 13.788512111147819 8.408882782865957
Zr 12.881811784515621 9.773914986568693 13.809208610178336
Zr 11.96534115445622 15.12762386407097 9.106423152643568
Zr 12.34569550681317 12.586952948713522 10.147173007996843
Zr 9.80287044692401 12.457499250205704 16.636203885294883
Zr 14.28291785488288 10.804904042611412 8.226604166248586
Zr 12.159578453765336 14.74180585620812 12.417380680125195
Zr 10.005764505563604 12.968057319175786 13.689116743836813
Zr 12.41911685599428 12.828357023833231 7.125221507641763
Zr 8.483277544498131 14.688503914704286 15.659145924913762
Zr 12.865660206619037 8.913985589954068 10.541105475153202
Zr 9.610621964903414 14.148415916773864 10.904601098406713
Zr 10.801325539240224 10.791064402811154 11.876228908998176
Zr 10.848042864192678 7.985567761736298 12.79229360202565
Zr 10.00381856344004 9.995527734836127 14.96038252294129
Zr 7.394910036451306 14.491869322326531 13.092688447332113
Zr 7.484855821139873 11.90457129757313 14.727497615151655
Zr 9.941427451413048 13.067782027805851 8.22166688688167
Zr 11.241672753257054 10.313740251960605 8.30750510041064
Zr 7.390038700149779 12.135241774934984 11.754683375296382
Zr 9.915571945706477 8.393367038017459 10.219731396786278
Zr 8.24094911584642 9.507830690686193 12.541959888536724
Zr 8.67611953668444 10.855576960494886 9.692636392380743
