34
Energy = -246.58352838 eV
Zr 14.41585482184466 15.935601148101178 11.848781349156193
Zr 13.196927218566726 14.550357061806313 13.857061152717863
Zr 16.111101498104947 13.666048890645667 12.481529669269005
Zr 12.913914855383206 16.178218167264774 9.661568677189097
Zr 12.277648354599844 13.181315126040536 16.229893487933687
Zr 15.692023244471116 10.43027703051898 12.63346606835681
Zr 10.313072932947094 14.726156094082056 14.649091850050219
Zr 13.734946589737957 11.718071316337154 14.191476055257096
Zr 11.463309193370346 13.63417231634101 11.243448790010918
Zr 15.404093005350168 14.460594858286449 9.382155676381057
Zr 11.432590982259844 16.41374368407619 12.215360137920468
Zr 11.705045873901527 10.345583025967585 16.184756108107948
Zr 9.69206494458857 12.496015486005824 16.646078352532836
Zr 13.96959776198417 12.640258339079859 10.988784460298655
Zr 10.52305639023318 11.836270415020103 13.735945318785197
Zr 16.69440110331122 11.923592718421872 10.21814114873591
Zr 7.838930998037426 12.987709480030757 14.739490070887802
Zr 13.91918430885068 8.893283888044087 14.531127530141067
Zr 13.723905786185215 7.732376228072311 11.83536660670626
Zr 10.095727909442862 15.803332141644015 9.722785814189024
Zr 15.415545166663305 9.39788707501237 10.04910803128712
Zr 11.237395330458083 8.481160802865372 13.84106505652715
Zr 7.501157063909453 11.253960272450708 12.707652218335681
Zr 12.608000612107407 10.286533016733316 11.669747956709196
Zr 8.71831391470119 10.04853676064749 15.252516618818516
Zr 8.827081501412984 13.864396358748952 11.988205422930594
Zr 12.427601151010588 13.929327187056032 8.154533291531045
Zr 10.908689117391152 7.8793209315223685 10.88798926943628
Zr 9.44773505389587 13.265955573742243 8.959728308033132
Zr 14.480392107305093 11.585173506406074 8.232759484636231
Zr 8.766432096246401 8.860637977976026 12.553071353171369
Zr 11.519756028465247 11.355232475974978 8.509792326260612
Zr 9.76601793503652 10.936985812972464 10.739995628841791
Zr 12.887685861524778 8.924468811755967 9.041962349965706
