42
Energy = -309.55486035 eV
Zr 16.97326874269622 11.696228796132402 11.896394988662651
Zr 15.538087585358646 11.26243345207342 8.964148393884509
Zr 15.757665230578805 9.239489555191152 10.96790811197983
Zr 15.750786973289848 14.620068809586268 12.9661358609755
Zr 15.656445609658793 9.506750143840868 13.78979123111811
Zr 16.36303480237419 13.93322527995781 10.151764140364433
Zr 15.246700795796965 12.367950779916923 14.73884905671341
Zr 14.259762024627237 10.11415646191334 16.345809252569424
Zr 13.515769681426443 8.79798204203663 9.197979141034814
Zr 14.338685071425742 12.041703508486998 11.540152872934193
Zr 12.852647708243733 11.305658625891931 7.521898725859984
Zr 14.322229427684123 15.820647227526901 10.585861748193427
Zr 12.777480858728678 13.928952181402995 12.971349979767668
Zr 13.352851996658073 7.905197887046431 15.091419027257473
Zr 13.663949393227336 14.986500672090997 15.5386376316737
Zr 14.465142096181568 13.960759551290685 7.908753308413803
Zr 12.795736155119661 12.383166525233237 16.715481869902394
Zr 13.594155685180121 7.823000634151504 12.171954399431295
Zr 12.747029105255313 10.5674293115646 13.790346365851494
Zr 13.557410767241144 16.746940168031745 13.211436094832047
Zr 12.296863220684353 13.570191390225148 9.761046491114731
Zr 12.33037197283933 16.188075390660423 8.462381656389844
Zr 11.628300866420192 13.893525673734603 6.909867639268504
Zr 10.926138032668883 16.14661706145252 14.43073051325006
Zr 11.779402487616982 10.562581080543309 10.829033305225096
Zr 11.013081884159913 7.906184802385958 13.698513695673451
Zr 11.046174713329854 9.930234673637578 16.061972378926402
Zr 10.793953060736548 9.342088922900125 8.28972931303148
Zr 11.275996750296766 16.08020038770987 11.310269395440987
Zr 9.885477069396945 12.39686724232262 17.442072206524177
Zr 10.493077035366012 12.781213082054142 14.566757386151027
Zr 9.890642529953073 12.036189439147405 8.201824471130664
Zr 11.08458525805427 14.810985036734428 16.90173286458658
Zr 9.729188245561842 14.897417933576428 9.026120590775154
Zr 10.847541468941435 7.8930970874633495 10.825892370966478
Zr 10.05011857042899 12.893488378466316 11.413610372886916
Zr 9.48097528137989 10.206310634047133 13.063970761015069
Zr 8.784047378790492 15.143270045907158 12.710365726006371
Zr 8.842233249211755 10.255912488840213 10.307436484163096
Zr 8.124117404040705 11.278647874177425 15.594917734901383
Zr 8.40451282485679 14.401496155262302 15.602137824561911
Zr 7.627323596588453 12.595016958576114 13.182099821112448
