48
Energy = -355.44412665 eV
Zr 11.595557125649648 7.568394017371134 12.860117591895891
Zr 14.247243563220358 8.146905569867059 14.009466471260522
Zr 11.458939756351695 10.417723591291526 17.93964313453092
Zr 11.81104717413608 9.12339589302549 15.382024278545726
Zr 16.818347912541388 9.223366640822285 14.666660103266835
Zr 9.350121335123838 10.913267430333613 15.989450668343196
Zr 14.3686659810025 10.2677238506871 16.82705763897651
Zr 13.724435409505459 7.949046803347352 11.052581825065126
Zr 11.141531875638902 9.016699896103859 10.375237739706405
Zr 9.625317473544841 9.587394034756764 13.079098742400394
Zr 13.077233551129552 12.539107462217638 18.636641084949225
Zr 15.86688456233304 9.735552562064097 11.833265254370039
Zr 12.534017505394068 10.455896165454163 12.60250168903006
Zr 10.296676754017946 13.153485830604179 17.731136670032633
Zr 17.314970269145988 11.46974520902073 16.033763013453008
Zr 12.213577882962232 12.26626561384005 15.652198860852144
Zr 7.966066096167842 13.529196367941793 15.472827027656011
Zr 14.94462207595158 11.404671633477783 14.287842275743941
Zr 16.708463591564907 12.275556791812248 9.739811105254672
Zr 15.070857561459563 13.335457551453619 16.71235766378859
Zr 13.854186132830888 10.796956538120295 9.983159149428321
Zr 17.742504436062415 11.615255790805188 12.913881216233479
Zr 8.097870291102755 11.315233862382353 11.137705666134897
Zr 7.2465230032990755 11.077759137621978 13.945466233583527
Zr 9.782344196795439 12.696449862940248 13.240422685210353
Zr 17.035633628786485 13.865203436390788 14.459641397735524
Zr 15.196104723445908 12.971734937591087 11.86611773620558
Zr 6.782417256343303 13.452687081691806 12.650830821521609
Zr 10.83768467695824 11.847053213873401 10.299951224478216
Zr 17.76062322608816 14.52199903504621 11.612485430485114
Zr 12.65347361639325 14.975094869696079 17.116733773125432
Zr 13.855756003775765 13.48569687301108 8.911349214478516
Zr 12.370285525495062 13.58450247061891 11.840894308070576
Zr 10.71954550083411 15.057542136622967 15.16556876179086
Zr 8.91028495141642 14.260794262629645 10.798186226705157
Zr 8.380119096292216 15.563199594059897 13.449227431129593
Zr 13.761207234768584 14.531778785888537 14.28540574096184
Zr 16.44778532904567 15.195942780518873 8.910995111216133
Zr 14.414574392115572 15.856170216378597 11.06143960356019
Zr 16.03328661671857 16.503715745645984 13.647598922586287
Zr 11.562352591727336 15.359592898039587 9.533105336011834
Zr 10.827356876839652 16.23802544059113 12.104665127406852
Zr 13.09457076536342 17.23452892739827 13.492077256653431
Zr 17.30528415467014 17.17166435830629 11.020663921887838
Zr 13.723371883513456 16.27741858563171 8.095146946172324
Zr 12.68475983210669 18.14653951633584 10.332027110377068
Zr 15.075153682869148 18.706417588915347 11.977224420266134
Zr 15.43587403868966 18.094004519419933 9.162488749573802
