42
Energy = -309.3562566 eV
Zr 16.565708817060337 13.521540811377394 11.955518832996336
Zr 16.865044633386905 10.381599646343647 9.554255951188795
Zr 15.843751587517556 8.056977796607349 11.052383739349045
Zr 15.489783265005935 10.781478345573806 12.263116145632948
Zr 15.186545105331536 12.473359106634414 14.598556046098194
Zr 14.843447740377394 9.45724824418019 14.831395422155643
Zr 15.584221459116801 8.11522934607011 8.170717386874756
Zr 15.279390937112247 15.359156644643338 13.665814079203653
Zr 15.203193799870391 12.85976027576798 9.45896985574737
Zr 14.754040357603396 15.709441479317217 10.716807259902996
Zr 13.371541417254232 7.100491964154381 9.75847474695995
Zr 13.21675099750422 8.402406292753687 12.439892980331944
Zr 15.053978120056781 10.801423962529716 7.228868696644193
Zr 13.885820136752915 10.081958055681936 9.888667777998277
Zr 12.986005154039423 11.15820984718647 16.548752723565457
Zr 13.591441228992693 13.471942951007314 12.091106053055233
Zr 12.631668096393959 14.098324330699684 14.939923444729859
Zr 12.619270279522212 11.036285487925849 13.67568899339607
Zr 12.236063054106227 8.50262804468906 15.295740964109832
Zr 12.929595293449033 16.549109792387675 13.013492996101846
Zr 12.904165079837616 8.71918038164074 7.383135139417256
Zr 10.66870664797585 12.85533530241334 16.863416540684675
Zr 12.09374646437276 11.392547445893305 7.734453295126213
Zr 10.0713322089747 10.139360087667063 16.140851080017498
Zr 10.589512848974449 14.171499270828848 11.985816274790078
Zr 10.232820870763568 8.85398084407867 13.169804116155756
Zr 12.549624868478245 13.960792595089488 9.124748105824423
Zr 10.105697912294767 16.813573373764378 13.15940949888297
Zr 11.432853047271406 11.502818110060359 10.957047206967415
Zr 10.984349538155321 9.064585673608253 9.747527553847368
Zr 11.595156447273505 16.537541462272657 10.47178503775975
Zr 9.779576490632271 15.024525030207831 15.450883605476225
Zr 9.811218596613983 12.211145333876342 13.886902032028901
Zr 9.843366052731524 14.63202093478077 8.934465130473903
Zr 7.871042613731411 12.584348833592047 15.878358488465286
Zr 9.411659915750835 11.760126089916225 8.894824337664035
Zr 7.832954054233985 9.948733249586304 14.341697088779084
Zr 8.567625270335837 16.19462009074939 10.931229655181042
Zr 8.472086808558661 10.431046001987317 11.427084513691328
Zr 7.821648527297884 13.331400361818305 10.776182456082761
Zr 7.757715286772291 14.836044045795818 13.507159564443802
Zr 6.759827486540555 12.140605970229199 13.13301982108149
