47
Energy = -347.80853683 eV
Zr 11.957898530263662 19.05622562932155 12.915392937049404
Zr 17.861929607800626 9.777232895767705 14.215382450477628
Zr 17.71642880739643 11.039576779954945 11.662870380999584
Zr 15.301773159092138 11.099413935093112 13.397565302456119
Zr 12.971683333337714 12.327641351320786 11.65353669522876
Zr 14.35601502764419 19.91901970405148 14.029197722718747
Zr 13.690647395051533 12.445522664560137 16.953006117442996
Zr 9.94480877249575 15.775207152746518 9.828516425505933
Zr 8.861744899098602 11.975089562625103 16.432631847562394
Zr 15.493496733037938 8.312243639736579 15.26298479542779
Zr 14.531916222356266 16.997082428809897 9.168732888447696
Zr 14.369975075190494 13.78889436680568 14.156792256687872
Zr 15.269666976616714 10.874826936757545 10.335320488507652
Zr 16.414837594482023 11.0627368796106 16.324312021311034
Zr 8.370704281005514 11.88955263196146 13.654234330530652
Zr 12.668581293269904 18.232656887175963 15.747333210726145
Zr 16.736236456378077 18.47804495350756 13.22833933510775
Zr 11.670468552373583 15.51229057765458 14.48446483743757
Zr 14.052777472670408 9.704358461763722 17.333369997777638
Zr 11.295835970384951 10.588565656818743 17.171649306789064
Zr 16.354939421380372 16.429091835990786 11.241188784710792
Zr 17.7243232360477 12.802763504243607 14.108449241992126
Zr 10.129631230660081 16.875486262833505 12.366712046981618
Zr 14.141162147516452 16.960941014281907 13.42196613733309
Zr 13.16060906487012 9.17759976671433 11.198076404865628
Zr 12.342722112254219 7.749306281870321 15.846500938820983
Zr 12.82614534854758 10.04769865052534 14.364665944466353
Zr 11.427553655970987 13.304718305413891 9.35793186118891
Zr 11.281402441670556 12.395024415997662 14.53532588043716
Zr 13.952243953707752 15.643649932836878 16.312549302138805
Zr 11.132775799834805 7.934633909027457 13.016598020900137
Zr 11.046100598987755 13.780423354042112 17.125195956712172
Zr 14.341808760578058 13.950741761131866 9.127303755832399
Zr 10.475377589531897 10.590560713478222 12.041284705048641
Zr 15.627730837562483 18.076868801454836 15.889651429733508
Zr 14.591014511953473 19.010715147323328 11.212677498775461
Zr 15.883544085364944 13.487309623591837 11.630711635730085
Zr 12.287883321839226 15.82359162805966 8.217502345192486
Zr 16.73313541102859 15.698611823585496 14.261142124575652
Zr 12.732657223647092 15.428901791931413 11.21432261199308
Zr 11.81677679591499 18.11117163345096 10.114600819040447
Zr 9.741507620261721 9.563054771278253 14.901293415785968
Zr 10.162393723061218 13.851040664699873 12.103464544990423
Zr 13.757100586750411 7.234350661799866 13.291963262386636
Zr 16.090197758225354 8.530118921801636 12.149887971069747
Zr 16.32360212268026 13.92985074130289 16.520754074278873
Zr 9.077979467466076 14.411245659628214 14.931460294838278
