45
Energy = -328.47487412 eV
Zr 10.34137135675986 8.483539362311538 12.745694056717012
Zr 11.929401745006018 9.066505370216671 10.454260505758564
Zr 11.601311306483492 8.792963737752773 15.431289215572798
Zr 13.112048803714679 7.784095800395564 12.886795983789053
Zr 9.72571223699253 10.786679759893806 10.96580355936175
Zr 11.856325290887053 11.673605047649781 8.553042359517832
Zr 14.090805868731964 10.992897248541183 10.628010637982285
Zr 12.307751230759868 13.907514379346827 6.581298121238534
Zr 9.588906639346432 10.923953440296627 14.225346268195688
Zr 9.627735012178283 13.370598391613997 9.373498014905044
Zr 11.859599968722918 12.908951940026242 11.232862168320999
Zr 9.267418770578594 13.375549994102915 12.512242454873084
Zr 13.774184258636469 9.798783394209496 17.692839149548316
Zr 14.438210179541581 13.117920867535265 8.411119219420293
Zr 14.374692565740528 14.442821388266994 11.08272856615252
Zr 15.756556154808486 9.710201037353483 12.781400364924572
Zr 13.67196939792378 11.821063399919339 15.803380025153155
Zr 9.133959049359083 13.870070809185464 15.660836743919003
Zr 12.423979294897538 10.603325133688374 13.159651422058676
Zr 9.93100606157432 16.135348994169966 10.967569582844627
Zr 11.863086177803742 15.070951417157787 9.00876604094005
Zr 10.610217480155333 18.105570652511528 13.47668533050225
Zr 14.5081777416866 8.599732280046087 15.12618497318515
Zr 16.887029589175665 15.063640703574338 9.70514393136741
Zr 14.91650172526286 12.583167171955779 13.389070640434518
Zr 11.80762898115775 13.47870309642578 14.460260192048674
Zr 16.642046208010935 12.236285853333607 10.840385156281936
Zr 12.57613991151501 17.579014289542542 10.406051266543345
Zr 11.200689908129927 14.295693109010678 17.520235989983806
Zr 15.330893318680703 17.148379090861372 11.36165185746046
Zr 9.356070406167294 16.90953789766539 16.259407359529064
Zr 10.847370099705543 11.354655302176274 16.853768194308625
Zr 16.454889467361625 10.551425646073262 15.76882195788492
Zr 19.066961095662847 13.644445378580036 11.354076455170413
Zr 8.966063060828095 15.900085033745292 13.673593307294114
Zr 14.429631678280495 16.15931317086889 8.583747333353617
Zr 12.956371708248962 12.453274178112851 18.678996812893327
Zr 11.853198470957429 16.28472646805367 15.522871553619947
Zr 12.248564278152253 15.825360302192115 12.684276332728437
Zr 16.94507415228658 14.80881577169005 12.742203168163064
Zr 14.707170207771295 15.617106420356453 14.277956803845209
Zr 17.886849024436884 11.889235930662405 13.498519611870636
Zr 16.701061829802264 13.587827666463742 15.70937867228902
Zr 15.649413202259778 12.2340305258126 18.02354145434557
Zr 14.209341266659301 14.647260800713322 17.024978391032857
