45
Energy = -332.66335403 eV
Zr 17.483395679825087 12.488525358134776 10.472583164116243
Zr 17.055242985833928 15.309217948955078 11.315535938239982
Zr 16.627650225009084 14.746802097007917 8.632882004175112
Zr 16.337843138846882 13.398887700056928 13.39244604270582
Zr 15.521402823490618 10.7811297759531 12.74287777253772
Zr 15.752435182852377 12.232967701796301 7.903423004165287
Zr 15.073749541112619 8.613151146522835 14.835374793675872
Zr 14.495154963896567 7.957614145960542 11.85712886583854
Zr 15.440206078580895 10.257211814687265 9.974582274844215
Zr 14.778748844435693 13.315483339592022 10.608902622409616
Zr 14.651086544483652 16.511183887540565 9.815477651540114
Zr 14.803101424724993 15.86468071959962 12.925940440715616
Zr 14.081300816983626 11.480721521682465 15.585577623010462
Zr 14.027180675270925 14.442515201094471 15.72596763239141
Zr 13.760057502712476 14.52737208495454 7.8069904978864955
Zr 12.896261653583927 6.837874466256872 14.075251297211821
Zr 13.336649950254444 12.959033112805109 13.128384340382668
Zr 12.701231392419396 9.750090353457777 13.687567955828799
Zr 12.736382706202981 17.44647463329711 11.643439163912204
Zr 12.53932447477115 8.683181810650964 16.353728671570344
Zr 12.92967009942176 11.627038180830487 8.469114080212332
Zr 13.237364865483034 8.484794374444883 9.109216014334226
Zr 12.426191438347265 12.69324830388447 17.74583042640861
Zr 10.707494361434303 9.450804751969752 9.074119257833015
Zr 12.60336702169349 10.564865072829814 11.069438947137373
Zr 11.534155460771236 7.623913811310431 11.524243084851024
Zr 11.926679593346416 14.478618743369017 10.915055117126341
Zr 11.663498705794078 16.57769162450234 8.950326580944921
Zr 11.922577013653708 15.939132888673605 14.012984174324986
Zr 11.567399878776492 15.418347028283494 17.069187936772792
Zr 10.937716038326652 13.774770485309649 8.020656270748193
Zr 11.285108543325379 13.174203841425365 15.103647120523044
Zr 10.2707893763266 10.584536053551243 16.18069313763684
Zr 10.206272687606418 8.074128764796411 14.3476516371086
Zr 10.082032513925807 16.87244073505803 11.618839980372089
Zr 9.947409316437302 12.074269320189035 10.220731218869505
Zr 10.257122800058463 11.234514285398555 13.141250932826232
Zr 9.136967853217811 14.951125551651558 9.79340580491859
Zr 8.981199757936704 9.092818506501597 11.58667082860435
Zr 9.60099244325646 13.343486840383118 17.5224921829215
Zr 9.245614603514845 15.378003509317056 15.391132868877778
Zr 9.336687892627111 14.215289906244926 12.705222660022063
Zr 7.922865796030603 9.8410083321344 14.276296110951192
Zr 8.076747506850595 12.613331890893257 15.076130399751477
Zr 7.626428533256026 11.816509237554078 12.104473318383661
