41
Energy = -299.58262645 eV
Zr 17.792663960758055 12.818745267975949 13.235519302266395
Zr 16.180335524383118 14.401595600269236 14.94724564691254
Zr 15.253849469171856 12.774165379452256 17.077967626182915
Zr 17.576798602833556 12.644190975172705 10.424988191125044
Zr 16.354359644373556 11.142126331354431 15.10705166442195
Zr 16.110710183663162 14.62612578123217 11.725269644748831
Zr 13.29689707499004 14.645057766560605 16.034747676870822
Zr 13.783189184480529 15.674873908038245 13.45846007118428
Zr 12.622692511380816 12.730146801292976 18.093629562200483
Zr 16.158788302674278 10.735713544757196 12.036506284450354
Zr 14.168827625687953 12.60642299041271 13.628356545394228
Zr 13.456622306322844 10.665553600011956 16.32950481154355
Zr 15.663192326314991 13.961800769055849 8.783112913949884
Zr 13.547285301632495 15.556719474987904 10.483366383749974
Zr 10.3401731405018 14.173028842651288 17.22335201587324
Zr 14.106865266012836 9.381734888372165 13.704611902042027
Zr 16.105621779297724 10.914740211215413 8.862351190956844
Zr 11.003299461178901 16.16488350105486 14.817775313965559
Zr 11.808590446194358 17.24027929053815 12.228005084118603
Zr 13.984584628548188 12.354030135228445 10.420841249652929
Zr 11.1829696899925 12.725090515468178 14.747411901200001
Zr 8.432685043303369 15.102000305168977 15.312293919545784
Zr 11.369312105554688 14.162468470462981 12.034538194907793
Zr 11.316989507023989 9.582153353891771 14.626862173304295
Zr 10.525503452131083 11.06549343649319 17.137499818313927
Zr 14.443315086861153 8.70286097243573 10.823091396348483
Zr 13.731509982154671 12.294618944015605 7.484112257546706
Zr 11.885823435646289 10.765752757099289 11.724286069231976
Zr 8.97301724277938 16.44836847012958 12.621688468665612
Zr 13.683615629162334 9.584966749979937 8.177154499843292
Zr 10.788447468144241 16.61924710114974 9.783935383288878
Zr 11.906290586156809 7.871137592146585 12.328840648015213
Zr 11.488886269792102 13.70657375832892 9.081782063161361
Zr 9.196677812232048 10.739509703416134 13.226325496597033
Zr 8.379612397727161 12.331425952613174 15.763312308237206
Zr 8.294785525392534 13.532303604177754 13.009279331584127
Zr 11.187340354309631 10.833938280650207 8.448397944019476
Zr 8.824695424113536 14.768525489651209 10.268430603487946
Zr 11.879235184844408 8.277881010083936 9.571328812353268
Zr 9.547472002859832 9.253448427685912 10.661214264156932
Zr 9.290018654308128 12.11339970443594 10.544365026003211
