42
Energy = -308.42761581 eV
Zr 9.828307260832274 16.243459543753495 9.539728596721805
Zr 14.234232562144879 16.72625023851474 13.328206345780577
Zr 12.076499357961067 15.985665348912908 11.32703390716125
Zr 9.714595080773796 14.54300371167045 7.374261510475928
Zr 12.361758055781706 15.344427552438294 8.343893100471226
Zr 9.07935631110415 15.309988826277952 12.13790776004337
Zr 14.85626649373899 15.553659700394498 10.535469409259626
Zr 11.49630690643944 15.140033094535681 14.044041322148528
Zr 16.157615396888108 15.728754352440834 15.205968150210703
Zr 7.891176149448186 14.016831335172952 9.684514139006025
Zr 13.953886905662015 12.987689332239677 9.471735763899481
Zr 8.945997282296254 14.436182724660537 14.849795413951085
Zr 10.857448171094259 13.39310351988647 10.153184812212535
Zr 14.002667078245974 13.895722864954111 12.862756316220775
Zr 13.54186763958126 14.793035144945943 16.075050133244844
Zr 16.79583752101774 15.408147832430059 12.541767855271857
Zr 7.409717632375745 12.95681684661178 12.793294179811157
Zr 16.280867463089038 12.806541431234905 11.323218223852308
Zr 9.128456406393527 11.939169855335097 7.96086092891055
Zr 11.931824396118246 12.583514356685836 7.354861253220955
Zr 11.161329805922797 12.70055116152428 16.064778943819963
Zr 16.889772076357133 13.055330118551112 14.327237207487237
Zr 15.914293398728459 13.602774279889266 17.0086520921802
Zr 8.398181903111924 11.198232193918635 10.618767359615672
Zr 10.468850977519692 12.257435497133159 13.116802876715502
Zr 13.249405079094204 10.964034772326524 11.658461031297369
Zr 11.093141142699697 10.383377604235225 9.346868898554698
Zr 8.355192114675026 11.859018387140864 15.420345669751534
Zr 13.647979594084724 11.777429771656978 14.764921360049057
Zr 13.614281018094495 12.197675720678442 17.747042687583516
Zr 13.69653812037541 10.243756172537662 8.34710599334532
Zr 15.698329650639414 9.970925146013553 10.192199444727214
Zr 16.061531253679362 10.555906855196707 13.230166682717474
Zr 8.126334944584771 10.167611628188892 13.26616671941371
Zr 15.94583832914339 10.781961293854959 16.45496531187569
Zr 10.437546735134102 9.217773970306288 11.941157813338535
Zr 10.516419970713573 9.85710035645717 14.946392476648558
Zr 13.121586190610596 8.290115293638996 10.39087785241185
Zr 12.775260035088142 8.647469613306605 13.654499311957109
Zr 13.108554162588346 9.619000721062644 16.626472075934178
Zr 15.228012634168751 8.001568651310064 12.197542999500849
Zr 15.218434880352946 8.460729120122933 15.0285474969642
