44
Energy = -323.83629675 eV
Zr 10.580319247642377 15.913649148826366 12.962818316187912
Zr 11.92552056985626 17.170297930019828 14.999374128957406
Zr 14.01292623686335 16.65863059419381 9.830534848048213
Zr 11.15763417720816 17.04448288144445 10.251877868641555
Zr 14.496581109666177 17.984706169998624 14.916389875530582
Zr 16.013261800119054 17.437981636503245 12.416699357048191
Zr 11.730493833822074 14.98214430307966 8.291852521477384
Zr 12.935537399370109 17.942383924077124 12.331538357497505
Zr 8.712617624699334 13.770178187845366 13.654280949436478
Zr 9.355741170304904 14.800258207076512 10.53386260224755
Zr 14.58698269472987 14.254693579167425 8.475280395927495
Zr 10.40337124860325 15.001740175143093 15.925653381792134
Zr 13.731806458068133 15.178822004638315 16.326380270401472
Zr 15.976072288494697 14.555646195962094 10.920582150739637
Zr 12.343707832378124 13.223816176371262 14.445549635052569
Zr 7.7477616669852525 12.514115212289365 11.196134806319309
Zr 12.373070888703266 14.3057203656565 10.919997608264682
Zr 16.48262704945217 16.16252280639687 15.1926321702278
Zr 9.883443726546059 12.401504986082662 9.07447792810975
Zr 12.918074692655116 12.043976366591753 8.602161781964616
Zr 17.587012554834764 14.970742563621332 13.09937151584092
Zr 8.424044368395899 10.662242955836199 13.450294176201485
Zr 15.631616489233233 13.3148072354464 14.541009863705321
Zr 8.767570396875449 10.071947018742996 10.537858857208887
Zr 9.69967313668927 12.007434662880105 15.78606065540908
Zr 10.657378110279717 12.089894059266049 12.045895087785533
Zr 11.815416015969406 13.258780349895911 17.513614587021358
Zr 14.142160127165802 15.41812788971109 13.269133512789086
Zr 14.0705319077549 11.85734004908886 11.7428062489476
Zr 16.00243990327788 11.82190449922199 9.52598398268487
Zr 14.281731479015269 9.603500439115777 9.366215132900805
Zr 12.654218465338726 10.147710106219735 13.867598503418069
Zr 14.26903765333685 11.777395749435646 16.708110259499875
Zr 11.57717586081683 9.989449220905774 10.054827150878456
Zr 17.081958333645712 12.044264371025545 12.29010410830202
Zr 10.343072913101675 8.541375324452252 12.399636501980005
Zr 10.278420956284963 9.01581090980944 15.362133281016208
Zr 11.739123318003125 10.592984214303733 17.189062787508366
Zr 15.815287130834374 10.39896410306068 14.559628440414095
Zr 13.203282319040465 7.98426859739846 11.506950649729987
Zr 15.930430857635644 9.3648408686615 11.660615312995402
Zr 12.178017847837143 7.177962377195333 14.204165739258485
Zr 13.737211121847759 8.781193868049055 16.26496716009489
Zr 14.881993385261966 7.845315559775554 13.828924059932271
