47
Energy = -347.19187697 eV
Zr 11.705855708830915 13.383639779468595 7.21058232657293
Zr 14.706034472693892 13.623387291900638 7.6149068949901695
Zr 13.576955394716997 10.99904696203646 6.959363889034988
Zr 15.059170936446158 16.244194100978635 11.331207462186416
Zr 10.91950523328926 10.463834753755108 7.752100520708779
Zr 8.935121697689997 12.52656390076016 7.703735837309939
Zr 16.00401820018288 10.994611546220677 8.73731324152678
Zr 9.74844598028739 15.13281957020398 8.862742058967854
Zr 12.758094289864527 15.143304638613564 9.60085765476647
Zr 12.405237004717318 16.956501218129375 12.118626097427342
Zr 15.745468273455055 13.688786819607357 10.33563124952749
Zr 10.650581062829847 12.743363837014362 10.194430041338197
Zr 13.357258763275162 12.138397165653316 9.659421654187883
Zr 14.706997473328707 16.074128899685856 14.190254351616076
Zr 11.54654341885506 9.848266859704628 10.682762852593449
Zr 17.102112905882656 14.68365355972337 12.905231813670548
Zr 13.886457582197188 8.818366875044116 8.929041245085145
Zr 8.625214759645624 10.316047949717921 9.727464948224176
Zr 9.948917441673762 14.886477480621616 12.18470895885178
Zr 7.803136410121493 13.401021427808988 10.178242894685603
Zr 13.008253788244083 14.147783972813938 12.376832352777976
Zr 14.214778431164694 10.361570819453743 11.77683308227641
Zr 17.173424226503446 11.548396486544949 11.596891280545782
Zr 16.337880442189228 8.742814817277003 10.692914791344615
Zr 10.847953114998667 7.365929546907465 10.483448052249624
Zr 17.89842932811598 12.180998713806387 14.459325533965734
Zr 11.789314651962501 15.768628480160206 14.728177323330282
Zr 16.39422801752117 14.252739257610129 15.75969865481331
Zr 15.097236055674776 12.558752205197967 13.620659088979654
Zr 9.002306890378508 16.01261513386542 14.97890712313517
Zr 9.189151975469983 9.054216493341215 12.57022381015241
Zr 7.322733857171055 14.04356161765068 13.71461858311003
Zr 8.589675577874129 11.814299856633918 12.358596351327826
Zr 13.818256322276076 7.455295045328725 11.564430174105931
Zr 11.586346792076926 11.449086883726935 13.15762011712259
Zr 13.414098954316938 13.668781276633018 15.86341053821786
Zr 11.697620254691214 8.239641096931964 13.310767943761961
Zr 16.207906896491316 9.741505635089867 13.795395494706668
Zr 10.08895786419747 13.219225279438474 14.895181648766657
Zr 15.677077916267471 11.52345788988064 16.32481279330259
Zr 7.667885485117612 13.987431427629309 16.573673523430486
Zr 13.407846335859809 10.30560796813137 15.018325840776356
Zr 10.542251868125014 14.542516796575924 17.384847010066096
Zr 7.536665855197216 11.405851128153051 15.092506995005442
Zr 10.146397103948539 9.924645534667398 15.448557928316852
Zr 11.874836021125821 11.739355862096884 17.115932506825803
Zr 9.157342937545286 11.834958368507827 17.490613917991745
