40
Energy = -294.01260506 eV
Zr 11.45415823245849 17.989012869282018 15.599469063732663
Zr 10.040867673044007 17.36593828271943 13.138637680601343
Zr 12.872437631275371 17.87399557940182 12.994343305102268
Zr 9.481339751125716 15.824985648518702 15.674711552074863
Zr 14.12235452105486 17.01367260684746 15.503072491045081
Zr 12.07192530105859 15.478476328245225 16.99195933304856
Zr 11.958294647900141 15.319788351476376 14.084872320842576
Zr 11.872794048356894 15.28220141859343 11.285897066162297
Zr 9.579190950145108 14.03587474250753 9.817683336054799
Zr 9.054261120685343 14.661569838537021 13.019821093918198
Zr 14.776292418911742 15.61950673163482 12.97803021562183
Zr 12.279749376136175 14.465083163979486 8.465573718910047
Zr 11.020928989037348 12.971491292963675 15.476118169124886
Zr 14.235248940144636 14.010304844217229 15.620523969465772
Zr 8.35772718736315 12.059537702614344 14.367950893741222
Zr 7.744599248495966 12.446693145057152 11.611182672500282
Zr 14.563919729649283 13.539923255351251 9.993774538667504
Zr 10.520465491451217 12.593175557390111 7.3945903285005175
Zr 13.667232949033608 13.000557025326032 12.945615380027133
Zr 11.87117611471608 11.840847928524775 9.997189393049938
Zr 10.625948424964225 12.33985708165274 12.506695149490996
Zr 10.225513431296799 9.858024872855156 15.050679608398635
Zr 13.39933578078835 10.821439941510919 15.233857461459024
Zr 8.729609596848665 9.76509379003235 12.36662648777398
Zr 16.035603707602952 11.547358208826004 14.26001227066329
Zr 9.016959664960071 10.968886970338856 9.481717924370715
Zr 16.63097349604691 12.886642190755698 11.742889525661798
Zr 13.518195647403989 11.848710570699984 7.613520454495991
Zr 11.258146592266174 9.94066858766595 7.696244165713986
Zr 14.454879166177854 10.776004697171569 11.594572882297424
Zr 12.019217055412406 9.86120308701845 12.742213733327873
Zr 12.608556068445356 7.97415514644059 14.845028269317845
Zr 10.442856985433625 7.515912362979605 13.110666489503236
Zr 10.789831882818357 8.584997665248538 10.258109843751921
Zr 16.2031574651936 10.863838441393757 9.378093928133653
Zr 17.369108861747435 10.140129416806818 12.115252248536025
Zr 13.584875888662058 9.10162908004978 9.159945982992172
Zr 15.230761568438789 8.688225455345094 13.764583313379157
Zr 15.834100662408595 8.24383117907549 10.795092085939165
Zr 13.24439532603528 7.367621681821406 11.839752990242916
