49
Energy = -360.84561042 eV
Zr 13.144872979940063 16.392283030179076 18.03323516298093
Zr 13.81916525801484 13.662886523747565 18.257282215387033
Zr 16.746254752888863 13.382599632922519 18.3185954811274
Zr 10.969504705987141 14.417645985993582 17.4121757506412
Zr 17.742320470179028 11.459890460234485 16.301980205166924
Zr 15.841798662440757 16.04166013007657 16.99730980631623
Zr 18.078253915037354 14.504823286453137 16.034738654315582
Zr 13.825453175598762 17.909550784434693 15.538086255635084
Zr 13.274500429672798 9.388521097821751 16.299684779435978
Zr 12.530631826090616 12.160128190443276 16.15917549656973
Zr 9.720658102432509 12.054196000638447 15.508715716181065
Zr 9.263994972499423 15.183366889432333 15.152823162922502
Zr 11.046903393662904 17.177141081092447 16.490198392813536
Zr 15.259589372925495 10.857954264311942 17.62083427686454
Zr 11.16764110132648 13.729882863180245 13.393937429761355
Zr 15.388851728079883 13.304538174482472 15.642856841196945
Zr 10.743921481660976 9.316150153421287 14.511047872606069
Zr 13.516435836265293 8.175598821009459 13.863691233762744
Zr 17.609383356318297 12.928219476918278 13.694859617096318
Zr 7.904620625387638 10.377735828708968 14.343096465745365
Zr 16.12938959839602 15.766504276558468 13.9080636454368
Zr 11.233226055544419 17.10896156183967 13.699128605802947
Zr 13.158801692577136 15.19916688438817 15.173584818480764
Zr 16.012854686448858 8.510930784330414 15.828261927908601
Zr 15.527486706330032 10.648020817822612 14.286619379678521
Zr 17.497834855404598 14.246540298415493 11.260691638073586
Zr 14.829027319044725 13.474184707577196 12.510968363631884
Zr 13.859043214898211 17.365705726187585 12.484680699249722
Zr 9.768889943893372 10.98192027504171 12.232159206043036
Zr 11.22520345670268 18.03334997566551 11.033140265730603
Zr 9.431823690845414 15.802987808485911 11.90455518582964
Zr 15.480235774886996 15.980654754254537 10.475337064486283
Zr 12.433588706298266 15.089228565544632 11.070248017981687
Zr 8.123777716782271 13.193027926559493 13.26930747691725
Zr 12.77000498191491 11.146101093668797 13.370451632593245
Zr 11.755424680557853 8.888374135987341 11.528083676763194
Zr 16.73840676536629 11.367965615258786 11.22262574324783
Zr 14.717501740210533 9.26748674202197 11.44631964421209
Zr 13.277489303643321 17.470299352595273 9.420211624597082
Zr 13.03285738231496 11.902742005738727 10.422516884190673
Zr 10.711565196148618 10.680422952498052 9.073335399035036
Zr 10.676001821433795 16.024333322014062 8.96133033842443
Zr 9.726538059424387 13.327076499562885 10.57006719923278
Zr 13.437481567797121 14.91516758127706 8.138712285749973
Zr 13.124227395780522 9.127038667900768 8.986173542229198
Zr 15.707471712102112 13.327225242118232 9.121433680802399
Zr 11.035872400348278 13.342746384689104 8.0858093884818
Zr 15.49361177341188 10.521617260553901 8.850754341770509
Zr 13.262406080339503 11.727783771921775 7.493194264022176
