45
Energy = -332.24873088 eV
Zr 8.852292389856748 9.794556748588715 15.419107048547978
Zr 11.718490165617004 10.450290611856197 15.862267867347533
Zr 7.469559380817288 11.881408750425896 13.734853011923
Zr 9.678175168003168 12.671165499560145 15.721184425196357
Zr 12.536925001844219 13.413504264735598 16.771337378766756
Zr 8.182071446938439 8.90186113751969 12.731965909827293
Zr 10.670278670895856 15.759736836430225 15.553235008590976
Zr 8.371476797041314 14.652856938497479 14.075155468056256
Zr 7.179050305220226 14.135354969272857 11.328305184583616
Zr 14.071531281004539 8.773229861127206 14.97171446028236
Zr 10.980557339519299 8.024619151500156 14.192769191826168
Zr 7.086192843409172 11.161806849275136 10.993233347310587
Zr 10.337793353576107 10.794805095690695 13.07858393442633
Zr 13.689863471333254 12.094883722806905 14.151284410266078
Zr 9.822282537183847 16.07787770974266 12.045449299684126
Zr 11.54777285149821 13.982455893004644 13.659011296149869
Zr 13.522112573555884 15.784038774744209 15.450951624579812
Zr 10.61117639117408 7.761357482369918 11.462307131700213
Zr 12.537618710551563 16.762746408327068 12.76993049431607
Zr 9.527907112772501 13.004429845097905 11.506631422284492
Zr 14.444660905250798 11.110416721611358 16.812295025006154
Zr 15.918148144509749 8.668029000951293 12.63435555773711
Zr 15.472282901614781 13.652742217179558 15.850411928924645
Zr 13.487980980798055 7.154814123499761 12.053881387836158
Zr 13.001889323971257 9.68586301613168 12.316522099016893
Zr 9.249799618130737 9.693832104149713 9.89115041117706
Zr 14.929317379766932 15.093703622088599 13.100435494726606
Zr 11.770830658739365 11.430174351157868 10.280393683482101
Zr 14.566316363807166 16.440004098714468 10.529162304728846
Zr 14.652984870460504 12.210174002330918 11.279671591783497
Zr 8.596353363104244 12.397771856335968 8.701280775851325
Zr 9.234542727079294 15.150311864301518 9.331250149074174
Zr 16.3612099973023 10.767074619865934 14.542090910246994
Zr 12.391081956178686 14.293549603290698 10.97992233943827
Zr 12.262649207608767 8.717504137714487 9.259346176740703
Zr 17.021984696736514 13.253297299208413 13.326692526689731
Zr 15.122326896588225 9.391460374288522 9.881268177075663
Zr 11.943657468685654 16.397122204308836 9.31899169348375
Zr 13.608361365835897 11.345457164551188 8.038364021373736
Zr 10.739462452419996 10.704473762855798 7.595516459752732
Zr 16.564532402646396 14.308462918560275 10.590914672342965
Zr 11.317974173429338 13.587281351370914 8.007357514275165
Zr 17.22037613751834 10.996247565479878 11.49713349908337
Zr 16.316150913142167 12.000116010463874 8.849344827956546
Zr 14.279516451041939 14.263823918991038 8.556687317602742
