46
Energy = -340.35504829 eV
Zr 17.002492911823808 9.734145237217284 15.65575079270283
Zr 14.51740389971044 8.806856131935513 16.851564500926525
Zr 15.559720915485606 7.389628669440912 14.630297161940836
Zr 16.8866139273058 9.14705693580812 12.765096352841786
Zr 14.885135386850697 11.698511222291218 16.8225821473001
Zr 12.577939472703708 7.824758198350516 14.65009765823149
Zr 16.75587484466533 12.057174970715861 13.696935061432942
Zr 12.184090168429748 10.426656521780565 16.46524295111109
Zr 14.501899587359725 10.213041377711171 14.18881578652022
Zr 14.03946956733057 7.906747044146078 12.116452706111358
Zr 15.01001098767561 10.596533426379652 11.078321558291346
Zr 14.699443321832398 13.485463072039629 11.926399668078165
Zr 17.312409375068373 12.58473770880886 10.822869649796704
Zr 15.245018916735956 14.218439030900914 15.035225137218838
Zr 9.92472914843877 9.285441377477811 14.725806100360474
Zr 10.848779558495076 7.904128035053713 11.97483745402313
Zr 12.327555125422023 13.41680458202783 16.94031336970258
Zr 12.576402650752666 9.253655583343358 9.803859676015655
Zr 9.681321121742037 12.072498392775062 15.996067181532695
Zr 15.050743988979743 12.6917168557638 8.998846685238629
Zr 12.139601980664528 10.319831332871718 12.559693089255902
Zr 17.275573322959566 14.91809069862669 12.777031409188874
Zr 12.976576567956458 15.882720907620023 15.176783583853533
Zr 12.63489633214052 12.745525049844884 14.229137002539359
Zr 9.834138181773444 12.15338177146743 12.78806546524504
Zr 7.492958639052065 10.84690961094785 14.306073909374733
Zr 15.767326747931069 17.21507077060595 14.386613655502899
Zr 12.29554245575059 12.18278525331593 10.148059811472615
Zr 10.271974771519815 14.677914597548172 14.875878309100054
Zr 11.543048698849299 14.523086844313044 12.067742081331902
Zr 9.862788039067183 10.399809855925046 10.078778380588231
Zr 8.396834415397072 9.334531959597195 12.213655041402964
Zr 7.624790145250748 13.594219879354819 14.287899783191984
Zr 16.75929992768338 17.34232854327659 11.481669150762551
Zr 16.22716494185224 15.240933740479306 9.756522452889346
Zr 13.87886280830224 16.426014191758142 12.2029099238095
Zr 8.648031583190647 14.962311285404901 12.031645917674537
Zr 7.349294933020913 12.124402096858942 11.524850023170716
Zr 13.17781335260253 18.651388278850153 14.30373922010651
Zr 9.677593011586334 13.416075626755077 9.928583218884887
Zr 15.052654375768551 19.24903827941891 12.273583789820446
Zr 13.308974714630596 14.933818676553757 9.159499832008343
Zr 10.890563290401149 17.207331782489103 13.262450126378033
Zr 14.304122297729212 17.760449216107336 9.670822651010898
Zr 11.346068753229394 16.725036111649437 10.32214284520804
Zr 12.337534966374225 19.076178882151773 11.557910762098134
