45
Energy = -332.66288911 eV
Zr 16.625367690681642 10.274783559811992 11.76883208119515
Zr 15.810349534313636 12.739727553350026 13.157655949419798
Zr 15.798836027597812 15.358249633936435 14.58905977841826
Zr 15.344751302852302 7.631151574080497 12.476834505316878
Zr 15.299111742459782 9.82335650146384 14.424378280259047
Zr 15.34577735694383 15.499556335317612 11.851285427068936
Zr 15.894594471030839 8.406905669207097 9.765860668546841
Zr 15.447846528395706 11.167069136827797 8.98979809060766
Zr 14.087643973038682 12.9375667962066 11.003506260480938
Zr 14.876984746485283 12.779840059596397 15.895239280692223
Zr 12.914237682943845 11.52440867674346 13.673243043464897
Zr 13.25939050627286 14.261281218234219 8.543616981879206
Zr 13.368918428740695 6.984965784253833 10.32189450333475
Zr 13.650570154020809 15.433638117843959 16.3330570150704
Zr 13.45411760396012 17.094664177070687 13.816053268832604
Zr 13.523288111460573 11.76847809393689 6.835767696011743
Zr 13.705028550430526 8.938661968369678 7.937874913269829
Zr 13.673714818761539 9.702186951725915 11.346679241582894
Zr 13.03440936805218 14.337359630228919 13.547399339751896
Zr 12.839729739076631 16.139388453473888 10.866686588881523
Zr 12.64388268080505 8.44908904345831 14.096675432047407
Zr 13.17594898312044 10.40023953389767 16.396539136904977
Zr 10.918490453997096 15.668525183133125 15.378339709623448
Zr 12.199369009561282 11.246298559185057 9.310824466143549
Zr 10.648715399293605 10.371967964723492 12.048930757990076
Zr 11.906052604785206 13.067065362376688 16.459074496305583
Zr 10.583475303498641 16.29160454538425 12.409898294194976
Zr 10.900257970946402 8.317548942450458 9.267217841758487
Zr 10.453573064334755 10.511518579343447 15.641402394328736
Zr 10.89759147018105 7.192060155466422 11.8869398579738
Zr 9.643457211932553 8.26917851670936 14.037366941775598
Zr 10.469219742145157 15.65144445998886 9.078190740949072
Zr 11.165525187937327 10.066211267254046 6.813529491409358
Zr 10.982490026304578 13.443216373942201 10.764327348881295
Zr 10.861731444233174 13.068154284435598 7.269900929315575
Zr 9.96086473416329 13.260519538211623 13.496306935548029
Zr 8.316530004646452 15.658039833862942 14.23165197704426
Zr 8.447908783606705 8.800198916426547 11.289227768928138
Zr 8.80188473435106 13.162245914559161 15.976675667421468
Zr 8.212112957112115 14.955326835010814 11.32174772147383
Zr 9.159395635507083 10.726354266888508 8.800875426534043
Zr 8.515126933021056 13.465965552341688 8.864745967463834
Zr 8.04141569301457 10.67849239637581 13.932884957434567
Zr 7.85204489162726 11.93887657480409 11.21958873414779
Zr 6.956800674159492 13.358938095375871 13.55772902164077
