43
Energy = -317.67771766 eV
Zr 16.377368426636824 14.081192150584375 13.129482725432961
Zr 16.72189804612056 12.22216337306861 11.178315690461947
Zr 14.758426841670614 14.537799624695133 10.636527146741438
Zr 14.105620109729028 13.341364651082397 7.8324146191132
Zr 16.612824537828107 11.312225538525356 14.120763259524033
Zr 14.5303754610803 16.303697155742785 13.576367602288288
Zr 12.637419447766211 16.636361812235872 10.994722151661389
Zr 15.963114482990035 9.636877917818717 11.616514924802471
Zr 13.081976035758036 15.76876932206129 8.252844151850956
Zr 14.114685200880944 11.70808758865741 12.865765101378914
Zr 14.170196732360163 11.293645434053486 9.844674188080667
Zr 14.821159422088853 13.729923877936319 15.402510478902524
Zr 11.970449908796907 13.529363142843328 9.987038083513763
Zr 10.939738369078249 13.824485611048564 7.2804649800018275
Zr 14.571959240009056 8.835234935470716 14.131377045208252
Zr 12.603164358367302 15.67644358527489 15.757027002189442
Zr 11.55497999014714 17.025879237526084 13.576915484232227
Zr 14.009742372952287 10.824034604083797 16.081135042412097
Zr 13.154662523602616 8.715122626248059 11.567537625617486
Zr 12.30050745005047 11.144942363737105 7.190418630758342
Zr 13.388634911685067 8.7137189311124 8.644609359267543
Zr 12.63930152627021 14.298665660193201 13.047898981914988
Zr 10.389163618891672 16.00724668197203 9.100698545787068
Zr 11.663045131028188 10.213225004855842 14.026309746962248
Zr 11.116786422006777 10.443888778932793 17.054363745065665
Zr 10.80061287061279 8.76434501945641 7.355407431436251
Zr 12.469942232151354 8.242350456520077 16.12441136188911
Zr 11.188973873954392 7.226159222408137 9.796001284419317
Zr 11.905307828611111 12.923547577186634 15.935112144005386
Zr 11.135495690374936 10.335596726131735 10.009515523536935
Zr 11.835044987110553 7.205277580965288 13.606669506027766
Zr 9.793210600911193 15.382833637565925 11.837084918876068
Zr 9.305955080499725 11.270767427853697 7.815653193652633
Zr 9.914171378935896 14.731762106298563 14.667205284229611
Zr 10.283934317170356 12.342831825731722 12.425137228946506
Zr 9.604735909011383 8.63358483113784 15.199872770724335
Zr 8.771245109869525 13.617282252402232 9.677078178025274
Zr 8.712963195811351 8.606151842511194 9.217789645254292
Zr 9.70055610403296 8.532845139580012 12.070507013037087
Zr 9.10221687205795 11.851113276289128 15.388328761338801
Zr 7.983467582916064 10.977477932340909 10.612513606743404
Zr 7.718845922852622 13.297291799393005 12.801977947061753
Zr 7.959745900190458 10.390428418953045 13.372454274535542
