47
Energy = -348.01816675 eV
Zr 7.880188704290875 16.621919705496268 10.616276158860098
Zr 8.648032197197084 14.157893852578425 8.935440275350679
Zr 6.8651411670481615 14.217293304775273 11.378502152167986
Zr 10.335921969349815 16.74624653182731 9.293581440250962
Zr 8.079525744864293 15.903838118019898 13.501528477669758
Zr 10.195882337130188 17.580450123750406 12.095477547757422
Zr 8.30324638275643 11.780256250241752 11.170721758888032
Zr 11.844642557135701 14.329732763145858 8.889452413560463
Zr 9.997934248905853 14.575551095808928 11.39442831112158
Zr 7.333118299431049 12.945075625761772 13.894612555986294
Zr 10.641765223840924 11.883863349502345 9.344890662876045
Zr 12.631252376842 16.221187489663148 11.185481272413602
Zr 9.01597247066583 14.573007192847676 15.832913840482014
Zr 8.733743982435525 10.277589029530818 13.70987541384028
Zr 10.353755399525877 12.833829913495654 13.741432444536894
Zr 14.949639954029738 14.460112345148952 10.275771563223348
Zr 13.760146779815662 11.632621167580925 9.129834942257483
Zr 11.378399535550678 15.760021480668394 14.259792903803842
Zr 12.648963532895747 12.944167519385728 11.544771517620449
Zr 15.505945695177449 16.996264781373938 11.719030017707134
Zr 10.980786172117686 10.412697062741524 11.784482777023998
Zr 9.033520759869024 11.725235005117966 16.137874190920687
Zr 13.628655643265773 17.557874803923585 13.823520809667869
Zr 11.511833281883805 10.341292838047812 14.892751803189155
Zr 11.601346276884613 13.357690758452362 16.483092937093836
Zr 14.139090648642545 14.758016837988551 13.32174497821818
Zr 13.001429420356255 8.813111722175945 10.31624755137504
Zr 16.453536493296067 16.35694407469284 14.432625374821306
Zr 13.953126893482041 15.600343270596444 16.211385850890334
Zr 17.534421220644152 14.950960754014481 11.807522124370598
Zr 16.681635022587674 12.238771298070763 10.34486941326526
Zr 13.867664522546486 12.24965438785673 15.035448116441094
Zr 15.606473766109682 9.481821027528609 9.699310411733643
Zr 12.4530655766257 8.254539864960252 13.06747107905193
Zr 14.220907745912848 13.19789445773783 17.923246040715256
Zr 14.406421695487222 10.620632516042814 12.339573377389232
Zr 16.294268320098205 12.76394329165081 13.570344108597446
Zr 12.97507947211527 10.724365533550023 17.369534528804067
Zr 16.518222722955887 14.093860701218315 16.4591039318178
Zr 18.645497402172303 14.441214595109868 14.382601904282362
Zr 15.267111840406677 7.89888609589948 12.2979234971038
Zr 18.825879565826362 12.097320537327565 12.616534183069254
Zr 17.473530787235074 9.757529185459816 11.615488363729057
Zr 14.344998208604926 8.998090900887119 15.241480601659106
Zr 15.981018434465103 11.047282491221829 16.8917277582984
Zr 17.003286527451895 9.71477897753701 14.343771240006696
Zr 18.432069383430967 11.953007927993774 15.600940195742076
