40
Energy = -293.51066504 eV
Zr 15.765362865652556 17.812298726992147 11.890731827724938
Zr 13.276692992175066 18.952380284088672 12.152528430255792
Zr 13.91589166186681 17.186810028404846 9.738333043860903
Zr 16.657792999127064 15.780985263128013 13.66949653514629
Zr 16.02455590970838 15.199965224607173 10.639242569127171
Zr 11.265568529627288 17.61245061483347 10.863874461565706
Zr 14.4411427146018 17.705020055854423 14.534866607631475
Zr 13.381550460472658 15.809992397476007 12.38222416571218
Zr 14.370501106095361 14.025406386864464 8.371489072671586
Zr 11.336671752439427 17.551545637839304 13.844858052069693
Zr 17.468364096823095 13.480893982266844 15.297686985364493
Zr 16.52800781602239 12.510082169541375 9.661054047690094
Zr 16.779223517978604 12.948189502228026 12.478934645782838
Zr 11.820413160036145 15.00623361952901 9.677515810598926
Zr 15.78462958747978 15.53149879705376 16.59828517641207
Zr 9.903679098851184 15.483903102047949 12.138463646486294
Zr 12.595959756222538 15.934440855025384 15.893461356586755
Zr 14.425878657324652 11.007216131695822 8.683697076067721
Zr 13.809867438115562 12.839948218284887 11.107867163879627
Zr 14.529641750863906 13.731924894913204 14.655077739233912
Zr 11.546238240512565 13.672993829804234 13.931253065851866
Zr 13.709481276976062 14.17636150930483 17.93121073191253
Zr 12.005426376491961 12.302188462402636 8.637242952328739
Zr 10.958204204084321 13.994544099308804 17.294899552136922
Zr 9.45914162372061 15.188674358049605 15.2332958819325
Zr 15.419192870685073 10.31266437060043 11.408975221793847
Zr 10.5318369691718 12.634108054362498 11.072342547660007
Zr 16.099798850195455 10.855966873177527 14.537680953787573
Zr 15.72189293823008 12.392212339906964 17.159089822492497
Zr 8.62837516168929 13.140973931692654 13.328567665800954
Zr 13.126903218508113 11.050802086575652 13.55728501501803
Zr 12.742036050204018 11.81225262103732 16.50166202466592
Zr 9.665337693885435 12.068889336662602 15.720821798211965
Zr 12.419143032463563 10.177487843203666 10.748120738995837
Zr 10.096178760649565 10.538191495090581 13.150906305243781
Zr 14.697224309730926 8.436410224331198 13.670016074808798
Zr 14.346264816235813 9.351705558032501 16.392192977405713
Zr 11.456547135958502 9.319798259801743 15.572281413562475
Zr 11.70349247887966 8.130865490662883 12.905968717514298
Zr 12.944125150650429 6.995755716760098 15.146988037319021
