46
Energy = -338.08756012 eV
Zr 16.848668639253226 10.532514015279473 14.733790122567537
Zr 17.8343786285228 13.198459086691681 14.051930032568768
Zr 16.261124570782624 10.876761834426954 12.040626108746252
Zr 16.253168986082084 12.584766758558306 16.583946340117024
Zr 14.879908210059066 9.809281978502426 16.66246794291896
Zr 17.194562006629404 15.723616408157309 12.390798751817632
Zr 15.266473409399904 8.418140002095505 13.812505161553121
Zr 17.631778927458413 13.063867862039357 11.188219291373258
Zr 16.3515530761607 15.418597893999674 15.568217406250833
Zr 13.943164340950418 12.01598088259848 18.32811242003315
Zr 15.793641443417302 12.05745687469638 9.10240290890125
Zr 13.53161163367536 10.805013663757098 13.943966508263479
Zr 13.738197620530896 10.200552307197201 10.836208054671872
Zr 12.932978678619937 8.143474395806413 15.532901826115872
Zr 14.530951021619737 14.662277031656398 17.778313555665886
Zr 12.538388637802868 8.156562635903123 12.703978339172313
Zr 14.961135497268627 17.062223031893247 13.646840913443596
Zr 15.110689000140466 13.83316765586068 13.375032272829134
Zr 11.947674107446732 10.454482797348772 17.108687719338715
Zr 14.570586252197272 16.395885641888622 10.882650302604144
Zr 13.832303337258338 13.216052665006664 11.008073698438634
Zr 13.109104786784552 13.151191831871733 15.549237112579878
Zr 16.45289108448959 14.85947704226218 9.59367317829838
Zr 13.93228641907207 14.394055131100332 8.323747401625491
Zr 13.380074830993278 16.21043994402375 15.770834364310375
Zr 12.929894509908866 11.62502226065859 8.205369338586005
Zr 11.516959722716967 13.7755584009117 17.715146043971046
Zr 11.241961707798879 9.373940370097008 9.218943593682036
Zr 12.472842934316887 15.783468289171378 12.84495076971162
Zr 10.638555119525071 9.457854169101742 14.620338470146779
Zr 11.112492733896968 13.155100721277549 12.898049498998997
Zr 11.799123980810752 15.593242748762306 9.893590265924363
Zr 10.007805585761956 12.19484308345238 15.492631882621398
Zr 10.910576935767061 10.312226036698293 11.841092452758605
Zr 10.579513359146713 15.169003347875362 15.073138193183802
Zr 10.937773713485226 13.93699554231254 7.283033329225619
Zr 8.652921675902952 14.293822011393637 16.962608560090313
Zr 10.598877675902516 12.69514221272809 9.950993443922789
Zr 10.1763581437784 11.09297880588704 7.319839778189325
Zr 9.511036519456551 15.587841554810813 11.89958421689521
Zr 8.508180100593442 11.401586414725852 12.731323048500931
Zr 8.169625170388322 13.965384910385355 13.930356176427404
Zr 9.071315388821299 15.325185735351152 9.081581069488637
Zr 8.453572409171692 10.572427970142428 9.758056973271046
Zr 8.186631369540844 12.893505387932459 8.015170948020636
Zr 7.6645203873303 13.407344563218356 10.816021921114116
