40
Energy = -290.93708099 eV
Zr 15.243081096644545 10.772631050742845 9.62989698055658
Zr 12.404941586778614 11.833955360120864 9.83295309517522
Zr 15.121936882895843 13.506579843415084 9.939946467677627
Zr 16.832443430958453 14.830413265828312 11.998375773061403
Zr 10.328395504200058 11.281374186188446 7.7258742233260955
Zr 12.150635477851063 14.78338046722477 10.065724547674783
Zr 12.506954823192922 9.759032516788254 7.960798100160436
Zr 14.539798721289667 16.46603045317552 10.289754076941467
Zr 9.519703689584428 13.820039410896904 9.286505905702365
Zr 8.360223136542178 11.30335703328292 9.732358005560888
Zr 17.19569695043301 17.43629829149893 11.525283723660095
Zr 9.512772880006903 15.435048191317637 11.75761587119909
Zr 13.275996379770092 8.821842427329118 10.622420423768853
Zr 7.643909221105858 13.26813722552916 11.419358553552927
Zr 12.218748146843717 16.944753411744802 12.110839183834532
Zr 13.877536208561596 14.475673916548267 12.6052567340719
Zr 14.834121320268238 17.77345943801925 12.750267423020098
Zr 10.41222027615109 9.448522035782954 10.122666250962089
Zr 16.46858886912634 16.189354162836903 14.494880549854406
Zr 10.691546585383334 12.65888225325172 12.066751801506923
Zr 16.859181128818626 11.858671102206303 11.969569512190077
Zr 13.675117508001522 16.415161343328496 15.000375015187924
Zr 8.604747075875355 13.479967721309174 14.027071328324185
Zr 13.92450639284891 11.316312925020304 12.519694269927648
Zr 11.421859082349357 9.46224201034592 12.966241700013777
Zr 8.578411621592396 10.682945392214565 12.654053520512438
Zr 16.027423553567157 13.191979081440667 14.561531356846237
Zr 16.103381474775908 9.115645501801302 11.69527133572214
Zr 11.024630672516514 15.030472270486843 14.330087047219378
Zr 13.011327027650157 13.068770078571456 15.391461897878944
Zr 10.418466591386668 11.373436021520025 14.980354373433142
Zr 14.125355647795681 8.27465994271311 13.376108597742967
Zr 16.04951485655337 10.191728186237318 14.437569476083597
Zr 15.111908962659472 14.66172703300294 17.01737146349775
Zr 10.446084956109827 13.480379560702328 17.066305771011326
Zr 13.254962876821734 9.843944575840746 15.456780374336244
Zr 14.964604541434213 11.699642263821136 17.133834582962045
Zr 12.221421355322438 15.634810435261828 17.14220620268825
Zr 11.974161024650146 11.105088634714118 17.587917019180477
Zr 13.020996270267341 13.41139044740032 18.607663567080795
