46
Energy = -340.06571529 eV
Zr 15.53366229323687 16.891035428703482 12.966780945853495
Zr 13.121516456093618 16.002686531510175 14.712224124006742
Zr 10.826922877607403 18.162429727226517 13.745297741642016
Zr 15.685823677069104 14.472365046082066 14.59357036800471
Zr 9.87047208083221 16.404429391652812 15.825383115482266
Zr 12.834813301097215 17.568072148835054 11.828362705796541
Zr 16.974558423683103 14.476241799565505 11.800239262665196
Zr 15.189438520806506 16.34585160859544 10.015497603409354
Zr 8.27936670691741 16.85579110528972 13.400902016338602
Zr 13.93840704958812 14.752757338770598 12.0289940683978
Zr 10.701261795305232 13.453596161548148 15.935136574460639
Zr 12.89137834165871 12.906831582151254 13.873876523608056
Zr 14.102075107256155 12.16466259339847 16.228992160775405
Zr 10.77482474838116 15.259966305456931 13.376893816650838
Zr 9.983124540434218 17.014249208768298 10.898554022058661
Zr 8.121494415675556 14.191719702645598 14.71723718475662
Zr 15.902745444047904 11.944136772207301 13.277429450763043
Zr 16.178665378862583 13.766238367076685 9.06324734325039
Zr 12.309171344134183 16.510810294827674 9.236844236642863
Zr 17.12451519076544 11.574148183101311 10.612076387924354
Zr 16.46227486843884 10.54368125644857 15.97449467019897
Zr 14.171696425782537 12.113039968427112 10.695573703964275
Zr 13.355860902837282 14.092576154083755 8.47250450013653
Zr 17.107762831208422 9.151780391391865 13.498718981908986
Zr 13.942315161970257 9.410125802062964 17.09119735836224
Zr 12.112210487111723 10.715474047304912 11.813751462884465
Zr 11.351604294789123 13.945523357971208 10.887289389169316
Zr 7.071584002843955 12.291490691470724 12.695172383222065
Zr 14.150811946214473 9.754194150465965 14.081763085242912
Zr 15.009630329812913 11.130029548515518 8.317519279914022
Zr 9.934103218996858 14.597929769359089 8.732697590721981
Zr 15.310455998082002 9.271415488426893 11.050884964569128
Zr 8.209773090547351 14.652421660056403 11.416519587673468
Zr 9.986081701248379 12.211161624452368 13.192290127632434
Zr 15.748519687146505 7.7275948095055575 15.746956216109059
Zr 11.586419709953612 10.563356684811358 15.69776650236026
Zr 8.829567684098015 11.985012413415946 10.161796656405054
Zr 8.471307489438272 11.01696928774146 15.113916989573825
Zr 11.567882788682725 11.642894508789555 8.688455415138643
Zr 15.133164084953416 7.037125173431658 13.099684545991169
Zr 12.581564893947485 7.7634888192942055 11.909260914789414
Zr 10.227684596217754 9.336851622518981 10.256899180457353
Zr 12.802561349947403 7.453198269962782 15.073179660794068
Zr 12.999817152459663 9.201248979129153 9.304063651786501
Zr 8.188736811526974 9.861089433511435 12.258655201250516
Zr 10.435188916329297 8.882831471337536 13.575685665363606
