49
Energy = -362.51710036 eV
Zr 17.549772823734386 10.9401009930401 13.571878549856173
Zr 16.665509593988624 11.847923725660433 10.760447732592148
Zr 16.26583060690312 8.86474339015211 11.902487458801625
Zr 16.49959584788101 13.78613999251037 13.115008296890545
Zr 15.79100466683451 9.59060464489623 9.182386019992514
Zr 15.78639473092045 12.161304832233636 7.743542283928652
Zr 16.270814016047254 14.62683774682946 9.889978461462245
Zr 15.533810446698936 9.090660231597054 14.954599357777221
Zr 14.778251364971295 11.340303021149662 13.051845994335213
Zr 15.944156273339695 12.090807183308831 15.797663430862297
Zr 13.758419043225176 7.49745099699366 10.014536188062939
Zr 14.055942841878663 7.490766116553428 13.05059126838243
Zr 15.554368070313402 16.488608831749765 12.111048568392768
Zr 14.282777227937487 15.42876026957324 14.70763078830802
Zr 13.314287570516237 9.968224588576163 7.935296476528513
Zr 14.513257985160203 14.780356516224547 7.465147818738244
Zr 13.686207612477324 13.163080065787083 17.560323241088884
Zr 13.685816447888396 12.74931908780553 9.565439097973918
Zr 13.766575571456656 14.228242085438282 12.059079509919476
Zr 13.238528985593074 10.036234118197454 10.972735821853767
Zr 13.906566646318986 10.426598548439884 16.90681095984127
Zr 12.920793447473727 12.539512088319203 6.718892594237911
Zr 12.424843175799682 10.043573890964563 14.11737962973775
Zr 13.868963318476624 16.41469614126971 9.684926769397238
Zr 11.449922434702806 7.686669508205521 12.166905299925538
Zr 12.959961270219031 12.913914603224914 14.806260597670303
Zr 10.936543351080333 11.768360285788779 9.088167254513065
Zr 12.37272207521588 8.015333973125527 15.628233034669234
Zr 12.660931803097352 17.21990879724118 12.261520400820297
Zr 11.097685877466372 8.636194900933289 9.334923477755845
Zr 11.108949966343147 11.186186881009702 16.761620238939887
Zr 11.32615362683509 14.540393930364687 16.741249766088615
Zr 11.038443236374533 17.253888587623933 9.693364814349996
Zr 11.030352102017385 14.60551026531882 11.082413978920405
Zr 9.404543515143772 9.639788486425887 11.421045539271676
Zr 11.188815123380326 15.43007146828645 14.005000313974792
Zr 11.131854295186844 11.88223612221948 12.151508959753036
Zr 11.594799916036468 14.777226348261436 8.11482809805526
Zr 9.54225289723347 9.399584247118723 14.38047584643894
Zr 9.777023820377385 12.754661857045708 14.647594414400988
Zr 8.558990879080389 12.458031965787548 10.560468761454443
Zr 9.547847643996352 17.015384429744845 12.128704764510033
Zr 8.806167410636467 13.261214202289118 17.40583076322766
Zr 7.985268140098751 10.871642065325075 16.141665212993278
Zr 8.16909600314191 14.437579455409121 12.58771810190331
Zr 8.737267464349326 15.433796255453212 9.6749176508081
Zr 8.695148240989452 15.541593388256922 15.423905420483164
Zr 7.529356309222013 11.345274470201831 13.151474194943784
Zr 6.878194717392218 13.382200070862858 15.195565033482364
