48
Energy = -355.70970664 eV
Zr 17.283060191654258 11.67408172372302 10.658601150093931
Zr 17.415212421893045 10.676075331902254 13.831362765363444
Zr 15.65050984920419 10.003808654774089 8.565139223764954
Zr 17.58437865894136 13.596141410743124 12.882341767229775
Zr 15.90201266550093 12.841663090543815 8.249114621412724
Zr 15.93611830703085 9.231134783094602 11.413202058701078
Zr 14.291035316508216 6.921262127857199 11.626654772998666
Zr 16.46468864954482 13.192877629299307 15.559054031099246
Zr 13.23686688905898 11.62942681998811 7.5916666836010585
Zr 16.010975547980948 14.456539932229447 10.618265923616168
Zr 14.889292281648743 10.815840610971998 15.96553403994239
Zr 15.09900848796051 11.897293105205993 13.058834390116745
Zr 12.999529624120889 9.01775548242877 9.536590682739035
Zr 15.221753466754514 8.36133158042696 14.249987808610282
Zr 14.213133625332395 11.720632814906576 10.430145692878726
Zr 11.440466780778168 7.040993667769512 11.418365398114311
Zr 12.673960624814784 6.794817570489669 14.04044643103665
Zr 15.35364946719541 15.383946185489732 13.535258901185042
Zr 13.48417799790462 14.43394270275162 8.814431135487764
Zr 12.997406962080538 9.346243121531243 12.490081967035325
Zr 11.75238045408815 11.505457530911869 13.649773037000084
Zr 13.46005007789604 13.446826229861 15.07666461843955
Zr 13.868334611083144 16.535804113750686 10.92571886341296
Zr 10.667825317850472 10.483739367346514 8.263223168303906
Zr 14.81542696744795 15.649776989319163 16.481738744345808
Zr 12.844038402359962 14.18630870438111 12.120938161645903
Zr 11.33920369044195 12.387732960455036 10.47027424523283
Zr 14.457152159788658 13.148124637228928 17.85803200636267
Zr 12.478150762513824 9.150857434339848 15.730235157171379
Zr 10.545283725252343 13.469340969856917 7.95542986374098
Zr 11.164021042262384 16.03325923136667 9.669505853706235
Zr 10.253513317297408 8.505044098896127 13.81521584745392
Zr 10.207819114476845 9.595520364661954 10.991854117120656
Zr 11.854793460855646 11.938242635874037 17.196838262859536
Zr 11.440705374951778 17.368970284167553 12.304433336006873
Zr 8.548886786324253 11.92675441451322 9.65252444660478
Zr 12.453133011756522 16.136128584393724 14.53341704990719
Zr 10.34969593531939 13.705984767252632 15.146821673750505
Zr 12.117931144473962 14.880178047871203 17.272887471084715
Zr 8.871937215427216 11.44630133716423 12.939464877160336
Zr 9.659474502292095 14.405068688819952 12.153035543573466
Zr 9.785939301889545 10.703768878418837 15.679257921980277
Zr 8.243968404481894 14.8999732261835 9.54268311677491
Zr 9.018018755782542 17.266517344879368 11.180061644961079
Zr 9.183399708275099 16.513786961093057 14.177955481224682
Zr 6.834324678276154 13.158701849792267 11.59414711948832
Zr 7.5715445857625845 13.88478338329415 14.291365176835221
Zr 6.957636103466716 15.836316297811672 12.221144691976487
