46
Energy = -340.22739732 eV
Zr 15.075019226223208 13.832082086811894 15.769405555657187
Zr 16.739954602372947 13.110479378838471 13.374056294051936
Zr 16.617700354229513 11.324025022040153 15.689179158118735
Zr 14.055996154535066 11.116517657935944 17.153434564486776
Zr 15.063477921981457 15.799817992144728 13.379910167585498
Zr 15.359376744964473 8.89412591102939 15.487884302892306
Zr 16.340577740052655 10.06053862924548 12.843802668418629
Zr 12.428901269722372 13.787579720119336 17.178812337732758
Zr 13.347823868057691 16.259953968465958 15.711900568545841
Zr 16.50462638347744 14.770209776125283 10.974576855640379
Zr 12.438411555783707 8.801923834238174 15.45745692870127
Zr 12.19418668426019 13.911466067944316 14.319040691606364
Zr 10.95141149053813 11.028635775705583 16.79532200426047
Zr 10.713643884419723 11.270048647785996 13.862791287956044
Zr 13.955040875756465 11.217775512009176 14.329068447293348
Zr 15.190849000838133 9.108458215578244 9.941102895084658
Zr 9.676733359861407 13.482466535528367 16.329702692338184
Zr 16.149157253852838 11.905015335748768 10.474471272106392
Zr 14.237858062027048 8.011456348811063 12.953203501894249
Zr 13.989637770873909 16.183571300336798 10.469390037935986
Zr 12.376955919414764 17.061829697520565 12.918586621143856
Zr 10.5431677133535 16.13686082195702 15.20360692392299
Zr 14.09733073644584 13.325644965844031 12.064086193779948
Zr 9.490987853797575 8.898860095949138 15.15082672417336
Zr 8.024758426547608 11.318480142412234 14.998593638890995
Zr 11.180317269804124 8.274601890903982 12.782949980329128
Zr 15.064974285846265 14.077954017649224 8.534594873420435
Zr 15.095624758845158 11.190750978502995 7.8494939889744515
Zr 12.80967202740684 7.603462515964044 10.402422743542596
Zr 11.399660181806004 14.524566151042912 11.424718344991534
Zr 13.091159286654467 10.354395759170862 11.61205439443321
Zr 10.93114230356439 16.87131313911763 10.084793861528636
Zr 10.213725200814219 11.967131545446223 11.113440441734804
Zr 12.688608544492741 9.522272545931026 8.143972299222908
Zr 9.463169722041709 16.65856251741976 12.556506017597536
Zr 8.887382486063393 14.05033840847415 13.711033718110293
Zr 12.488819407178164 15.25589426979754 8.170495741778389
Zr 12.795869878322579 12.33628813432245 9.51100499969874
Zr 8.385533293201622 9.611023110557905 12.434945958414138
Zr 10.328812590335618 9.106460825414267 9.987954934765645
Zr 12.661300519571036 12.518015496411277 6.835930807629178
Zr 10.096703949723857 13.80997183937339 8.562524459189047
Zr 8.397716844863165 14.475811408801638 10.7946942411232
Zr 10.263545597810122 11.047353899960266 7.846415754959761
Zr 7.9903091475691 11.240757286565806 9.71177660719135
Zr 7.236893332586613 12.227538853806054 12.33847158376978
