43
Energy = -315.27729121 eV
Zr 7.397618185274726 10.92626960076855 11.242788035825596
Zr 8.827382026911977 12.285642363269027 13.813596177497315
Zr 9.699239911223723 8.94383367892105 10.517018047114878
Zr 8.869214272509398 9.5461911428483 13.26556814183923
Zr 8.924051931658251 15.154009345080713 14.50491635215006
Zr 8.341628839224768 10.57211269382773 8.530193553558027
Zr 7.655498425979368 13.254842222584225 9.309006705376076
Zr 10.466821300085348 13.345143411508616 16.155433350802603
Zr 11.261582254309053 8.009672894347661 12.981441386068447
Zr 10.031233140870382 12.00838807484964 10.652183386880278
Zr 8.348600709255523 14.498807969911782 11.829575443819149
Zr 10.479757863717767 10.321512458985055 15.628521262729668
Zr 12.646696759979104 8.967710606963612 10.396336523132625
Zr 11.448190786975545 16.21018289390199 15.360610790076302
Zr 12.872515395485394 14.258369361255792 17.37190950759301
Zr 11.249050068947746 10.384359628026772 8.157194714344012
Zr 9.77108528735993 12.829497132207477 7.54200384453077
Zr 12.711310756690503 8.56350126421266 15.457596737335054
Zr 11.185127281665366 14.150837606031429 12.66222241154672
Zr 10.361760423274355 16.786855424519786 12.441981644593655
Zr 11.927205445559226 10.895517026446337 13.214768784642272
Zr 13.46440663994701 11.327341754919821 16.37436947456015
Zr 10.189921063445807 14.927236232128786 9.645533259747495
Zr 12.466024791753762 13.277551524601813 8.084552088724488
Zr 13.0829970271616 13.690547737901198 14.566684298813326
Zr 14.13662902740827 8.526419980601407 12.96967269654518
Zr 15.494969865463343 8.8783059486426 15.740072404583833
Zr 14.256935422399645 16.269456662959865 15.879072173369263
Zr 12.955854657655031 12.15862018141234 10.752398027983537
Zr 13.465952135643041 16.737808159321823 13.12506113222729
Zr 15.264003142541606 11.162782322959671 13.940526327930607
Zr 15.630176615738293 13.709578315702784 16.155359776041646
Zr 13.053428608660571 15.226288629285575 10.51018769893985
Zr 14.09487335336157 10.79797855631209 8.419368882902033
Zr 15.101164908939678 13.688579513658329 12.469721802474032
Zr 15.514826772396031 13.317883785209052 9.66618473507971
Zr 15.366769792262993 10.38849127531332 10.884447168558054
Zr 16.592308075017005 11.053870554576955 16.58276021642896
Zr 16.389219416002508 15.935395223318544 13.98517274417058
Zr 17.716171991761737 13.261264112735061 14.170932338755302
Zr 17.518327411305 11.830994879382592 11.78140335913633
Zr 15.598393409697392 16.301058848774414 11.089927585122405
Zr 17.743958537917443 14.65784394012497 11.564351957162069
