48
Energy = -355.44964263 eV
Zr 17.092627356636868 9.32041576411917 15.866498368826425
Zr 16.169996111882593 11.04113680551817 17.82657160707566
Zr 16.97071743782466 12.30120410479712 15.241711574843826
Zr 16.971116528401115 10.270375803798458 13.116797826704598
Zr 14.446290099878347 8.541623255621372 17.31622816012733
Zr 15.265785144682832 7.739269040507957 14.180010065088434
Zr 17.389011748829546 13.646614100100154 12.341708852004794
Zr 14.405472713500108 10.502282483584123 15.421253357785268
Zr 14.804753430514516 13.514741253054755 17.04084309550012
Zr 13.466888744186402 11.249173258554473 18.35374006016867
Zr 15.798464489132744 15.1833642113322 14.711928544591904
Zr 12.574396625102008 7.841206682930265 15.039323055414513
Zr 14.84373000052916 12.93349623386996 12.912277766112759
Zr 15.731093113501336 8.29472032196405 11.360963519582588
Zr 15.83868866377768 11.24717553577133 10.56802945838231
Zr 11.526931957538865 9.978491272847176 16.768827378164254
Zr 15.569124069214798 16.14682656667063 11.829320940349456
Zr 12.959612292006996 7.46511807715682 12.125529479598406
Zr 15.494028603745662 13.96925613146086 9.96380302206052
Zr 13.661867994682469 10.150971915134239 12.6312980441265
Zr 12.97356525265868 15.643065596940124 16.029560876744753
Zr 12.556637809074378 12.60523194978233 14.850847192832196
Zr 12.78982366728209 15.077838170786352 12.905419543457361
Zr 14.323084095405 17.49584512460444 14.108053290235786
Zr 12.970019482826096 15.463312472686003 9.839784724879049
Zr 13.56660254140377 9.408568946933315 9.785108862305076
Zr 10.777133597238002 9.800113544543198 13.944926329411746
Zr 11.587105281645705 13.213370850343482 17.432183369009998
Zr 12.893814763320584 12.298395962669183 10.64399416319843
Zr 12.852309230769913 17.768674130010584 11.63829584763619
Zr 10.601204672715522 12.613566064045205 12.559098549716756
Zr 9.536813291965007 12.004160747288886 15.376638283377222
Zr 10.217804343962424 16.1130902514318 11.932124194154888
Zr 10.84028885886455 9.620808767192178 11.038016091888995
Zr 11.490330806828581 17.461310171446506 14.204546677137916
Zr 12.841895799512377 12.902873825187973 7.862782341658155
Zr 10.400844855575919 14.718657357564537 14.88556042920045
Zr 11.115582617287368 10.705939911360154 8.461381839147236
Zr 8.388765777472283 10.647007731769047 12.647280561966129
Zr 10.441990703611108 17.077923530018726 9.114435465845304
Zr 10.28506915699728 13.988064067880742 9.656229079918225
Zr 11.52119582913482 15.279202240148892 7.149800877256017
Zr 7.9235060493909755 16.0484479814092 10.093764147449647
Zr 8.633409591172656 11.259460225534399 9.837102900707745
Zr 8.003321692459188 13.655865262825431 11.868052519671458
Zr 9.767045835728972 12.768929837128594 7.0358490796811894
Zr 8.694477200001957 15.45237923458349 7.404399357382561
Zr 7.322681152289844 13.508136497525964 8.952196713604271
