41
Energy = -301.94990181 eV
Zr 14.652617326302147 11.881275117458571 15.627566649844994
Zr 14.982656278701793 14.763947351912945 14.23885270113335
Zr 9.542343510983732 14.543426093781516 15.767557568523342
Zr 8.584804995866254 16.44344911262535 13.769629725465753
Zr 12.362298861009794 13.650448079477815 15.065063802195802
Zr 16.9353359569963 12.711707277756538 13.73121901989095
Zr 15.962821509180143 10.055038553700523 13.857629036356496
Zr 11.89135277689526 10.951476572372274 16.370977891912382
Zr 13.580428941894258 8.843863032051049 14.992691562338408
Zr 11.46939374222818 16.450555993450013 14.492268064537967
Zr 14.242279550581985 12.521119227828382 12.581566124912381
Zr 7.489718168908152 13.748233349583257 13.794055122022447
Zr 10.55035801226855 16.984720748074633 11.806946642756685
Zr 10.50155182909784 8.755692941761787 14.913550457097445
Zr 16.061586757857025 14.262950726261588 11.314256561637652
Zr 8.209328340356919 15.125464327845018 11.109365885145614
Zr 13.0844310551892 15.340001847881684 12.01048503187935
Zr 10.332063470056879 14.160413175964237 12.927747932053055
Zr 9.579598236959935 11.729699126499684 14.616351078567279
Zr 14.508641978306988 9.018654186659964 11.796386531581938
Zr 12.299616839269882 10.956940477234973 13.499170682826428
Zr 7.8017239582638975 9.720187479265805 13.573546718218502
Zr 13.594774706763584 11.444673611187936 9.91446263104423
Zr 10.383074911324412 9.70889383888884 11.860172898797849
Zr 10.842560790510074 15.35729804838601 9.50701527750317
Zr 16.75817315911084 11.150356922975421 11.227574466400139
Zr 13.778747316289262 14.432806963875596 9.093225295144274
Zr 8.20616233332104 11.963644151284857 11.549432118801148
Zr 12.032075002451135 7.319358489972153 12.691183558142045
Zr 16.218731881888967 12.66136380478593 8.892178178408274
Zr 9.064588230183004 7.229537255608773 12.812549960099311
Zr 11.153510789523063 12.632241557994742 10.702522631340745
Zr 15.300147601143662 9.737700236241366 8.617512315752121
Zr 7.741167325447921 8.957183830496074 10.806826301979198
Zr 11.490029788282646 12.890689566499914 7.688232812072827
Zr 12.636702614642008 8.454243506305366 9.813209953987725
Zr 8.860358812568684 13.23498687325308 8.937889301652719
Zr 14.275675961153038 12.198680619569682 7.079264516318077
Zr 10.06754786010243 7.353539731292205 10.14914319158234
Zr 10.047593480282089 10.407627200578967 9.013110922305211
Zr 12.486071688646065 10.063232626162971 7.411729495471844
