43
Energy = -317.37581425 eV
Zr 16.741414450886 14.023771495712538 14.937714660807712
Zr 16.436395968164646 13.91163684375312 11.938726968149485
Zr 17.262697832166253 11.605447087047716 13.705382249460762
Zr 15.66305836963232 11.526984345284896 16.22919813575178
Zr 16.238127717211224 10.98760780032878 11.143622419530566
Zr 14.260739482623814 14.412639254618233 16.341449696733736
Zr 15.388027476781858 8.23716969471706 11.160177772184563
Zr 15.029154797472952 16.02305648019378 13.786080106095321
Zr 15.441438465054134 9.366901990775837 13.78397688021761
Zr 14.356478855479804 15.800563078665887 10.81775285099849
Zr 14.331238033042366 12.444076375382126 13.926808132379113
Zr 12.891528075907114 9.811121290845449 11.898273125008496
Zr 13.5839090226096 12.662858076659184 11.104210777086204
Zr 12.767399512716818 11.935715230247503 16.79493368707
Zr 14.318068475258642 10.04055835635285 9.017714533791956
Zr 15.223477027783806 13.035617655666957 9.067483565686272
Zr 12.801637639710206 16.74586553432154 15.546224823428776
Zr 13.036035808676122 9.729485756057281 15.119007888628994
Zr 11.191059816535407 14.225514527924709 16.164391937471397
Zr 13.178681582908848 7.231065483256459 12.939049844773086
Zr 13.108078342754911 7.4194865492871065 9.908351114258242
Zr 12.849619349264685 14.654406624249713 8.57199955603876
Zr 10.5783721694594 7.426980241794812 11.143769520009938
Zr 11.405024574402402 11.886332497713305 13.7858525064896
Zr 12.070777783426923 11.997588158718832 8.408073692294606
Zr 12.229217258853923 14.867711031796079 13.232660357658135
Zr 11.298766484406386 9.166117321888624 8.512487076456225
Zr 10.839290893071325 13.450821357088135 11.088604051640726
Zr 11.657981150043359 16.496986747651817 10.140375477507172
Zr 9.914407862497194 11.294123771410346 16.018734135412274
Zr 10.408880227312224 8.996396053356982 13.70769294065671
Zr 10.134205367400018 10.483182757694735 10.982345795874439
Zr 12.385138688389763 17.630510758366764 12.762556003131849
Zr 10.174134987685418 16.613835781181074 14.613568930257498
Zr 9.25070879474195 13.925275577052336 13.740023997238069
Zr 8.020389125845318 8.55305681558376 12.093922286232484
Zr 9.875517883782639 14.434429661880138 8.722255183711573
Zr 8.56091838561871 8.61207049383431 9.19840458781828
Zr 9.019860956347264 11.483131186602288 8.411048766460144
Zr 9.602449408819803 16.114806498259156 11.82192660130748
Zr 8.23637232832994 11.267433005647113 13.244003879242412
Zr 7.930182545131313 13.274748601410717 10.800732544992922
Zr 7.083622989960247 10.67846125896574 10.487326288484258
