40
Energy = -293.99569699 eV
Zr 15.959749463227412 10.101555952183158 8.133103924639721
Zr 17.341502331476036 11.388838886004333 10.250302784038917
Zr 16.21764596702449 13.656175868388358 11.453527171928533
Zr 16.856724889248202 13.379370844784143 14.233421300153985
Zr 15.34893733837114 13.052201012022655 8.491208762433867
Zr 16.159418086381248 8.826435342311687 10.67907705493768
Zr 13.757897813279367 14.562406849048214 10.863015516443218
Zr 16.000313921483567 10.710897969377333 12.967481345240708
Zr 11.677381823643946 15.815854025646258 9.34048191438051
Zr 15.059128497318369 15.657030032271656 13.391649586072111
Zr 12.413407407708847 16.982268889134936 11.995711603997393
Zr 13.501398009231737 11.00709628386678 7.42476643937832
Zr 15.40307624534517 11.588833762799112 15.911430630661133
Zr 14.267712556012729 11.27545075431406 10.444281201680345
Zr 9.683480267666233 17.030855263751686 10.809089093134595
Zr 14.802821748503545 14.413217831726858 15.994605346371152
Zr 11.858602941821994 12.96776892161479 9.019286797957282
Zr 13.643157147526795 8.492329440357025 9.233522003730707
Zr 13.880257856737618 12.853876684919351 13.556988449603907
Zr 12.311406924876133 15.299193244508237 14.624694107606514
Zr 10.049644354090594 16.88105261279035 13.616890511823136
Zr 11.09910147446497 8.267835362025863 10.80604820366327
Zr 9.03765258425665 14.386611896545332 9.585147270372437
Zr 13.372206453007449 10.034428208283929 14.657239104184784
Zr 9.2951860774359 14.30086047980618 14.785604553487948
Zr 9.22135045977235 11.35153741660524 9.8506898666635
Zr 10.816688170858633 14.344229783400756 11.9701417756436
Zr 11.599995358061621 10.985537741360103 11.714238233620737
Zr 12.550153248054492 12.538663785278409 16.330936497886807
Zr 13.745863680061284 8.47303747256855 12.240867575543898
Zr 11.256449088406326 10.053575997660868 8.582236138276338
Zr 7.924309904506151 15.414123069194217 12.308057153938337
Zr 7.568429351878941 11.808895874397559 14.696368715379258
Zr 11.33472223701871 9.778888564522058 16.640730002362613
Zr 8.736090482585922 9.828437809626212 12.532277142384535
Zr 10.623329030452165 11.689405090382014 14.2792354877662
Zr 10.987954125526738 8.574346526920316 13.788005629948069
Zr 8.13027683181304 12.65363757741271 12.076073444044713
Zr 8.780206572833112 9.44369189557274 15.546757953315012
Zr 9.438171574680776 11.946806109119333 16.90342037657609
