48
Energy = -355.45491126 eV
Zr 12.980913927817333 6.946384409799378 12.850617482907168
Zr 15.451618035094906 8.756155049735336 11.5855748869141
Zr 13.154637098625138 8.10694237123953 10.17712031162896
Zr 15.274209099178414 8.063281560388168 14.4419280319421
Zr 14.669335694726263 10.236268009553049 8.746902035072953
Zr 12.723994221957225 7.824985766693885 15.715793505495165
Zr 10.202046365126739 8.298608417746374 14.238258543251193
Zr 10.551522503220639 8.838298557987528 11.270302720084722
Zr 13.029073572222794 9.643498198655363 13.400302205717097
Zr 15.911115317563443 10.904624353107371 13.726981684819743
Zr 16.50726712331386 11.65865278398355 10.960063910343896
Zr 11.626316071258334 9.792331219388442 8.723179199450637
Zr 11.330161529837365 10.180779212628526 16.52830040162648
Zr 13.389846087209374 11.248861516190125 11.034896547911366
Zr 14.446768473268751 10.202101182326235 16.404738895486098
Zr 17.02366580620103 14.657341484397005 10.606760592845632
Zr 14.782744032554298 13.469739500531642 9.22681357633221
Zr 13.222958039453093 12.414556794147343 14.798951420933054
Zr 12.94561123786784 12.55635203095053 17.637643898261064
Zr 8.969167399109093 11.079550904948556 9.133556312036367
Zr 8.502331803279858 10.645529400155748 15.435088008425284
Zr 8.158391343562572 10.444790603225577 12.277953280474946
Zr 10.629490017790951 11.076745054437495 13.68532933263105
Zr 12.03035326387145 12.455624896684006 8.365199682299902
Zr 14.831841988957674 13.615006613566413 12.3102090374456
Zr 15.567749917113387 13.355853363558905 16.048248207435858
Zr 11.479501119855001 13.921845829046486 13.45174737360615
Zr 12.271939122400333 14.425580724110379 10.766654568257866
Zr 10.19679565976172 13.039311116573439 16.27256879459701
Zr 10.456197008478565 12.115202838209646 11.070976245366415
Zr 12.718019427756202 15.440546072252864 8.134698914430361
Zr 8.319329203145609 13.16759731188964 13.764562412202332
Zr 17.530179103160688 13.769122914584297 13.402382098027328
Zr 7.701232824673766 13.140487545533343 10.91764168428365
Zr 17.34250231121048 15.683309897162362 15.46272036539797
Zr 9.812417558215738 14.36125146388852 9.008249616231325
Zr 14.580620139325926 15.728155211449765 14.133738046834134
Zr 12.401878926010983 15.10894246671654 16.122369034577495
Zr 14.436322146556137 16.406558944197798 10.644330950211497
Zr 11.918698782742066 16.827576967893787 12.932213005238399
Zr 16.992599817763786 16.7221522108878 12.643903095739853
Zr 9.718997893405636 15.70302269961776 14.772273396128737
Zr 11.300754338473967 17.009937369735905 10.015759357168792
Zr 15.011819395625562 16.2493206428938 17.071276644682246
Zr 9.277364615553923 15.456730398144225 11.756986020116187
Zr 16.066706751850283 18.183930083966704 15.116090561963123
Zr 13.167726749151322 17.98378018928132 15.456128220215087
Zr 14.405375493294557 18.44662740189179 12.807525206794566
