43
Energy = -315.96153427 eV
Zr 13.403722393738509 17.57574636365335 16.85655968269374
Zr 17.625007781883863 16.023649908410984 13.871036933174272
Zr 14.774707075222516 17.814866262658033 14.400985102439053
Zr 11.6140195353694 17.925759492150338 14.417486436987272
Zr 10.824307754382614 16.52809699199153 16.91806128261949
Zr 15.657070549491733 15.688576135291827 16.25363671074806
Zr 15.387821929295367 15.110694518857867 13.15388243007927
Zr 13.080289064624832 14.861176608785279 17.952982267618406
Zr 12.866764059512157 15.381226515089873 14.854292905054448
Zr 13.37559362503126 16.91986851787623 12.057392692267458
Zr 10.718900151472754 16.18362271083677 12.090468241074834
Zr 17.35215231362833 13.151263705651418 14.87721411154256
Zr 9.608972182378682 15.16784355750204 14.730475492474223
Zr 10.30289468336368 13.753881844548927 17.441582706603846
Zr 14.71738386513264 12.940990323429096 16.186531665927014
Zr 15.090658432207952 13.951342813022682 9.890680686294148
Zr 9.939640750266703 14.025804047379841 10.152401532258997
Zr 14.787179161427632 12.135141629655903 13.404850754067613
Zr 17.49066701454859 13.372571939084953 11.923559342096866
Zr 12.405102968563913 15.201746359403142 9.293934783053842
Zr 12.789106528718278 11.89722589965963 17.85597643702686
Zr 16.11453664508653 10.403015789880484 15.482242282063549
Zr 12.702756219839976 14.011061069912214 12.051773667686072
Zr 11.736925908110981 12.575853654610118 15.023133699610282
Zr 17.49034046784823 10.782911451386749 13.043966480274136
Zr 10.4746521894445 10.794255428800113 17.08427218521199
Zr 8.770904380584396 12.351871493007433 15.289374339967784
Zr 9.906037779854518 12.770103177865538 12.609949537907715
Zr 12.583313924055405 12.104204640596969 9.78552715887714
Zr 10.824409032307182 13.222663154482156 7.551335919239918
Zr 15.685966250412484 11.099973917017751 10.79180796107147
Zr 13.113672374235428 9.988174747473643 15.255523831761467
Zr 9.636767348077706 11.220512761589966 9.21982773310936
Zr 12.296456318383317 10.715960529315295 12.272733186894879
Zr 10.255376667943318 9.891579788401128 14.351523965896192
Zr 14.983995583668417 9.130223941812172 12.923408207919527
Zr 9.411188541781279 9.726688097202553 11.755745204593946
Zr 13.571701376656604 13.325032117259195 7.257877430381581
Zr 12.181394941972362 10.498052317647337 7.460460427302677
Zr 15.025702783766832 11.228767967899314 8.12734361844671
Zr 11.998616961827791 8.060384666788497 12.436770344821833
Zr 11.083112181052881 8.851626685843048 9.71676894697262
Zr 13.82294589479055 9.031002814506412 9.83964627987197
