49
Energy = -357.09450112 eV
Zr 19.423630081492274 15.84262705727327 14.170589375202423
Zr 17.835005792574606 14.493060411634438 15.98451802692786
Zr 18.50950420728454 13.093807760607188 13.40634385301157
Zr 17.302320473868726 15.547173416505004 12.387060939417767
Zr 16.761429728133965 17.080942673870855 14.793865372607645
Zr 17.04408175198672 11.453541023736113 15.29748594298511
Zr 17.0246869949419 10.111647798314742 12.564717596303058
Zr 15.345450567246745 12.905916849441356 17.166913494519523
Zr 15.368431898564435 15.922213173923366 17.060469639429577
Zr 15.750982664695874 8.782055612595698 14.712681579205857
Zr 16.267996846394514 12.916412871682045 11.5373540235705
Zr 15.304158273836979 14.255285354455568 14.408575653884208
Zr 14.525322964471703 10.113210214624997 16.67702664119174
Zr 14.347626658178731 16.539523441716668 12.573835520001776
Zr 15.251856063466192 15.477400872456423 9.827276053572858
Zr 12.604569513858346 14.606064611907238 17.55504535271986
Zr 13.577624778037238 17.733062921682002 15.266571397776863
Zr 15.145067724383521 10.419426942653445 10.245249190074519
Zr 14.471676659144375 11.363802764541152 13.668834557428884
Zr 13.401310570025384 12.028923857919342 18.968238050143956
Zr 12.879633087632401 17.419567547107874 17.883826403789744
Zr 14.334900559740916 8.512386062484792 12.224136492243245
Zr 12.509311111622532 12.164391381420387 16.06101847911906
Zr 14.848419518768688 12.912154816931395 8.6061590644024
Zr 12.335232190792574 15.061923072400798 14.559225983321024
Zr 13.774691130657159 15.444249701425813 7.285173617325727
Zr 12.329199260236118 9.582890729913489 14.3790579899049
Zr 12.862939362053943 8.490017278400945 9.672290614902472
Zr 12.987312209019018 13.015239135430873 6.378106994409017
Zr 12.302563308290328 10.882063555326173 11.418185178893973
Zr 10.715220994848353 17.055448192706642 16.106391087414277
Zr 10.809765730748584 12.65142482901413 13.551961009968224
Zr 12.594239789514717 16.610825119669645 10.016522077516244
Zr 10.853484703774397 12.267153646190689 18.547938936202673
Zr 11.443995741175431 17.553708120532608 13.265010997972372
Zr 12.292756329834504 10.973971525382492 8.339466797263562
Zr 9.714858471398657 13.936424200784447 16.545356859911386
Zr 13.511816004309933 13.730607460299558 11.670494861754888
Zr 11.309223343826233 8.067418526560196 12.088875021560831
Zr 12.034665659404638 13.943275513394314 8.997658293520793
Zr 9.135782675581181 15.420390560691386 14.088905176598043
Zr 10.180891246374436 9.49542800561566 9.859043673194853
Zr 9.85247882841702 10.835949708258813 15.933243762889155
Zr 9.36364263717942 10.449399819258794 12.622275718972098
Zr 10.812266290911289 14.999170941591354 11.720307475147484
Zr 8.029629349838475 12.591660879737368 14.649430178969572
Zr 9.866429811218348 12.411745842173211 10.137774656490127
Zr 8.180175126786148 13.451242681386972 12.00085197149293
Zr 9.406484839995343 15.41541966575546 9.480736522713194
