48
Energy = -355.48393771 eV
Zr 17.15054863735402 17.139597160089398 13.084044677981657
Zr 16.970420990526645 15.815726341786997 15.685093674475391
Zr 17.96218984957357 13.635002835225116 14.32762251533367
Zr 16.400514295557766 14.346054295507315 12.037901425692226
Zr 17.662206872472385 11.689804528587649 11.479991930231739
Zr 15.568992860248219 16.755350104803675 10.599972593801528
Zr 15.092099655998002 19.05340476806378 12.279005550897827
Zr 15.19113073992874 18.281468526837735 15.258860138806266
Zr 15.857737787117888 13.110564363516218 16.80571325809553
Zr 16.576073713941803 11.209153102504612 14.325293201043204
Zr 16.078568012080442 13.098277246213144 9.53836145699407
Zr 14.188449117974008 16.419459692653504 13.291222213671837
Zr 14.627902105546937 15.83277918767697 16.97994273568172
Zr 16.694942964692927 9.239201751853486 12.163940856949699
Zr 14.7995236895296 13.838493704336333 14.447279731386217
Zr 14.503992931293705 11.52553320998738 11.874377535784753
Zr 13.544180483981124 14.61427058158699 10.524674321837018
Zr 15.822239748596546 10.16806059113781 9.537642634368016
Zr 12.712932676712784 19.01073716565455 13.770227279306171
Zr 12.71710113960635 17.688952539047296 11.014062450451467
Zr 13.73140326353862 11.197093238982442 15.333766713872135
Zr 12.348618669912504 16.942697063111353 15.80176362465046
Zr 12.50485500705753 13.751533462235981 16.645250233105667
Zr 13.538950519307628 12.168553285417513 8.777466333156008
Zr 14.136485844641502 8.214205782996611 11.241963630571103
Zr 11.23176177252463 14.090902093503795 8.479734760844144
Zr 11.279786690417772 12.432709180085556 11.015883139003607
Zr 11.61833694861088 10.887518375184802 17.37854769703877
Zr 14.492937953092767 8.83564362097892 14.03747362063877
Zr 10.569415619554688 15.480885619767388 10.765725164982072
Zr 10.680803608047519 17.095626963578724 13.33059932046616
Zr 12.22051906951959 7.016594340019053 13.306042416520096
Zr 9.610354041994313 12.693175733700135 17.340860902394688
Zr 12.041827072377027 14.365412010191513 13.295841149681456
Zr 9.923514404384548 15.011860364655966 15.503443845520849
Zr 8.725621141927892 12.810017414210886 9.95529210843197
Zr 10.87396916373508 12.098461495631085 14.676616656023388
Zr 11.923151051050526 9.889985404094576 12.613439043742236
Zr 12.487016945632497 9.543730917188856 9.236586139139606
Zr 11.658226837873285 8.712731390848706 15.48712864221468
Zr 11.207749295655395 7.536087397485239 10.813384884148231
Zr 10.667847153814478 11.40724650905525 8.204794004047761
Zr 9.065023473940087 14.233964195887049 12.745735889490904
Zr 9.527564375693022 8.431623835578161 13.191761667820309
Zr 7.956661558597268 12.795320804506636 15.057462020465795
Zr 9.038439991571183 10.135045250225904 15.737341672495086
Zr 8.468289814043242 11.236696594121097 12.694834699408121
Zr 9.492001948274895 9.781474709826021 10.34255979371762
