40
Energy = -291.30073053 eV
Zr 18.388218792925695 14.002006883168812 12.880932167224882
Zr 17.420991931137134 12.731539983411471 15.08668806152665
Zr 17.248184501582358 11.27644833502796 12.516856364338617
Zr 16.780849928021876 15.936826475944109 11.777886778734391
Zr 16.56680745427558 15.600150388080944 14.740162841111676
Zr 16.97652446929403 13.333319460785363 10.411875619485855
Zr 15.302013815536617 10.895605105775502 14.879529667126915
Zr 15.119287765719541 8.859892793145674 12.852843742677923
Zr 15.257345269403439 13.488240306050029 12.990179375360157
Zr 14.976277420864454 13.644117334600072 16.34416534796599
Zr 14.75837756221241 11.231179465001546 10.712628826853752
Zr 12.766699686352432 8.79999622348337 14.939225050568169
Zr 14.521677281538006 14.976276029490696 10.389007109231743
Zr 13.748141217523871 16.38971497633406 15.941486444114657
Zr 13.965257440805887 12.82056105027464 8.338542583162095
Zr 14.30017830841844 16.76663943669131 13.006604157163482
Zr 13.340199998028204 6.444199462866099 13.342557816241891
Zr 12.658627591091701 11.690495351567096 15.772620506531236
Zr 12.741106905218478 10.944814335371708 12.828852008401205
Zr 12.833303942798576 8.376039608679669 11.294415881917919
Zr 10.676242015554394 10.89279584582875 17.47467673074428
Zr 10.794724291084657 7.585912923714744 13.238668688958176
Zr 12.120014644341584 13.298632845705246 10.622344480122619
Zr 12.411851973984897 14.400532517281206 14.157021451370452
Zr 12.276755655493032 14.036707020629011 17.302977146141178
Zr 12.484361611059615 15.380404551956703 8.482156158828909
Zr 11.961235325772376 10.651527451222409 9.343862037915718
Zr 11.361971685315414 16.093282688488415 11.426673625213756
Zr 11.181704607768081 12.888939314307812 7.638585749025997
Zr 11.665757708011292 17.35936341674688 14.012776340850078
Zr 7.929112645449712 11.992092876775343 12.737672269069863
Zr 10.150723216051249 10.29528684586347 14.598458267926762
Zr 10.39115807029849 12.701938687024477 12.74267735412749
Zr 10.729818091348783 16.04770803629334 16.295124294801933
Zr 10.105903772683519 9.876527555306064 11.500481325788598
Zr 9.872673457639737 13.140644687766997 15.724046572306488
Zr 8.495323505664203 14.54205032934179 11.27656329749941
Zr 9.193169178032427 12.097890418225246 9.736916159434516
Zr 9.443363666635348 15.443350655515365 13.79044686484562
Zr 9.79525059885111 14.900908367549382 8.976960400968748
