43
Energy = -312.94314373 eV
Zr 13.69455682711897 9.053272953330135 9.466177003404292
Zr 11.50920294380773 8.143917533485313 10.829336276237093
Zr 15.721810176748685 10.355404540251953 10.925745877425031
Zr 12.501820362396638 10.833606513595003 11.382169059100754
Zr 9.952123738116867 6.888557481078636 12.607333837510614
Zr 14.354605021737633 8.658597115488599 12.643545639826508
Zr 9.40482332573792 9.912921333292543 12.163645261920797
Zr 11.616204517769159 9.08881502319355 13.840636755193934
Zr 16.762692716310674 10.701456238723779 13.752038225947187
Zr 18.715626671433217 12.734974234412123 12.02459246784257
Zr 14.072963374921523 12.084832403596915 9.004898282730363
Zr 14.110292982210527 9.838354075323595 15.79212164792719
Zr 12.440080704464263 14.29006293363583 7.991668252621564
Zr 11.000566798951203 12.128067946837213 9.239022913060223
Zr 14.056829327947668 11.665026262802348 13.631816926163758
Zr 12.536209277713366 14.088810636778746 11.121277057789875
Zr 8.85683706227943 8.039851847143897 14.58282781357461
Zr 17.390981541905518 13.61630568691324 14.363895720734186
Zr 15.771676730836944 13.046273781381128 11.360051262913338
Zr 15.810486151448309 12.149203906496467 16.171104078733762
Zr 15.00690051063321 14.94214250859318 9.247298105208897
Zr 11.436854770422679 10.413089651349443 16.502411688169495
Zr 14.60112543640426 14.540584171168389 13.529228098620065
Zr 11.131039302781712 12.174356175210997 13.77399410021131
Zr 19.52207061799781 15.195037609974246 13.444265436995734
Zr 12.757442730927371 16.704175298323797 9.39694571624691
Zr 17.40651506874825 15.33812822197214 11.644876705370205
Zr 9.035076640743863 10.720521777426438 15.128358278948602
Zr 13.104686977832195 12.813699560615508 16.554916535041603
Zr 10.20443479615169 15.144241230106559 9.637851054816398
Zr 9.24813539295143 13.049185479450285 11.387182345926682
Zr 14.98297981766835 15.135623258511185 16.37581186489215
Zr 11.844904041412548 14.864405788745788 14.391888195125796
Zr 16.651111748058945 16.54970558735676 14.14307222400782
Zr 14.750269115996149 16.820000794975446 11.585188530435724
Zr 9.473082260729676 15.707275070813719 12.643187722661098
Zr 10.182371404557456 13.187401337445088 16.689031783451945
Zr 8.450379432597948 13.467481864655493 14.192275001396764
Zr 11.962392304011555 15.836042546020053 17.01679345729752
Zr 13.736009204148981 17.273080077652736 14.727649975102253
Zr 11.91940838449433 17.115952031695834 12.104564973771247
Zr 9.201530327786392 15.703005955839632 15.721928932337502
Zr 10.875079301621165 17.617927872552002 14.803952476971016
