44
Energy = -324.62225502 eV
Zr 15.127202863125117 17.3048683250343 13.872775118766777
Zr 17.007083128886695 15.744954075621784 12.098183689386815
Zr 14.459550629665072 16.60914892571557 10.875300155054934
Zr 14.552524552492253 14.5075790707895 13.198840459902677
Zr 16.98374212974675 15.064478565808502 14.784807824633114
Zr 15.4667630214728 12.468075066901962 7.755947877627791
Zr 12.210291272957376 17.03291313720663 12.562853654821538
Zr 14.715494936198299 15.619381321615535 16.40857577242144
Zr 15.707358576989533 13.97615907212462 10.22647578182788
Zr 13.420874391107178 14.541702939513554 8.370900965200796
Zr 12.548798751935934 17.351116748674258 15.395234564444578
Zr 9.662525397340104 15.337719525207794 12.67220744428101
Zr 16.91475102642776 12.582708275629068 12.83948238231983
Zr 12.45346590419353 14.338384022133441 11.250607077929018
Zr 12.76506882777073 11.840520061055015 7.0393981681505
Zr 12.059434128144884 15.626304170466836 17.54125347253036
Zr 10.824269924275004 12.973871343639848 8.668307558209385
Zr 9.803619092516815 15.963544883169925 15.796561561130957
Zr 15.383077077003593 12.71149817386594 15.553085847365738
Zr 11.991298762513798 14.414892194250967 14.733056970860346
Zr 13.475099496234707 11.840832437422884 9.981745316508635
Zr 10.886938049228668 16.024790141068852 9.85020256187713
Zr 16.311741401786715 10.148033485115672 14.749063504837011
Zr 16.43716629054899 10.879675074770686 9.971951278937238
Zr 13.297235810104526 12.918236484927892 17.373170496812445
Zr 14.195270317430076 11.402901197522128 12.851542846394914
Zr 8.758364859845429 14.02064809476739 10.15672324866547
Zr 14.452839595167324 9.762328209687249 7.99544383399617
Zr 10.750682275053265 12.388399388132353 12.023371586771162
Zr 16.423644290627998 9.376337416469296 12.25080877411423
Zr 13.954872309957542 9.981343676476655 16.370295368927486
Zr 8.958108131840739 13.245941548355189 14.75356512957185
Zr 14.006321964038662 8.83585108646283 10.691240990485179
Zr 11.750501090759643 11.490785999336811 14.792405056843563
Zr 11.59909511361448 9.83855914224998 8.976715926781582
Zr 10.372190942061263 13.2656632463816 17.269918555418183
Zr 11.51274696803697 10.531188577712696 17.661601298602918
Zr 9.089964199936963 10.964769253009644 10.267051083203851
Zr 13.991561011070608 8.50043511676633 13.806119918628179
Zr 11.56184366656124 9.461368737868437 12.13558618863464
Zr 7.734007425486022 12.7190023203305 12.269884336409941
Zr 9.104966324348899 10.267889574605347 13.388881208187236
Zr 11.29655553561552 8.751418338084672 15.291342788353218
Zr 9.1470556025121 10.708730158922368 16.208762056642588
