48
Energy = -355.15289665 eV
Zr 17.175037633915366 11.34516389913344 12.693723080372212
Zr 17.017357277661915 14.013223245296905 11.060361560061736
Zr 16.913577588162543 13.840210686071442 14.24570784909814
Zr 16.22522304894517 11.556100440501252 9.631538659948191
Zr 16.280788115919773 16.297460942725387 12.701478828682005
Zr 15.63591842590486 14.37319687991406 8.437288933638627
Zr 16.334833189547542 11.208951703030975 15.819569467322555
Zr 16.09748639430652 9.026379920182901 11.174214324563664
Zr 15.789998377010221 13.944980536235674 16.933417544244357
Zr 14.563385310958157 16.270289200490055 10.18996911533973
Zr 14.737088007054652 15.873241455982761 15.179095373718136
Zr 13.726871920872451 9.579803329118056 16.282945908010916
Zr 14.297854388193306 11.035889511387003 12.249277622164438
Zr 13.887365107239924 9.65474753329038 9.246239398365327
Zr 14.083803042368979 11.955531474207001 17.832377523080545
Zr 14.065755350146755 12.21998235715949 7.260593380907264
Zr 15.420135095582376 8.886485297587797 13.96690478944626
Zr 13.452307591898162 12.82922790080356 9.769682309340919
Zr 14.38618024621507 14.068966041747606 12.40266427440529
Zr 13.382387755032624 17.174904198618215 12.752271515881125
Zr 13.862640868999584 12.549818528277092 14.996818602055262
Zr 12.66857359271566 15.242381888792707 8.157267786695291
Zr 12.713105041100059 14.557985864169295 17.034122719667423
Zr 13.35883851408351 7.922755461995429 11.776186659937373
Zr 10.868982051192585 8.496197295210742 10.10997628062551
Zr 11.646071021702225 14.713692655571258 11.239142218662257
Zr 11.88103138455793 17.440989556075593 10.153146734195074
Zr 11.889022410665767 9.998890900625637 13.748859077673602
Zr 11.36595161195941 11.67646418386441 16.314295025599087
Zr 11.730000585564815 14.797305172394388 14.346365178298294
Zr 12.238941141852573 17.38082635570082 15.490435219293634
Zr 11.623932489162442 10.543980678168548 7.890151107318125
Zr 11.450409571465329 11.163283218666542 10.812677850779522
Zr 10.983337785055173 8.536129986163939 16.062217905194977
Zr 10.543054827867254 13.241424140064739 8.54708826723178
Zr 10.538978387659073 12.454400351783908 13.286946882523889
Zr 12.993527376861664 7.273534134163477 14.501349261576514
Zr 10.358200874681277 7.726211727239797 13.154437825266612
Zr 10.461500585949686 17.22975783439433 12.826038512755865
Zr 9.730236525061686 16.209221752550345 15.754192233416093
Zr 8.923836328098668 13.430588967563889 15.609090897677973
Zr 9.386404798417207 15.92427794641428 10.128390601070086
Zr 9.036067942495093 10.351585867279145 14.88314173420522
Zr 9.093476080167802 10.683242410826882 9.123410405860264
Zr 8.604338104402176 15.10165514755924 13.113120724160952
Zr 8.73437687418143 10.065699290085915 11.936672126865213
Zr 8.501334307446319 13.049947435197478 10.722951501993103
Zr 7.513169054136082 12.373496673525388 13.305873099484026
