41
Energy = -298.73864401 eV
Zr 17.56539887966989 10.976502716632634 13.749996999340263
Zr 15.768210747620763 12.116372333898397 15.5010022383991
Zr 17.900842767764335 13.803702912208733 14.650080337487628
Zr 16.25447944664447 14.447568712837166 17.315293082848555
Zr 13.771299714498438 12.917896066035336 17.35526957955615
Zr 15.609816654456989 8.481632902129316 12.51819859390646
Zr 14.43013035071358 10.807178548225771 12.608846855749253
Zr 13.33361269511761 10.16893152033541 15.509313761173544
Zr 18.467397654589146 12.89434032047467 11.732088191786033
Zr 17.28005199233454 10.442718295103349 11.044032846841239
Zr 13.091019549614211 8.340826348729994 11.013225349793698
Zr 13.659162230909033 15.783716754678537 17.196980586746136
Zr 11.308034087560491 11.59312028011635 16.794449798231735
Zr 15.84236447958962 13.468274166118823 12.547832823457787
Zr 12.643680552400829 8.220630366569262 13.702035195355318
Zr 12.712321269966207 13.351140996510283 14.425048569371057
Zr 15.214431234504397 15.154569755043735 14.844396928251195
Zr 10.321921523685866 9.5414784922641 15.033245531718812
Zr 14.855907707504263 9.94825455778303 9.573919558218664
Zr 11.084799972324987 14.419918986123967 16.80799047746278
Zr 9.309810253929816 12.515378594731768 15.081006968440288
Zr 16.158912365321466 12.600980793714426 9.55127836561452
Zr 13.27524267538381 12.96898148004464 10.97186581583546
Zr 11.458138206412784 11.153424809833766 12.845748121843567
Zr 10.31887591755527 8.73469484720603 11.913627064680226
Zr 12.19639988573196 16.384325326473373 14.753844595989829
Zr 8.404098045573141 10.514243312007448 13.130971700641382
Zr 11.862778090677837 10.544179487535427 9.597756986158354
Zr 9.394108439171239 15.470501715703822 14.426435632381637
Zr 13.660786608694103 12.21746563204538 8.085086096526483
Zr 13.595850113278004 15.980079010077652 12.378354928453057
Zr 10.705824403715965 14.334572809592366 11.908259842078586
Zr 7.897169834828393 13.312612676334929 12.65402802815815
Zr 14.441492192684656 14.85133837881521 9.216284107707367
Zr 11.213409698154958 13.671649130840716 8.865532111865582
Zr 9.26656472036377 11.469451106533702 10.580304437907975
Zr 10.718043215459364 17.30388875136703 12.267620186879409
Zr 8.111233666085909 16.061416635976915 11.855886953356059
Zr 12.38460746588637 16.41741075448215 9.989095545316676
Zr 8.314084936690476 14.009220409984918 9.85297554327664
Zr 9.77303827181283 16.330605105854207 9.577814115769769
