47
Energy = -345.24963881 eV
Zr 7.565073175006781 11.465097146293827 14.946378619631446
Zr 8.565400445296838 13.944825091690875 16.057108389903178
Zr 9.63295555855793 11.3792198462625 16.81046132089808
Zr 7.770044962257088 13.951937245285722 13.110273760788752
Zr 11.533944506097734 13.802449224846743 16.57569591770563
Zr 7.938835364670438 11.006795651729522 12.301873777889291
Zr 10.175144188702657 15.632582073925992 14.296190212941003
Zr 7.334487750818822 15.167274854531739 10.202046637499
Zr 9.89123853538371 9.602479951436074 14.120615489709566
Zr 12.244199737309419 10.717675560037005 16.276595929013457
Zr 14.047892379921349 13.00612215541195 17.95165499472687
Zr 8.257552957427588 12.37587053275763 9.663290003394215
Zr 8.504818727822192 16.80826752063009 12.248674030115382
Zr 10.383242464866793 12.525240733617537 14.083293878435187
Zr 12.702975939086887 14.96642897581229 13.329112126107376
Zr 12.588817177424927 10.483257965137007 12.997810027459673
Zr 15.377498187946369 10.755388488684805 17.04969577578799
Zr 10.450028355727952 10.935742353888157 11.146854243220764
Zr 10.025579941407956 14.303395100319104 11.265071058751907
Zr 11.488452693270633 17.063277910327873 11.783278772989537
Zr 15.508486755264757 15.507449965487467 18.079133008217138
Zr 9.375100181500677 14.582122749067397 8.213939813394322
Zr 13.967361050673933 12.426786840997663 14.948543079619979
Zr 9.616213627652286 16.94997734368599 9.628237698103854
Zr 12.113301549708293 15.34938441809953 9.239644447603359
Zr 11.409401403809253 8.34327424678316 11.223423309081706
Zr 12.914340859854473 13.035055941420008 11.295841543041558
Zr 14.880297694530924 17.046952295445312 13.493850644142338
Zr 14.084749298106285 15.444470203841298 15.882812232854281
Zr 11.248479486615123 12.589010052034197 8.83918964609404
Zr 16.661050713817065 13.378136814493507 16.425556739643103
Zr 14.631067489274509 9.166509017757377 14.853067432614221
Zr 14.213079067195189 8.126372888577343 12.130582805395663
Zr 15.53092819729267 14.01503956459435 13.182933545177447
Zr 14.758517314136798 15.745702454787597 10.839977556575242
Zr 13.530005458555653 10.237266297004997 9.91536392912991
Zr 14.667025523287055 13.23147287392798 9.18142244803448
Zr 15.401970313569004 11.13767742347233 11.9842881483209
Zr 17.00116603672364 15.925799755930091 15.174445080083169
Zr 18.351035398863978 13.553226446239817 13.635134564557905
Zr 17.37264061578756 16.08225706103716 12.31940394492202
Zr 17.25626145662009 13.741878085110034 10.606693016632047
Zr 16.599767928946502 11.25816295292823 9.155474440973219
Zr 17.215659487504517 10.97842305642076 14.767576099064328
Zr 16.943607643848797 8.702690517723106 13.113622338941889
Zr 16.372586629048367 8.869458510338168 10.346475711951134
Zr 18.24017233470912 10.999110099488846 11.74479392371511
