44
Energy = -323.15956781 eV
Zr 7.954275530226622 12.90420357809081 15.215247370882441
Zr 8.09890885237278 10.245332441499897 14.259169963888404
Zr 7.325996454355807 12.765556728486935 12.465122337142443
Zr 9.747831420298139 14.407213909782309 16.829888214140176
Zr 8.205292541946834 10.30170706307408 11.168289624120503
Zr 9.042826106775548 15.270570371778724 13.905545943506613
Zr 11.052943536717523 8.998060466246303 14.987355357596343
Zr 10.042556016907653 11.354492543317006 16.4787245327579
Zr 12.073353839455299 12.819889675701928 17.928205417019306
Zr 9.106278779353755 14.87809944772023 11.155352534890103
Zr 13.042578867792242 10.64372449820719 16.44776789386758
Zr 11.091225577461248 16.6465015243631 15.170584474067974
Zr 9.666502223999416 8.590896150734173 12.552552626434597
Zr 10.061015140830705 12.002130814753816 12.958432684121064
Zr 9.282449619928908 12.512863879515871 9.789465070428303
Zr 10.377983588590832 17.323389938782835 11.97450018332588
Zr 12.468571593356279 15.419972680385357 17.35537706194246
Zr 11.334041199006938 9.99781138279833 10.441627685195904
Zr 11.92991693451023 13.584101913354296 14.942670165977997
Zr 12.219822364567074 7.803911239977765 12.549984299871111
Zr 12.962552905299196 10.786766795709712 13.19921475211369
Zr 11.9337497976389 13.057756441155643 10.90014442605242
Zr 13.962719511982419 15.999428796629456 14.953070299758728
Zr 14.137140437001898 8.531694838619485 14.485089105218432
Zr 16.190492940238727 10.335954758636102 12.57068075468948
Zr 11.794340525065556 11.706514117930286 7.984473501408141
Zr 12.15814246833925 15.44188486202678 12.48446087030601
Zr 11.248102893254467 15.361495846178073 9.396832893908849
Zr 14.668847084036754 13.506374628135697 16.259556936184683
Zr 14.788611005789392 13.623178979758693 12.965047901138467
Zr 15.580581637920577 11.072485463964366 15.120985507192561
Zr 14.235775749013865 11.83258880641122 10.18282048848881
Zr 13.501308249514107 14.052583442297571 7.919874252936768
Zr 13.575949462774352 9.402138071108896 8.47343523587362
Zr 14.336625405887048 8.87336950765164 11.144016431260246
Zr 16.75749116033353 15.377833699732353 14.488021860921927
Zr 14.35333522515151 15.295109153772746 10.233961253942335
Zr 15.139501340910202 16.772895237284235 12.493144340343294
Zr 14.627491723882564 11.636351983793364 7.132825304814116
Zr 17.600382037479005 12.808953266874669 13.669600784344274
Zr 17.58298187350474 12.242928511777436 10.946696788552488
Zr 16.394618398190218 10.307065678401365 9.174652506602575
Zr 16.30719138919299 13.474812112437341 8.691456353025059
Zr 17.17301514811548 14.984379292936525 11.554234688507533
