44
Energy = -324.36809916 eV
Zr 15.93274087761542 14.491786579562493 7.549853315731183
Zr 14.319893668039835 11.820811284077367 7.4940550255131715
Zr 13.16832093575131 14.614139196289138 7.144908055280679
Zr 16.997530104529755 12.33446695031324 8.932318389328252
Zr 16.860833386558017 14.997702784772025 10.333112744488165
Zr 14.292819105707634 16.51049537488548 9.135359996131168
Zr 15.471634189307062 10.380928308953026 10.191617096382242
Zr 11.516744074295588 12.682792168857906 8.425995040954616
Zr 12.728415717653787 10.814948732172528 10.123603379574755
Zr 14.244283608890667 13.50038026447354 9.765654855988414
Zr 11.368776357399524 15.581674024777675 9.211253024257639
Zr 17.476526680401083 12.165868741036736 11.707770469386368
Zr 12.465199981750564 8.474956902521473 11.925090663981178
Zr 10.333085785714099 13.049366059102121 11.084632887629917
Zr 15.066803950167811 16.473887665371997 12.128950483727845
Zr 12.444257975324813 17.562124608551215 11.167298085663848
Zr 12.265696716634595 11.303151709499092 13.068120025685335
Zr 15.079876259904221 9.857463696043613 12.992396444267413
Zr 10.08148701416502 10.082943044852417 11.256721715298488
Zr 15.064382642765146 12.871257306073055 12.587704255468772
Zr 12.683104943044853 14.651345556756777 11.836042734146396
Zr 17.117600404734223 15.036876843630814 13.733232359750767
Zr 10.292886130425545 9.030576746182787 13.871224810752603
Zr 12.971441691166175 8.793933042374857 14.777165760197592
Zr 10.187564289882259 15.956840563656252 12.15877004547967
Zr 16.801456553815413 12.676033031966556 15.150882546755517
Zr 9.271151854418543 11.788848609433176 13.596070128902873
Zr 15.413184076893419 17.314323319938527 14.840436821223326
Zr 14.322539784303158 11.28962443728942 15.4198057380358
Zr 11.24001331325949 13.923265748518 14.252501653319277
Zr 14.331120646725699 14.518967099772386 14.80355050357618
Zr 12.463924484172606 16.810394914160003 14.02306949174939
Zr 11.04318891130811 10.97374692525231 15.983884531425264
Zr 16.34782313428965 15.270375579576239 16.800117008028323
Zr 13.23331084370884 10.629134411383903 18.03074861858772
Zr 12.660884431992857 13.490553759542447 17.040332937115164
Zr 15.533051274624345 12.60173051637566 18.00925316427306
Zr 13.436308203901076 16.73782995422542 16.97462404227163
Zr 9.564091943214708 13.578525717143544 16.851803398170624
Zr 10.627183620383395 16.054367824153424 16.242019117224622
Zr 10.764515775214806 12.038763986560674 18.851967458025833
Zr 14.466786532683715 15.148760487578162 19.02674314138162
Zr 13.250742519349211 12.865150397794245 19.920239266101593
Zr 11.351267159848112 15.088978175950192 18.981026402595422
