49
Energy = -362.62207888 eV
Zr 10.666939461204803 8.457251579029226 16.032498000368875
Zr 13.887830200411102 7.809499846494319 15.469844258623883
Zr 9.349821363195758 8.332406591742226 13.261724417642144
Zr 11.89424443158897 7.247947061663182 13.393433567192785
Zr 8.625967285327462 10.702362364569083 14.81484235393935
Zr 13.195158357153822 10.618204450414135 17.036313931650366
Zr 10.533299092093532 11.3910885066186 16.93404556775307
Zr 15.975592666270233 9.585462352512224 16.846573724896363
Zr 11.622627486788618 10.102413712665218 14.169569733456065
Zr 16.68154117963938 8.238972224305135 14.363912286426958
Zr 11.151490026407425 8.93142465744899 10.82637045225519
Zr 14.546592942375543 7.9352834611780985 12.457519416034971
Zr 14.833894362489481 10.475886695911747 14.311341994939667
Zr 10.469405365362872 12.309364479656569 12.581736706238777
Zr 9.694197677618167 13.56029531507389 15.324798369271369
Zr 8.393903930918967 10.460731678199451 11.641112332203582
Zr 15.39637899521819 12.54131092996042 16.48867716646048
Zr 12.814868534075051 12.702628896272296 14.70912494602504
Zr 12.104387378053687 10.107107117337586 7.996398710497009
Zr 17.640630100326806 10.98927225460323 14.814994176361271
Zr 7.782866813171215 13.265911668260394 13.036219710504588
Zr 9.446436568690002 10.506313702498822 8.92310000184921
Zr 13.363207950917552 10.585875111955767 11.92515608971822
Zr 14.558667122057008 9.791773620904445 9.461338858631345
Zr 16.71519445427994 10.13214592812917 11.847966326111754
Zr 12.369559386409529 13.80984083523334 17.128838787882717
Zr 8.695920367117683 13.203770868708611 9.988832615017449
Zr 11.759188845988914 12.108042338246555 10.086704175447771
Zr 7.053515380751337 15.416617352000047 11.346674139228298
Zr 10.690156500637652 12.745910943003645 7.538903359344362
Zr 16.095568719409787 13.151193674712163 13.619487336368115
Zr 8.387826803626947 16.247898386307607 14.011044731064889
Zr 13.225312117651795 14.159389607637358 12.184557763299532
Zr 14.39075741937868 15.218068015409049 14.855525503461754
Zr 11.55813734249623 15.67173300626946 14.584744578198888
Zr 16.879590848226858 11.331320938955512 8.922684195014249
Zr 15.120012987742566 12.580352519938174 10.78603292168279
Zr 14.005752418562297 12.615666591005013 8.001540627119152
Zr 10.086490949236916 15.311294030722056 11.836568817203457
Zr 17.970730728076855 12.935771535374425 11.223505390152868
Zr 8.805592056447399 16.11855871794318 9.156091324551316
Zr 11.577258971107065 14.95011044706533 9.301839497527583
Zr 8.330114717734514 17.88017282675421 11.488523683107784
Zr 16.083047908057882 15.35133511039538 11.670010482236249
Zr 10.613309606262854 18.054085054626555 13.117738274532725
Zr 14.2753988865933 15.5106028561504 9.410745045166738
Zr 12.997309909216817 16.833100574042394 12.00192237305752
Zr 16.66877885632318 14.19336527327514 8.898470268884301
Zr 10.940892862211388 17.795675728644884 10.166533771780138
