42
Energy = -309.72410972 eV
Zr 7.844372950446001 8.29983878377743 13.154574981236461
Zr 7.829978515283098 11.013137443881028 14.304134475490203
Zr 9.40448531213566 8.750845467370388 15.475615675373268
Zr 7.43578162894317 10.65356250204132 11.315206013182465
Zr 9.21940933499936 8.15258201513419 10.58326833179909
Zr 10.418068535393 6.903560982800803 13.212769177969104
Zr 7.157679638433864 13.373718783310572 12.623025380742744
Zr 9.247803067547025 14.234309841838195 14.627968454462394
Zr 10.53218384952252 9.635904540898686 12.950747392717378
Zr 9.362942649063713 10.882365436772826 9.066765050282926
Zr 10.589949015251474 11.612624041496584 15.414069621109173
Zr 11.98070848582026 7.115637622664138 10.54231953139985
Zr 12.390868080154211 9.21086056536874 15.412858952089925
Zr 10.811576995254452 8.68259116743033 8.079994214966243
Zr 11.107712781955101 13.197222818492484 9.865420174605294
Zr 12.24491974795742 10.074731805947415 10.350016089809515
Zr 9.741380353217371 12.300968117531173 12.191113179880261
Zr 9.284097608399723 15.376965606429657 11.943876018691986
Zr 13.524671560937058 8.023911974293807 13.125625622166995
Zr 7.974909717837618 13.536100314152034 9.8197194634553
Zr 12.058475700669925 13.727024616851033 13.392125068857233
Zr 11.580747369201294 14.306986697160669 16.28847321957515
Zr 13.572892361262035 12.089597713060265 16.10788242627223
Zr 15.26351426656368 9.967644583741516 14.821024374148422
Zr 14.70759169945947 8.209316628010898 10.622289965008983
Zr 13.443190746442252 8.511930877506549 8.118640123365585
Zr 9.759048436234862 13.303381620101323 7.376859066751029
Zr 9.863162547895415 15.715636481489685 9.087549540567206
Zr 12.169711062827592 16.033858058467878 10.86745841226547
Zr 13.190412838449424 11.056547692985031 13.193685148288152
Zr 13.831296888363239 12.936121830844517 10.792664589043063
Zr 12.272099666068685 11.43824678253407 7.709421269523371
Zr 11.790839089445067 16.327879019703236 14.007062685756052
Zr 15.928636523264288 10.39524906169438 12.03057697168656
Zr 14.134958130493278 14.826784368007177 15.323832099069746
Zr 12.377923846734925 14.757913663244718 7.815944917943749
Zr 15.62282867894143 12.808157729145867 13.818112743447033
Zr 15.31123598237215 10.632575939194858 9.16849931412179
Zr 14.720886427783851 15.521073848602601 9.551541608536933
Zr 16.451990663534804 13.244227023199182 10.650176232791884
Zr 14.602318318868482 15.410652189467918 12.522749780139712
Zr 14.811324324728409 13.151087589384417 7.988312989702081
