48
Energy = -354.75992768 eV
Zr 18.71524704015024 12.7665432653631 11.479156620067283
Zr 16.40248345314675 14.10001238962806 10.5441081753164
Zr 18.767176632417268 11.852890728543874 14.211914591562737
Zr 16.907716694519117 11.133229585324019 9.76505786288785
Zr 14.080335660353823 15.78822439513053 9.824568424556373
Zr 18.674250104562187 9.994783587111426 12.036996935350633
Zr 17.020309858224586 14.252095131888895 13.570124091957933
Zr 14.407726897807404 12.76514426805055 8.71118846522715
Zr 13.208139100830191 18.369026129749663 11.281138493327866
Zr 16.17960662771508 11.5795639391593 12.611386718268006
Zr 17.01455690651434 9.366844512860453 14.544812017894339
Zr 16.229581771199754 8.639105961205802 11.686137806019943
Zr 11.675410557055184 14.361126417270263 8.981954686586453
Zr 14.600576981596229 16.041336180358677 12.87780283522623
Zr 11.542832226030685 17.260789264099337 9.126514092147913
Zr 14.004247520692285 10.017230874800477 10.274588549505948
Zr 13.56766709499999 13.135477682222712 11.387274277268698
Zr 14.03039229506578 9.780634892884116 13.332254620055194
Zr 16.379697508797054 12.215262780124991 15.664807980722784
Zr 10.21292233030529 18.389032515600636 11.346061416343757
Zr 11.430742949354757 18.490388159290518 13.741328466092906
Zr 11.593898815977617 11.338112036045318 9.58709131840431
Zr 13.583850456833451 17.850311303162442 15.365970650248224
Zr 11.79118333576596 15.888650467419168 11.78841799842436
Zr 15.234778981399849 15.472729980167081 15.816446265154154
Zr 10.64240146133784 13.391411569979573 12.683085268867446
Zr 9.341644913620613 13.045286989783815 9.841003426322683
Zr 12.1745475647034 15.218542672875994 14.952635407708462
Zr 11.546144544571481 10.733224083378664 12.727483339813084
Zr 9.114389031774632 15.864448883766304 10.340292272527696
Zr 11.096602641702733 8.490954006998809 10.801148506001965
Zr 10.528795119200016 17.18768428143392 16.20368205202842
Zr 9.051577484985899 16.56897501707137 13.367111741336231
Zr 13.638006060600437 13.48739333940678 17.222595195723073
Zr 13.720551172056775 7.246331989259001 11.506092159899401
Zr 13.988738848084335 13.125294390253744 14.258791367657174
Zr 13.037491227262425 16.35732192907395 17.66728750751996
Zr 11.806421300360258 7.247493020507482 13.420405786607583
Zr 8.9622260731654 11.404396206376036 14.291214774882231
Zr 14.40253659833292 10.356177077844693 16.19003574269105
Zr 14.354384659689194 7.554127923072619 14.784322528906175
Zr 8.895791991401367 10.838859533270766 11.424252951758069
Zr 7.89545276792083 13.815264561110029 12.382746667137708
Zr 9.50422470406104 8.678395718687218 13.343891792179836
Zr 9.165914600293341 14.39690332972729 15.297888606793842
Zr 11.41567977303986 12.232231116366998 15.65677048031878
Zr 10.860465750467739 14.523079898112496 17.575625789625718
Zr 11.727085992610396 9.13698242018696 15.534830800650541
