44
Energy = -321.29954224 eV
Zr 12.722936198374423 10.870379174826319 19.482658736560964
Zr 11.801600542448082 13.166286256253887 18.22372894619155
Zr 14.827937327833157 12.836115580271159 18.347756598097476
Zr 11.329194161124898 15.44159065889075 15.786009101897621
Zr 11.05736909587829 10.52819095284462 17.121581081511323
Zr 13.53277134697639 15.33190713044014 17.817123687770124
Zr 13.899070353999774 10.4727497908123 17.011718544668092
Zr 10.011893736912764 12.958862638400822 15.831173215320419
Zr 9.093704454561207 15.464191976553423 14.043599901400292
Zr 16.036529817855683 14.842986495654616 16.295468432685375
Zr 13.354133825884288 13.227402957815798 15.41612208920717
Zr 9.24222027938861 10.436360069710382 14.320182314864494
Zr 12.537720522567453 15.208299301269788 12.467501079154404
Zr 7.785030653932739 12.744177880454517 13.948559700425534
Zr 12.321496309874373 10.465400396043457 14.372033222213588
Zr 13.894820812840365 16.379473384303004 15.102431910417785
Zr 16.137796697774945 12.016664571507553 15.682352842758215
Zr 8.09270197936565 14.16649252083131 11.631835602561782
Zr 9.80083325811975 16.407695521545023 11.35457811867969
Zr 10.695985696150947 12.790043772627115 12.908811661319175
Zr 17.144305664920008 16.899652124200447 14.497878141291281
Zr 11.258698885302687 17.58962589364708 13.771419931876313
Zr 14.818874683870702 17.55818419658248 12.729358815984984
Zr 19.60632950498739 16.010915001222656 13.205959457356212
Zr 15.58951364940173 14.497459460046114 13.25812727331742
Zr 10.586772478268124 9.418370999948205 12.230169490232768
Zr 14.38682789418683 11.935611573843323 12.215579314171972
Zr 12.307675063041351 17.97513716960878 11.173262989077633
Zr 8.65021710470837 11.344136263863394 11.340894499065328
Zr 14.552322586890584 16.28386698647897 10.264971506731115
Zr 15.227873240451695 9.753749503292221 14.140882085916177
Zr 18.339405313701178 14.071512205901346 14.54022011659781
Zr 10.195338256542675 13.702900319531187 9.83808742094131
Zr 13.236278247461623 13.557549768123321 9.66265334671249
Zr 17.518517943397374 11.436773083323287 13.152145373322018
Zr 13.41845653724804 9.1079273690706 11.706516394778228
Zr 17.34377862561311 16.284437719665423 11.5226568799701
Zr 11.700057513710668 11.150821415755692 10.31513055565356
Zr 16.120817770523452 13.796752753574944 10.134462523228603
Zr 11.838309724313287 15.94937910811105 9.331135983752187
Zr 14.64317016611819 10.776067527735785 9.47965687650157
Zr 18.631311392626515 13.623607755541173 11.567624247956067
Zr 16.238173121770703 9.324593071565882 11.541294942142967
Zr 17.412024542821875 11.279003089517474 10.205088991763974
