43
Energy = -317.09339917 eV
Zr 16.215305218762175 10.145332004787324 10.465968186007258
Zr 16.37310284500637 8.528506158585039 13.051145194633365
Zr 13.60013259891486 8.938307897481632 8.733386515501067
Zr 17.80198771388923 11.000589496762945 12.812451318507105
Zr 13.857568198618386 8.485437540247245 11.454200947125358
Zr 14.917187050344758 12.565286425115053 8.266029543273845
Zr 10.855495690209569 8.858683859306398 7.629523529236094
Zr 12.511926288547473 11.0782390221577 7.264204209015319
Zr 11.022236442215693 7.433871443878837 10.190049829748629
Zr 16.223020748048945 10.523885714116146 15.440078742891762
Zr 16.33760805111682 13.085066110937657 11.071313399065073
Zr 13.561663082200939 11.681029572215342 10.365181015516638
Zr 13.777506585978852 8.4812925732034 14.655522169747396
Zr 14.875645921099716 11.048489817241762 13.099481622647552
Zr 11.644161274643423 7.4895975949343345 13.025153163296093
Zr 16.868834862598383 13.221671186596225 14.098980703591975
Zr 11.190875215856432 10.324831565329475 10.313046572817044
Zr 8.683680542383746 9.024436086038852 9.343491716995972
Zr 14.045874289575378 14.842777869989709 10.154369984499029
Zr 11.96207466869612 13.649466525217644 8.235274380869786
Zr 9.63075254081665 11.596154299822787 7.995126959804731
Zr 10.587873470810921 9.35932536034208 15.175868938164474
Zr 10.643420247534044 13.392408937552638 11.067174725617221
Zr 11.296928092902528 15.986344803560648 9.671701998971775
Zr 8.171019565893598 11.507650101947688 10.612421553891728
Zr 9.198028474738901 8.84484180804269 12.274504573486718
Zr 12.983632995677544 13.337073365109324 13.048859329043577
Zr 13.255568097998914 10.703958721451107 16.099760659558832
Zr 8.833215130421975 14.339161104609483 9.260841469484921
Zr 15.178834033228734 15.1564368154487 13.011777567382937
Zr 9.097010351704734 11.622142880723583 13.382244334270728
Zr 11.91825690375995 10.576316692933231 13.22281995713564
Zr 12.389917570800012 16.410910271046713 12.30065288782675
Zr 14.514991206538328 13.221721264854889 15.716186775003353
Zr 10.247669311140022 14.538789099783894 13.63813687024879
Zr 9.227889840275909 16.502172241967514 11.621978863837494
Zr 7.550601499004255 14.08482785379378 12.30772831867807
Zr 11.153888942930081 12.652742862501158 15.70497318610302
Zr 12.70160070290658 15.534179336881659 15.11229677108091
Zr 8.074516356538487 13.497371052972616 15.305993295417952
Zr 10.490919935945593 17.470940937041004 14.261628661684982
Zr 7.895589553594023 16.22332190971428 14.317884865053983
Zr 9.904712428539892 15.508647421817356 16.352585609220892
