49
Energy = -363.00710818 eV
Zr 16.329361040674485 10.274456244473885 16.170392365068402
Zr 14.060900923569372 9.245121123166415 17.599138565049643
Zr 14.679401278333769 12.185294601474245 17.799847463933034
Zr 14.661627803479693 15.165080370993728 17.575942159745654
Zr 12.349477994379047 13.945412329294898 18.636077120689457
Zr 17.61919967199336 13.021717054894257 12.871821757808112
Zr 14.534065470022261 8.018903453567575 14.943688221834183
Zr 11.81669674303813 11.230674621844074 17.635164018219836
Zr 16.627701021054243 15.841982054093927 13.242085362126383
Zr 15.914547891380106 10.444512033827843 13.252088385046171
Zr 15.912106413940004 13.291022341523847 15.274862579287197
Zr 11.786978863447516 8.495958925907397 15.99126880653041
Zr 13.630984125915807 10.888420850697191 15.134886664266801
Zr 11.909638985941031 16.322535858584004 16.886700619635583
Zr 12.913182619287321 13.562460444883923 15.701155091582024
Zr 14.76648801581738 18.382762815631974 13.086796353689618
Zr 16.603749639657657 14.653159700168027 10.52723140467451
Zr 16.843894632016504 11.632037996523685 10.711085447888195
Zr 14.216549545756878 16.28031539239261 14.994058326995141
Zr 9.96962987036337 14.053343234598374 16.965135695208506
Zr 15.961259035111743 17.429910218706862 10.732921219890292
Zr 14.594355834140943 8.133432811452053 12.060935834192296
Zr 14.611514199351712 12.968843997188596 12.493568438392378
Zr 10.38493920694194 11.536618301267351 15.106045385689088
Zr 12.014268241921535 7.161865969565463 13.279176555765035
Zr 11.268470129642171 15.15524246340322 14.169132154330397
Zr 13.776347258692718 15.748794045504994 12.08720562678113
Zr 14.179312162771248 10.549333809255764 10.402991763173176
Zr 9.1300108367781 16.42490540594362 15.35141220905562
Zr 12.108926381670265 10.065253694561124 12.66181898991428
Zr 15.451000558288687 12.931978232995684 8.464740986995137
Zr 9.639382790437566 8.888205126732318 14.185754086866046
Zr 11.820580592058851 17.782462007249208 13.340810884692804
Zr 8.594750190939713 13.688846546304822 14.37704029677425
Zr 13.150549266271588 18.224981761653886 10.61781818070329
Zr 12.418840669445043 8.119637567198513 10.367372609450442
Zr 14.204018095015993 15.864652620263634 8.875080091766808
Zr 11.143269910441372 13.038233720180465 12.307320621151447
Zr 12.71599932235346 13.308744821949928 9.769788576704235
Zr 9.844014333878235 8.342590798437405 11.477777382039958
Zr 9.060446492349572 11.065921235251272 12.347067934465915
Zr 11.21399406871485 15.936851762361075 10.803492783063106
Zr 9.008911924337667 15.707470966917969 12.42269530777977
Zr 13.147550386920404 11.054215046297287 7.765070208261211
Zr 10.895601906343723 10.814592802877431 9.91532959031096
Zr 13.312537252813707 13.8377843280613 6.826878143476588
Zr 11.24562272500573 15.423560900106647 7.965184350062947
Zr 9.570450841332942 13.637738584269206 9.807590894867838
Zr 10.78102296381746 12.599307461920077 7.4360862463963935
