49
Energy = -362.92654235 eV
Zr 10.787471043378314 8.114389565292182 13.833706800205103
Zr 10.739801056744705 7.11348409532452 11.097517314363738
Zr 11.020267183653672 10.10757938183765 11.431641764506203
Zr 10.089425914446679 15.662742042903387 16.103780087473574
Zr 11.473626649724652 15.428493935560786 13.056968463664456
Zr 15.916162472104187 9.079046066382137 10.193231648394912
Zr 17.781463468758137 13.068676464823527 13.645499221260911
Zr 10.957146859208574 11.213390719629807 8.553173575532192
Zr 8.024537405763068 15.49742087848294 13.907602145551678
Zr 10.863050609805342 13.374647069804663 17.819381510940584
Zr 13.119973177398771 11.629638302833168 17.121322667813818
Zr 14.215104455378075 15.270294011001047 13.598365985611638
Zr 16.491244404338417 8.289753071393907 12.85147534630755
Zr 13.450045212363447 8.367833501253445 11.996578034657304
Zr 16.535341178278028 15.054619417736795 15.361584000712684
Zr 7.633076377030383 14.399380716619655 11.036226074480426
Zr 12.608146050158714 12.810242658028894 11.741121850068449
Zr 8.533978631913639 13.12756292243428 15.858647005905475
Zr 12.577130335770663 17.23321752149945 15.323818965735803
Zr 15.641117369185604 17.65306581155561 14.160690669511219
Zr 10.535157216043537 13.926647625795475 9.912305016941348
Zr 15.050265614654561 10.835439193292485 12.477779761197452
Zr 10.000297625707043 17.74026752447625 13.945474342328211
Zr 12.321210275531207 10.572546644118383 14.165989594341355
Zr 11.605938516611682 13.124212050099432 15.033516258671467
Zr 17.48660265806282 15.858738889890788 12.501448073122878
Zr 9.703629921519049 13.233530829530881 12.777378859335569
Zr 9.121119937475548 10.641507336607724 13.992520830352397
Zr 13.696205143118627 10.781014398957028 9.62964320267107
Zr 15.4003190583027 17.33067527117468 11.282980647585681
Zr 14.588007074063636 9.201723553188835 14.976082246252231
Zr 8.47724735024567 11.523281191033993 10.685357367294845
Zr 17.175599232491596 10.421348445550167 14.629704560865246
Zr 12.142721844887083 8.502763264988976 9.060296177219069
Zr 9.275409678778326 8.925540103476411 9.28531119049705
Zr 6.972422702381439 12.636142507597672 13.21947678521805
Zr 13.37927194737754 14.731302635606394 16.645919933377364
Zr 18.366175548982195 13.581179367468707 10.837786243875096
Zr 15.451625498863033 13.66143871555645 11.552973819296085
Zr 12.953811416454483 17.94096366360068 12.637031743859051
Zr 8.426618295040296 8.651365155265895 12.010787526173026
Zr 14.880285961955853 12.453095032969685 15.0556722822622
Zr 17.95118597561668 10.760217631744757 11.673009208630662
Zr 16.331210067046996 15.22837710754694 9.472698389833415
Zr 16.45508953136575 11.958985778084415 9.269080322016922
Zr 9.443774615094828 16.477829036707124 11.339355123882898
Zr 10.401527024087905 10.749974610961745 16.58204528727587
Zr 13.173078697016702 15.668803044094284 10.449737521265769
Zr 13.78916976082185 13.47962561409187 8.824276099423232
