42
Energy = -306.70503066 eV
Zr 14.021177834730931 15.266741645003822 8.879437194163636
Zr 16.65304260973013 14.487639467960175 9.490825969819154
Zr 17.40469316345799 8.889332543318588 10.547192332274852
Zr 18.521908983403502 12.890210955356093 11.192671608921415
Zr 11.565296361868569 13.95203059889461 8.750620575295827
Zr 16.813164988202157 11.470256701704182 9.419430464593836
Zr 14.212029202888763 12.426113683538937 9.145927599444585
Zr 11.942773010450221 11.162668554170041 10.497533188123619
Zr 9.495502811295436 15.557378013483216 9.780692137133517
Zr 12.08005463379269 16.73227330602853 10.35615528459677
Zr 15.052659366179398 16.3653168362918 11.311679784788577
Zr 15.350736268155318 8.552627146907687 13.001783789040845
Zr 17.68226393821283 15.400801325799861 12.065777261676931
Zr 9.414267798264403 12.760581744267835 10.597354747359335
Zr 17.19482748016275 10.731941537183973 12.513101545132733
Zr 14.694343967653781 9.78264147111996 10.485759693610943
Zr 17.621453321310135 13.293498812876797 14.078434715035018
Zr 15.4525521431931 13.2338515718697 11.926637686266185
Zr 12.351687516109694 14.067294608533365 11.563484774187241
Zr 12.400980071819951 8.656868252937155 12.47374634519202
Zr 7.640848743091001 14.720075119576396 11.686817845238634
Zr 16.052560256219973 10.761625566560305 15.108376926158051
Zr 9.990936877156612 16.268633831534586 12.512941097859077
Zr 12.93652191731336 16.454707512224985 13.442815995085503
Zr 10.411424033305732 13.243267327635081 13.722981466674554
Zr 10.02875416450303 10.572451559621893 12.555539308373163
Zr 13.515600887867683 11.160823025591714 13.220176879849268
Zr 15.911854130618336 13.72673861306533 16.45666218471903
Zr 13.722736845138977 8.763457765467242 15.151442641369162
Zr 7.592489772398214 12.213683860616808 12.936200673805422
Zr 13.372188453897827 13.654765055227326 15.016559746429946
Zr 15.779021262002143 15.672879535449674 14.190118108015284
Zr 10.848996413523931 15.80534813997912 15.302681839764928
Zr 13.707540232088126 11.062952572737391 16.764501033078997
Zr 7.910327901772048 14.726503370887524 14.522355197632983
Zr 8.543237572618208 11.861192294407395 15.518499657225874
Zr 11.257944473854277 10.180061425681489 15.143686230906354
Zr 13.877323061715888 16.053209305656303 16.5316820808578
Zr 13.738824846415215 13.556524665733853 18.158995847920973
Zr 9.052595076766332 14.302992621042732 17.03379309120942
Zr 11.150799024903614 12.412695463236702 16.988767148062053
Zr 11.54092583732469 15.123531550051188 18.020272381131125
