44
Energy = -324.36766892 eV
Zr 16.802949903521423 9.514913959350498 11.162171844165726
Zr 15.293637131531286 9.235309392413638 8.714174601210287
Zr 15.027206042465075 15.007610031459375 9.691719871250989
Zr 15.040385476219736 11.894446590383014 10.070355964275945
Zr 16.304269903220018 13.443679113637646 11.984079796049977
Zr 15.302510460291616 7.023577853718859 10.670775892953754
Zr 15.858510054243752 16.228584098639384 12.28258348106165
Zr 15.708979951712228 10.861083295621512 13.618512649432198
Zr 13.771326220989442 13.12010733090365 7.674028348676152
Zr 15.425259430811835 7.9892079331303085 13.31307002958285
Zr 13.379230453684226 17.361126656039904 11.063759293983221
Zr 13.757474818816315 9.548086113823198 11.343990810277807
Zr 12.501244650577393 10.470499782340683 8.633872604567285
Zr 13.230286794073104 14.869892630977267 12.268900279465793
Zr 12.205393101367912 15.523843122081821 8.690298400476719
Zr 15.336232330439941 14.301558379563163 14.55541924167872
Zr 13.395584875226842 12.263017332618446 13.172996512060495
Zr 13.916277379214305 16.96136247073519 14.183631539990191
Zr 12.726922493548646 7.029415212216494 12.214900497447793
Zr 12.930401272092709 7.498312624753295 9.134120679508937
Zr 12.133244938591755 12.97024545508224 10.128207370575351
Zr 13.139989197870142 9.44315935339065 14.535073455825854
Zr 12.468042423179305 14.583699607533932 15.313857360787486
Zr 10.964117054615727 12.839404167613868 7.423456987608542
Zr 10.486734099327387 9.088514166853315 7.417384686601987
Zr 13.511650115096193 11.79186679439457 16.1749777240521
Zr 11.045575285985507 16.722769632519288 13.552620624991569
Zr 10.98667720453719 10.89256849945296 11.873543695463187
Zr 10.521864441298819 8.461847799452928 10.38754760415119
Zr 10.73356767897398 11.76993715333053 14.710288726011443
Zr 10.525264953076656 16.514191463044913 10.859800675587726
Zr 10.479123962065827 8.602933145426364 13.754636951265985
Zr 11.195549196922002 13.004319550225896 17.408040048795034
Zr 10.316435779732542 13.829951921522177 12.586151602324822
Zr 10.878064328082834 9.973043596537337 16.80522202937278
Zr 9.472257372661506 11.174853384873236 9.307970455172832
Zr 9.297699331067008 14.380228663078972 9.542386564549368
Zr 9.439705737967682 14.626014100198425 15.470253280136296
Zr 8.27935667278297 9.91023165136328 15.234806095790066
Zr 8.268899691550843 10.173063704422798 12.44967896732863
Zr 8.661551999193652 12.080828654606993 16.878234785903373
Zr 8.135824527020441 15.362860285826276 12.38165672540682
Zr 7.702452905022902 12.681068935673787 11.184880236891276
Zr 7.6814981017314565 12.686479998923966 14.091508452196898
