41
Energy = -301.6619993 eV
Zr 16.95234319288885 9.551184256248346 11.74489879863736
Zr 17.45132733587031 12.185700341453689 10.73172880563185
Zr 15.679434439107686 10.273903412876214 9.16836727444679
Zr 17.221224510744566 11.880746559955707 13.663515196267207
Zr 15.264041127951847 9.517998878869408 14.1334140007523
Zr 14.118635694588102 11.722566884007177 7.040253793875831
Zr 14.149624642082815 8.630756911705697 11.1720414689018
Zr 15.268968956541924 13.327783193522581 9.195924910067946
Zr 16.105299341830282 14.361860316657124 12.313963158297684
Zr 12.839134570019585 9.095261211312865 8.13570133011225
Zr 14.723522277343998 11.4910106413142 11.773106281635615
Zr 15.911054897337536 11.521337656700162 16.28196763336178
Zr 16.26089364461605 14.185672848473057 15.2788423603556
Zr 12.771524884948269 11.354604854537149 9.620070421073075
Zr 11.370453078143429 11.539718256405866 6.900737001769697
Zr 12.446284871539431 9.788244904562543 13.567714411307007
Zr 12.487308238009824 13.99277953495301 8.160056195692022
Zr 12.399283282449026 17.111761941952313 12.103408913827165
Zr 14.084910437659401 12.64564374672036 14.108785067509736
Zr 13.650816194315738 15.61931792557944 14.5774084114174
Zr 13.325976963025898 14.296727759572628 11.30116669081881
Zr 9.979349896777086 9.993451027785282 8.68375461320085
Zr 13.893772490499993 13.527841364466626 17.014333825261875
Zr 11.061299926108353 17.31513474575272 14.684264158357836
Zr 9.65173552227326 12.907951679143695 8.887974930916334
Zr 13.186109171177153 10.572047901909913 16.43213702074409
Zr 9.538518355748817 9.638374722801172 13.296645240916735
Zr 10.925251168870119 12.142493774586036 11.710763096539393
Zr 10.73310032988807 15.297701480070618 10.325321235548497
Zr 11.112275139644684 8.945674562664133 10.980330438191245
Zr 11.3456334383247 12.461656769720252 14.897946272062155
Zr 9.41505521846691 16.99192879121856 12.337108044749101
Zr 11.070078480436468 14.77274153579184 13.280507898556253
Zr 11.247701730368739 15.14952106270215 16.569890711632155
Zr 8.45710409766229 10.900438479377843 10.977488967695088
Zr 8.510744763813546 14.129111627087115 11.688682699994649
Zr 11.327028993740354 12.332984602371686 17.84741682107572
Zr 8.374979149946753 12.201209208271692 13.88333882475861
Zr 9.895297960754402 10.403284116082125 16.042448208068112
Zr 8.689128695797963 15.365337581947772 14.782376569238139
Zr 8.974596052192302 13.151764460661491 16.635711089897985
