45
Energy = -332.47118991 eV
Zr 14.094078361186217 8.34470909340283 9.474775194048211
Zr 16.11169377537528 9.506499461775505 11.31636172178894
Zr 13.524076281174398 8.012322955175648 12.295057314284245
Zr 11.34802414008029 8.799276368786387 10.385120481473862
Zr 15.262377561471878 10.787392210713975 8.421444325624108
Zr 12.314529926909907 9.973360996030015 7.860713216040719
Zr 16.20269911374591 12.073293466438676 13.159538688085881
Zr 15.601282207629353 9.180031134255621 14.301806379740974
Zr 12.941823399615368 7.9649128208351705 15.015500999647161
Zr 10.827094906747769 9.120060051434292 13.325901191202457
Zr 16.66641823094778 12.275936834969661 10.434266394971663
Zr 9.63747836318328 11.08435455557959 9.09860391863983
Zr 13.573862230520149 10.844636499512925 10.950265367728303
Zr 13.664630979262048 12.329817683080508 6.63082670547336
Zr 14.130819577105022 9.706029030113582 16.84188670764074
Zr 15.02230075524076 13.842466431605379 8.708767376892517
Zr 10.930235398082772 12.079007665302111 6.472201975951512
Zr 13.850777122417536 13.539556065089625 11.698733052008397
Zr 11.170665495947986 9.869859120379088 16.39850702826189
Zr 13.251032106898759 10.868443130687275 14.154790210741528
Zr 15.681190958031873 11.979614668353543 15.956244845112867
Zr 10.881988552009116 11.828841298011683 11.977763548037155
Zr 16.21997585209985 14.946824198111202 11.613945106065893
Zr 16.072292251020794 14.91589990252262 14.58503209678586
Zr 8.742824639809424 10.421041390570752 15.095003425110878
Zr 11.934968359328696 13.035759057825162 9.235352011635117
Zr 7.977068096396574 11.83419444543861 12.650519432579838
Zr 12.812826108741685 12.158455240546914 17.383708423245796
Zr 10.495153455232757 12.897930335112912 14.773579808453428
Zr 13.366904584490436 13.868768532067204 14.638858588793886
Zr 13.943777206186027 16.500070609128805 12.917098656999018
Zr 9.370153181523365 13.873591113004531 7.6731443042182566
Zr 9.010291259008827 13.608627299791285 10.45632086276762
Zr 14.728620194579312 14.39042140841457 17.23791265954243
Zr 12.20804354414545 14.839394675984057 6.993692677287467
Zr 11.314028666619816 15.008142728927632 11.899595986218205
Zr 13.443343751820459 15.817839421418968 9.859774990846955
Zr 9.546360566265356 12.36506635728555 17.397214178967822
Zr 8.490730287530107 14.79347600448938 13.280839360936593
Zr 13.829844060311453 16.57201707137055 15.70741868271179
Zr 7.440576702288884 12.869089236298146 15.273699981379218
Zr 10.581221662754103 15.867907617041702 9.236490335142271
Zr 11.676790017756637 14.789750644573965 17.032503588976414
Zr 11.085147121523951 15.997017658668277 14.449550598972422
Zr 8.877480835654362 15.076172851337542 16.176011770877622
