48
Energy = -354.49776003 eV
Zr 15.464119661565524 8.496337368761859 15.055342826879171
Zr 15.91020462923 7.834370484330004 12.098800901449085
Zr 13.300787252722161 7.111142368194459 13.634946168377471
Zr 13.465335022355909 7.0053846612447925 10.651757574241184
Zr 17.44199398659612 9.938654933701601 13.688275715510164
Zr 12.91657886899677 9.80898777634699 15.38134801982498
Zr 10.675746996345355 6.921654103552015 11.796965664063674
Zr 15.572169379960513 11.434328602838383 15.532672093694535
Zr 10.564281143961923 8.27246595101737 14.517013239588264
Zr 14.897411213806748 9.26466806180799 9.5193674345242
Zr 12.652987945609013 12.22703590230358 17.244814552219207
Zr 14.615794534464653 10.371953114910106 12.826620737347358
Zr 12.063204183522952 9.013103680667042 8.763460627420862
Zr 17.081000728858562 10.447002480506717 10.947306313056496
Zr 10.357362910280726 10.757967878060308 16.713717861959573
Zr 12.002874188593918 9.215505696940262 11.886123424329298
Zr 16.422405421813718 12.707315090813342 12.861176314146608
Zr 9.960587847891373 13.636997706139603 17.522382057631077
Zr 12.870010601432513 14.879204814166638 16.75494002341127
Zr 10.844090989006823 11.195496917083991 13.540717894112477
Zr 8.76675188969717 9.218347595201582 12.72061031553019
Zr 9.56939204348357 9.785678314345935 10.054773456989796
Zr 13.52795464170933 13.011900137421357 14.204921265201712
Zr 13.663824491201792 11.354703586167266 7.693696116262558
Zr 12.90787130534041 11.590224572078762 10.501849030701017
Zr 15.46587057481761 12.637954557871488 9.774975204318242
Zr 16.882940987579648 15.046716312478623 11.23891238798309
Zr 15.738168150716485 15.223277417306319 13.96411272402742
Zr 8.08331633613903 12.268129645054646 12.533626729593351
Zr 8.321585697371736 11.67631277382059 15.315261721707301
Zr 10.704838676038749 11.640429071619304 7.985417579860173
Zr 10.294606399508217 12.717414492454873 10.754529052688225
Zr 10.822216725489548 13.494368797978382 15.043852998936675
Zr 13.822845268450283 14.59972267613876 11.595344062521452
Zr 7.901496380022971 12.180583584524674 9.348714733645368
Zr 13.218547921086502 16.224040782793548 14.289950844759819
Zr 12.513548890624136 14.066627057460385 8.78543404751397
Zr 10.811626640754342 14.975788948043693 12.364701256625576
Zr 15.231234452713633 15.649020302339068 9.14651667492135
Zr 9.473076024281426 14.344213138591275 8.353272621019991
Zr 14.98646295833032 17.297326791387373 11.77649899899044
Zr 7.905400993533587 14.82030585929266 10.923540527662277
Zr 8.205490298682276 14.810022210999628 14.042987923260432
Zr 10.411937455406893 16.50321426692226 14.924734914696469
Zr 10.177226114913742 16.60376906634622 9.931622472423484
Zr 12.939117245034087 17.049907843759787 9.676891233509213
Zr 11.806553383218265 17.78625967253051 12.31416022037503
Zr 8.87380926376737 17.196424614560307 12.456098553081066
