43
Energy = -317.19897537 eV
Zr 16.850687830925956 14.586183049956887 14.954527614812955
Zr 16.42542352543764 15.096167731127231 12.148960402956824
Zr 17.330298003223366 12.293493207373725 13.073971177746735
Zr 16.02091869388182 11.880176937587153 16.00228595239922
Zr 14.47835053485293 16.148449519177483 14.004751028364698
Zr 14.326261305619909 14.461342751402096 16.336846660840425
Zr 15.658621106572305 12.90721261942943 10.509827123419816
Zr 14.613664035122406 13.206608206200052 13.57586149255756
Zr 13.358706490035596 14.987153837280843 11.396905753112994
Zr 15.963841050563197 10.06919764957778 11.391909395873224
Zr 16.842582930390403 9.699284463996934 14.29386180307358
Zr 13.159154960031227 11.808858268471914 16.570223437246042
Zr 12.025289694453734 14.280474828293642 14.305560152939332
Zr 12.942851784199382 13.455486403019739 8.861679768728335
Zr 10.908500981423133 16.32462249268787 12.702109903246297
Zr 13.44705390201431 10.553646570260561 8.901091775932235
Zr 12.983309825358644 11.838086829196813 11.337977329581458
Zr 15.132944808347927 7.796275861320971 13.30713188825343
Zr 13.925836031727576 10.412738724577586 13.755581429649576
Zr 10.803775720851492 14.317356961220298 7.493605275316382
Zr 10.732154996586525 16.20626109231529 9.746665072465635
Zr 14.41454316566354 8.985677174096685 16.033431106899425
Zr 11.00944525676788 9.290511597713007 11.287037015825353
Zr 11.509295463127762 11.455549822093051 6.592440318881632
Zr 10.289076580244172 11.586711696012948 9.18397904223678
Zr 13.529396368701955 8.46206688234701 11.071257300395311
Zr 10.383681371049057 13.726104581439312 11.209323917154949
Zr 11.02543531275263 11.408151639868528 13.692066702271253
Zr 8.74405758961591 12.701081319551433 6.7234180518390385
Zr 8.39260639220651 15.910018189818414 11.574880267559319
Zr 12.270165260522157 7.87275474055642 13.944033416171376
Zr 10.453547534762027 12.6792091535454 16.335869611805645
Zr 8.237217110537678 14.597506240712072 8.938029301118878
Zr 9.03211435905934 13.848007020028252 13.888274873233527
Zr 11.185726848409438 8.822570889179211 8.227581055207272
Zr 11.232573692925499 9.655430048458669 16.12613191732104
Zr 8.858773001338019 10.002561514383617 7.067293542096171
Zr 8.632884371270928 9.027063557424093 9.755942391393667
Zr 8.583207105057612 11.026199062883705 12.036625804947324
Zr 7.265145273405944 11.652360250494382 9.145781598622742
Zr 7.217322230066976 13.422536355218686 11.480363149279107
Zr 9.485515592666275 8.774597455916558 13.822558644708602
Zr 8.517700369406802 10.978062473522208 15.16515098200859
