46
Energy = -339.62424203 eV
Zr 13.453316095764956 6.469163646527327 12.000051657445391
Zr 14.561419809669164 15.984827013998261 11.63070224220707
Zr 15.767056347813643 8.325987921738705 11.909666257881167
Zr 8.56265216726226 16.249851124109295 9.546541979710446
Zr 7.245147845931791 13.649039396470533 10.512920089731395
Zr 11.270677635486491 6.865591108610918 10.282069146509343
Zr 12.20245661419703 11.636019969290102 9.957928403229873
Zr 9.035472522726897 15.499073058355997 12.255889494161735
Zr 8.242835475717433 13.932331891442473 7.693230310294661
Zr 10.634984686165625 15.596027501236033 7.563611269788741
Zr 11.76698761845498 12.666487589714288 16.723718415072177
Zr 8.664470255969121 11.26912229451852 8.933578980463388
Zr 10.961485020012269 12.484539555630281 7.3155787053642065
Zr 13.688338937350146 13.583960913105217 14.147237322865392
Zr 8.673374023556578 9.859628737087945 13.828893618487642
Zr 7.1531003399508695 10.859506298105059 11.52395576186343
Zr 12.825987486769279 9.18761336348864 11.211314562988367
Zr 11.545115327440065 16.510939870253353 10.450805195624032
Zr 10.21353646537618 13.910195893612848 9.862029206705719
Zr 9.219930459368465 11.727251487941086 15.835835821215506
Zr 9.773575926962199 11.96720800497539 11.874259932832663
Zr 16.384026997689872 14.008955260951538 12.377821168996196
Zr 17.300540060336974 11.130994952180853 12.07425499808969
Zr 10.782037093653939 13.895656740753328 14.000018319492042
Zr 9.311405074192002 14.577062899387792 16.01975202327082
Zr 16.525124663843577 12.61553691700646 14.823057245481019
Zr 9.555328949452333 9.115586163004993 10.982915543962772
Zr 11.71044774580203 10.866867137697142 13.659785590665312
Zr 14.18950284428288 10.853308218188408 16.019212090221725
Zr 10.988580602519946 7.756572802980877 13.235037381731846
Zr 11.183918959366308 9.15759362276233 8.406981942660638
Zr 7.692899306519215 13.057024649617132 13.66218943971948
Zr 15.326484979804267 15.687044709400658 14.707590431310209
Zr 15.248883275519166 12.842903700368915 10.000376058418565
Zr 15.69619194809485 10.047859522687261 9.721735799064543
Zr 13.94359439609727 7.638035205323678 9.158468862360836
Zr 12.412798710835103 16.48979101376428 13.461307592648316
Zr 12.490476165331948 15.517298445537811 16.109836208708415
Zr 13.661294707859904 10.514774632881705 7.888179157939218
Zr 12.98750097251567 14.35838857029954 8.697018006052286
Zr 14.58828759707603 13.647537252833867 16.901481821329956
Zr 11.301432807360404 9.558125700623657 16.039187325243233
Zr 12.650902691150918 13.837325020244574 11.585041757657605
Zr 16.358953174469534 9.639491362018218 14.510865374059186
Zr 14.61552162055956 11.184568716233505 12.633866372242968
Zr 13.681448223209804 8.37291289552178 14.282229722024734
