44
Energy = -324.84008205 eV
Zr 7.262387571769615 11.795259084095061 11.733270024495633
Zr 7.609319638062646 14.598767894571422 13.076851398372728
Zr 7.613187245929353 9.51028337530356 13.798194504178033
Zr 8.148392015548636 9.07245099901701 10.87295204720529
Zr 9.576872445364879 14.139574574112332 10.823209914398976
Zr 6.949662356559617 12.239551284230544 14.55806717888585
Zr 9.629764702215994 11.44417881338879 9.901368238561739
Zr 11.621438927170528 13.416140018550069 8.577874026567486
Zr 11.286707098476635 10.54074084601402 7.767232804516651
Zr 9.524152455951336 7.326035273718972 12.611104651661327
Zr 10.030413619635096 8.277099105144167 15.13866176436112
Zr 8.859778966404324 14.1075773060977 15.730078901386781
Zr 10.39160964339589 10.083734186321454 12.731655709419694
Zr 10.538459465999201 15.519957706565421 13.485540906271021
Zr 13.494108521695813 8.946997620454596 8.308843384875534
Zr 9.731572208439136 12.632758009983426 13.389903865864992
Zr 11.879604988007678 16.13104508123901 10.48843583195686
Zr 9.156325802397088 10.971580635610747 16.01699437641435
Zr 11.09263816251599 8.481250263086862 10.229627292158218
Zr 12.551730201842592 10.882404987792311 10.459882328241001
Zr 12.279059968565551 13.6231652172413 11.71531711448611
Zr 13.967849867472278 11.850750319709073 7.566451043264871
Zr 11.660366820104052 13.084984976712812 15.667306096581461
Zr 12.544489817362575 8.299498735206878 13.291613104739225
Zr 14.281689777871806 8.378056031328358 10.963762578441274
Zr 14.31116651863966 14.724769989615801 8.706812609977492
Zr 13.41460812696307 11.352698463495104 13.359917309731808
Zr 14.886496408379557 12.498121957453781 10.637160746348856
Zr 11.865920577226232 16.13541504513327 15.936896108603106
Zr 11.995563239501507 10.207103820226333 15.609396706379412
Zr 14.633906706183444 15.861105308563667 11.351260122974637
Zr 13.830206221805755 14.53049198830885 14.286862699483946
Zr 16.628981929811847 12.79457261867503 8.225892611713666
Zr 16.01669295648645 10.068998215691865 9.179414040542971
Zr 13.830618676246806 14.413439363707058 17.352909598649454
Zr 13.180771313863504 17.30358741263611 13.464034178426294
Zr 14.826944836376533 12.09631295751928 15.76452710996626
Zr 15.975333711589546 10.15221649044115 12.353775777217495
Zr 16.284481610130257 13.145093794914592 13.175676288172122
Zr 16.967580716802896 14.636019139997526 10.397944577568644
Zr 14.61995751205362 16.886016987997664 16.046305000718984
Zr 17.760845651537615 11.892631360452533 10.792646730641495
Zr 16.16759403572966 16.349075149262646 13.629468114624729
Zr 16.392090777688818 14.584551472227481 15.875088566394044
