40
Energy = -294.24340417 eV
Zr 10.616365084385192 11.210528593589938 16.443339952326262
Zr 14.408173363605428 8.724445462856185 12.859518042293981
Zr 13.033152195510239 11.4064389872966 9.442955179340226
Zr 15.632294781770302 13.659489012500478 13.407434539158947
Zr 11.854670182931265 11.48190608258719 6.819542732414133
Zr 10.25674400649152 11.981929397494106 12.114967871029217
Zr 16.09889923715966 11.746686231387232 9.061917075169854
Zr 15.123648087860593 10.886723999596285 14.647134385563463
Zr 11.780378467757892 7.3495686416956385 13.481851403522704
Zr 8.428280327886842 10.813379164201748 14.275424185296965
Zr 12.318538021439629 8.895378313877579 8.099201623365008
Zr 8.70173916703928 13.619479420552613 10.15929439884724
Zr 9.58933164953229 13.61784872533989 14.984903266964666
Zr 7.727131797473082 10.93533363409463 11.235682698904053
Zr 9.945101940736857 8.5461923565764 15.294110913458052
Zr 14.579281744814566 10.364905156455762 7.084911951672455
Zr 9.15252869915234 15.499743472134753 12.604329315772256
Zr 9.39023229230013 8.785725783165898 12.310336844333236
Zr 16.42241047082512 10.872646191582904 11.79148347527841
Zr 14.184923054601127 15.647555326132593 15.348492524450013
Zr 11.431212327856368 17.380949900791272 11.975509488143642
Zr 10.084832750331424 16.138655955461985 9.87012540212961
Zr 10.124083258677208 10.684566788349343 9.388411790100456
Zr 13.353730744664219 11.35729130281782 17.09326447712846
Zr 12.125666901055583 14.098787527992318 16.998660183813907
Zr 12.746010815090814 13.110360695469826 14.500514685102386
Zr 14.159163728730617 13.282505454544419 7.426272689696231
Zr 12.988655361122003 16.283923703669313 9.708758008231232
Zr 14.909501605656395 9.045082709139216 9.783061561203708
Zr 11.894052695150252 14.386811072046939 11.685998150180914
Zr 14.66580922699341 14.006114721122835 10.381454540934783
Zr 15.070735933260291 13.31705080579733 16.39743944413913
Zr 11.798524732819718 10.267279246483879 13.750303205782782
Zr 14.060088116730993 16.236442806040696 12.565686441838036
Zr 11.500874961632748 13.865150851688966 8.686630657337076
Zr 7.522177906399345 13.199045957521053 12.825718645833765
Zr 12.059352101370415 8.761856542587422 10.947040194571027
Zr 13.754990416127223 11.623932353995588 12.034981113838297
Zr 11.42877216567448 16.006756306524114 14.54636911166844
Zr 12.881482367227678 8.808826357237487 15.839170545944913
