46
Energy = -339.8590481 eV
Zr 8.735896299169777 10.888562701437973 15.144558494577918
Zr 10.87511829030177 10.260578688112608 16.99038668564368
Zr 9.854503758552408 13.23535644311489 16.088970138188955
Zr 7.770310865524624 13.15858503881976 13.787466574358678
Zr 8.636226912679614 10.250122891993422 9.73359565991007
Zr 7.712509385060233 10.266124271373899 12.512417776118712
Zr 10.143112118007789 8.711319353680732 14.301343499270981
Zr 9.01438151807466 15.705152685409983 14.755565521442522
Zr 8.110477514913258 12.90520948012021 10.836113648056715
Zr 12.62461244751658 13.008418018259842 17.290762686420912
Zr 13.762732595838969 10.386175247968097 17.154784596865973
Zr 11.875233518190308 15.503456408153584 15.314153525242352
Zr 10.355883428328513 11.17394660010893 12.16778460509603
Zr 8.249462750045822 15.518496546803751 12.093832139411429
Zr 10.750008146014862 13.9213403785218 12.983626451197756
Zr 12.224581433311712 11.287172250173626 14.690233882155745
Zr 9.979702874401557 8.267840677419088 11.122898398279423
Zr 12.626387209768819 8.637166290691164 12.689832054579794
Zr 10.848119257066122 9.081078704300293 8.059995715490961
Zr 12.805542213968879 8.41754146362755 15.535672704760461
Zr 14.324363027785926 15.229556148328491 16.953769204219327
Zr 10.751999989693214 16.87775035859218 12.71819934079606
Zr 10.198281102624419 12.29520332258399 8.623807061520099
Zr 12.229879425159387 10.246951014095366 10.113090142065104
Zr 12.866877540493116 13.398535838965296 10.036988685728167
Zr 15.568437127375775 12.491381723127056 16.541997199351815
Zr 12.456216016967835 7.307241998212593 9.944126154202502
Zr 10.394762360857069 15.083214012862083 10.162583266532382
Zr 14.216851454385493 13.788723707596086 14.206625134618617
Zr 16.68460083077776 15.052345056066827 15.554267832190693
Zr 15.18105137072135 10.17170672779912 14.397157784987622
Zr 13.981964485401445 11.482289005391499 12.087118738759271
Zr 12.846020244664137 11.722579320622811 7.515856241062108
Zr 14.489047550915153 16.819848863623893 14.54210583486702
Zr 13.261515455955053 15.596236707279752 12.022450226144583
Zr 14.972339060774665 8.671943301457286 10.763713768146639
Zr 17.008840704886982 12.64515836614964 13.835142280385824
Zr 13.889879985117968 8.92001746803109 8.04627739001637
Zr 11.77643610145028 14.47170793042333 7.409693284046268
Zr 15.28777326192547 11.220568675767801 9.179431840314761
Zr 16.424414174575723 15.528845441160021 12.81237707516552
Zr 12.822341654150883 16.42999790576648 9.046319081149337
Zr 16.818010790541795 10.737477733004184 11.668112284188213
Zr 16.000514135652157 13.494339317042105 10.994801359932497
Zr 15.34889834441498 16.19706898768389 9.955833804752787
Zr 14.682668302511201 14.302582289952696 7.93279811958674
