47
Energy = -347.8657367 eV
Zr 11.685010120883787 16.950377798934085 14.10327108173313
Zr 9.244578224669867 15.483297788664546 14.803269329479575
Zr 12.958154313552992 16.572080195627997 11.511977391080453
Zr 11.969868304538341 15.068368163752481 16.168676339595233
Zr 9.581992457982578 13.684929457212416 16.98831436359881
Zr 7.444384628311881 12.555895415323327 15.102933590120049
Zr 10.051455115632839 16.03805371516764 11.919600617273785
Zr 14.390154531063637 15.957275926985359 14.159052586474212
Zr 14.626199455104816 15.53063036750402 8.926997832307505
Zr 15.768909460644664 15.99378692347611 11.528225654615735
Zr 11.490562572617087 15.383753511162675 9.235934993466984
Zr 12.345612736094765 13.994462364545083 13.36504095318195
Zr 7.817887370374534 14.154140849016716 12.311126805379018
Zr 8.645715428532066 15.222479445238509 9.60437357074101
Zr 16.274382325733278 13.750657256801677 13.26947272855206
Zr 14.509189911505276 13.294129293303591 15.706145664579562
Zr 12.08138108706059 12.071946604929355 16.32470161884688
Zr 16.87503683091339 13.704574351558861 10.25589283835289
Zr 13.966596706507579 13.475221652942567 10.87803367038835
Zr 9.887364079023408 12.608115995368975 14.108921503545918
Zr 15.61324104983983 13.124773612754153 7.840677726471488
Zr 9.812006945983622 13.109825210440293 7.902969519266891
Zr 10.339932156568127 12.928512768653464 10.915461155856942
Zr 9.343239810385985 11.001626454918773 16.84765246006735
Zr 7.455378029284647 12.803094649950527 9.65876017839057
Zr 12.712632426324445 13.136471288076324 8.011093121103118
Zr 17.022559807414694 10.99739389465398 12.10772053653929
Zr 16.715173065932923 11.538924651898466 15.004031467850833
Zr 14.302360914289425 10.198231936611341 16.10915410088059
Zr 12.263356664547159 10.710370776508627 10.172511478697293
Zr 14.268936200875247 11.23288905188733 13.158693992506795
Zr 15.406518145814307 10.919060049666797 9.706214126385253
Zr 11.530091062994698 10.314166245035068 13.47347575812233
Zr 14.157341430911028 10.822698985329227 7.123845272135929
Zr 11.3079799694055 9.081441956024078 16.198845007502307
Zr 8.634457348028445 9.527023942701389 14.553122108824226
Zr 7.87647851705091 11.284068425612542 12.125039080668326
Zr 11.376010110374995 10.397178482836718 7.252880938692558
Zr 8.946967077792978 10.49756826269565 9.076052205983224
Zr 16.164057256962458 9.005104063369735 14.149756528109167
Zr 13.523803045402703 8.54433292579822 8.627025546098775
Zr 13.49269879424781 7.980857669930013 14.260893463854403
Zr 15.006625830082818 8.69513305468609 11.544922513093047
Zr 10.612239987760677 7.492203777008148 13.895822557323346
Zr 9.582417338546868 9.053872780523655 11.576043246354022
Zr 12.267221253825305 7.921456148646682 11.514060353792367
Zr 10.74992495370856 8.20944761531142 9.010539602432127
