41
Energy = -301.29327131 eV
Zr 10.695016989944492 12.526356887903198 7.230458823708787
Zr 7.858250828306301 13.67485867267324 10.26284598523039
Zr 12.759882783689157 14.507981339648554 7.596384367741349
Zr 11.296196226791754 9.944641167090586 7.982327186463582
Zr 13.594606072970105 11.63973417972323 6.943222853492291
Zr 10.397263319989793 14.779583434638711 9.120868326170983
Zr 9.534029755884147 11.38663011558329 9.946309701729778
Zr 8.591644688302097 16.4024981932593 10.891078304152984
Zr 11.31874899353045 16.989507625993117 11.097432901593683
Zr 7.8356906008050995 11.933248426690044 12.68221799175912
Zr 12.580676359095198 12.21428668527843 9.644101720866292
Zr 7.405319094899828 14.817358065988264 12.882577745646287
Zr 15.173072522752946 13.799341567763435 8.487764782585488
Zr 11.557570531214935 9.030570306718868 10.697638851015395
Zr 9.27910848304439 8.975410672952707 12.594545279413662
Zr 13.912863796002378 9.263814585019787 9.060521307739206
Zr 10.710266636095117 11.585013579879789 12.537359632066313
Zr 13.425521268244625 14.985271257289137 10.743431749705886
Zr 9.67784061991849 16.60646774770419 13.692295366878096
Zr 15.801340957305262 11.169577440885657 8.9824610358947
Zr 10.403982768483361 14.304232292849232 12.065224515997933
Zr 16.241934941960473 13.032354237776698 11.10337681229774
Zr 12.13678729161893 9.635021789078893 13.8662074174896
Zr 9.09470649810365 13.548557122900663 14.880203875416733
Zr 11.438199955729722 6.8104271924126625 12.712810936694906
Zr 14.068532947123044 10.898593666386056 11.865979663409812
Zr 12.84000931226999 16.294456725378208 13.519415400666725
Zr 10.240034054922445 7.64884139011627 15.102591725148116
Zr 15.470560127040518 15.009088013093107 13.033454689863662
Zr 13.053713439566124 13.223359606175228 13.415141919164563
Zr 14.061639445558223 7.856504235334374 12.120815220922278
Zr 9.290241912657258 10.449738721976292 15.124881236312069
Zr 16.69626874446882 10.101530705921624 11.617874208531035
Zr 11.590398557776174 12.198203376141336 16.010375735992447
Zr 13.158166629646141 7.197423830680478 15.053572429354261
Zr 11.735751127999183 9.350567914168844 16.794485041921785
Zr 16.130903328661677 12.231637331083071 13.962780626446852
Zr 11.417700737969556 15.041133027877793 15.558755839266336
Zr 15.375066606647412 9.287177832367671 14.12511200509557
Zr 14.30583348806937 14.242738971667423 15.63591013886132
Zr 14.145230553441651 11.150958973101533 15.83433886623715
