44
Energy = -324.86772021 eV
Zr 16.75422868669447 15.023267485704965 16.030279960876165
Zr 18.604203805061097 14.077399425840339 14.208649918158809
Zr 14.418377032883804 16.54197706847069 15.456706875123292
Zr 16.60515921022826 16.063802351923776 13.209991407333717
Zr 17.24402273385644 11.99964097191969 15.995908000026258
Zr 14.452150293160315 13.524897238018108 16.741562662858822
Zr 11.633056430900162 15.01023320962285 16.399493783409003
Zr 17.706156439612617 13.780195875405314 11.450126011785814
Zr 11.442048892608783 16.751762473867462 14.057969150526645
Zr 14.025069930508657 17.12364262405021 12.554557884614796
Zr 18.2572562003194 11.444522395229694 13.122792834736648
Zr 15.85870819054281 13.05330028188879 13.76842483320746
Zr 13.32599112395485 11.400551700385886 13.569170233089334
Zr 15.845944017080747 11.392822267210121 11.22447987351711
Zr 14.57868351975999 10.657487772181351 16.21791334228781
Zr 15.963688545660915 9.86999645276402 13.997308652679807
Zr 11.975388988587522 11.958586104136925 16.21573137170096
Zr 13.40283145781532 14.502946188641292 13.777195670246602
Zr 13.895651145479917 8.934106691770412 11.607489952598103
Zr 14.900266122891155 14.660404829451474 10.967584494161335
Zr 12.973461721069166 12.288714520510313 10.801357518684984
Zr 12.277565105193174 8.895558813467234 14.328902917889119
Zr 9.409538923629611 8.203095387057497 13.446724141936757
Zr 11.849014600752115 15.63291301478103 11.31822068972945
Zr 14.715951093859271 12.77180707248989 8.595497686607484
Zr 8.925436614496734 15.552423864301996 15.145479030899994
Zr 9.597922036128516 10.7800395913944 14.546917030585734
Zr 10.114942411534944 12.983529222249786 10.99035821478745
Zr 14.305000167770729 10.077382418398658 9.01097390537751
Zr 9.24102848699348 13.094651589316054 16.324119980191146
Zr 11.604770711858393 7.201421475501579 11.85044875387102
Zr 11.01598270096753 10.145626492042977 11.847583933451316
Zr 10.797609580146121 13.621879477886543 13.844099759239832
Zr 12.144605544915834 14.423961944143786 8.610504934231678
Zr 7.962025485295282 10.452818428573217 11.919565048092009
Zr 9.160002503378625 8.067070734184105 10.617081081014787
Zr 9.491082675115186 15.530234069185626 9.481558782197856
Zr 8.81976397119982 15.538806954396177 12.206608161939359
Zr 11.90057961520513 11.529263388096393 7.999478155318433
Zr 7.935393443199165 13.121941083439841 13.491898377066715
Zr 11.73778318467375 8.782018570631083 9.27320520447953
Zr 9.134429088782497 10.604022429240114 9.153143315799083
Zr 9.546822570619689 13.236943099745409 7.968651755359939
Zr 7.545154059411547 13.225284588410808 10.208566981542651
