46
Energy = -340.38628734 eV
Zr 16.33947866411253 14.373859281184473 8.659344205745244
Zr 15.895413995810705 15.503109073387785 11.50418690153508
Zr 17.267455751989537 12.72478544164732 10.90471414982522
Zr 13.945695372274544 15.9738830827332 9.175061282808054
Zr 15.770885145372354 11.380685711177533 8.29474736810426
Zr 17.36878964367787 9.940954068595632 10.162473937175458
Zr 13.654508252141975 17.45658996016237 11.718232728442056
Zr 15.336115976413591 13.240883785094239 13.475397993188142
Zr 13.815858714455368 13.496109431045577 7.503174650689601
Zr 17.168519062703773 10.55772441448533 13.096548480162202
Zr 12.84274413616241 14.67065399176157 11.859068777227638
Zr 14.271563917163675 15.837812371939576 14.156534874055588
Zr 14.849116144806613 8.31971732771881 9.363607638951189
Zr 14.387228545508336 13.015726183467416 10.35746296151822
Zr 16.11785381206359 11.321332091909557 15.676779434966937
Zr 12.823170904037564 10.908127207215466 8.712642084877384
Zr 11.068212857064012 16.564119941620522 10.319813439822498
Zr 16.487607365781678 7.988291981524418 11.882882064332092
Zr 13.701767140851047 12.783099228331876 16.3273021595868
Zr 11.338850207039872 16.61790038478593 13.470316428690074
Zr 13.561634844538997 10.828808704394705 14.06490115472744
Zr 11.408898878300203 13.94053913977175 9.139011399324488
Zr 14.561294091266847 10.286491257309857 11.286477755415078
Zr 11.93524309804005 13.82325282982235 14.470289965688671
Zr 8.80102821040967 17.073822731716447 11.87165688487226
Zr 15.549444348755982 8.552564405463901 14.612215622811672
Zr 11.772256055674717 11.591890829805845 11.494592929390228
Zr 13.98476109218811 9.876179488834582 16.860791531532552
Zr 9.749873399094774 14.241095545300773 12.056767925579374
Zr 8.282681434665843 14.81782690243992 9.690368928139542
Zr 13.713541557265193 7.476259573954163 12.287736783402476
Zr 8.602103661020683 15.731285296279049 14.49784349594837
Zr 9.404884061931723 11.977279130778394 9.743885644604106
Zr 11.924777798256542 8.705747811441835 10.205687157328205
Zr 11.168263784127417 10.819313574603076 15.823792946156109
Zr 12.621321831130464 8.10706632105588 15.178064774810725
Zr 11.268029311023431 9.00478134510671 12.911934396739944
Zr 6.7841511122985825 15.215148059765282 12.245900317021826
Zr 9.496730492892949 13.483449834665786 16.08725158903189
Zr 9.479148062654634 11.763830289494821 13.578461029729054
Zr 7.022176590445056 12.468108989402662 11.381475515276554
Zr 8.705562675190116 9.791314004763432 11.479776422629245
Zr 6.928242850005387 13.310904935719877 14.402624754369713
Zr 8.964824812644967 8.929051876208272 14.421326646087522
Zr 8.033057859339493 11.075589684456563 16.091683001284284
Zr 6.724368080717895 10.505160198776679 13.551045920182638
