42
Energy = -307.11213806 eV
Zr 13.469183583983456 8.689100909447045 14.918499459366174
Zr 16.244698209702573 10.179675453439287 15.012240115261827
Zr 18.335351027848144 12.212373730303364 15.097369229056808
Zr 10.962678513429326 9.734677773913502 15.941098589727085
Zr 9.068075460067398 9.309941649501885 13.889680280577124
Zr 14.43599579989917 10.204705867640602 12.604031809294524
Zr 13.719273548463395 11.056010733160106 16.329946232478324
Zr 17.50024347990234 11.059015493561816 12.470250700225897
Zr 16.238318480463896 12.610985474442812 17.00405289417562
Zr 11.29386220825142 12.615445433214878 16.891426699636007
Zr 11.63067263573072 8.792526974412507 12.974773487063016
Zr 15.36327444425015 10.895980461120201 9.841529852554652
Zr 12.39329522376825 10.091727866416809 10.35111412600203
Zr 8.927143383465518 11.942670042054885 15.151249845308596
Zr 13.191852978311974 11.621898084522407 8.011038696758298
Zr 11.812919267222307 11.840495456770068 13.777306880295553
Zr 18.431096446301144 13.862113926766414 12.925802338539164
Zr 13.733613884262597 13.179242692417263 18.396995838487502
Zr 7.283320076450297 11.17803012521908 12.89167447232988
Zr 15.619786054738572 12.870209123239727 13.737953381522463
Zr 13.648303783037099 14.042200187465689 15.395620617499718
Zr 9.82597482661807 11.02268832875527 11.561548866447724
Zr 17.19953286265159 14.970839005088525 15.460416054210466
Zr 15.252845596975774 15.392783003465317 17.534646150119325
Zr 10.771137425630698 12.266833693232654 9.112775098904162
Zr 13.459082685820913 12.911364001531858 10.953689181326236
Zr 16.641012654561045 13.492658807258097 10.754160809902093
Zr 10.471641427458417 14.540136736902369 14.821395271145189
Zr 8.586421468930936 13.629160728850895 12.808687829165647
Zr 12.312072940876789 15.550188587694944 17.37375646526298
Zr 13.002782282218323 15.54039684570575 12.821142538197075
Zr 15.19564908781743 13.42740329505497 8.360973137716192
Zr 10.746970417534321 14.229724504227862 11.199129273088154
Zr 16.19717146674897 15.744089908843586 12.657315790594671
Zr 14.513388763189093 17.02016230638381 14.968390813106362
Zr 12.507103222026283 14.515897271980835 8.525212900306178
Zr 14.765906280305943 15.841266551275872 9.945626503258934
Zr 11.447197634238412 17.14540370952188 15.184954098916048
Zr 10.131366259503954 16.72704378829879 12.69673603350589
Zr 12.093622713987045 17.132067044738523 10.489439252432762
Zr 14.647306466683768 17.959862719976055 11.84472511391848
Zr 12.375654095365798 18.581158538685024 13.10177986597778
