45
Energy = -332.66541745 eV
Zr 17.95567313600786 13.914081807468948 14.097891701958273
Zr 15.844007146124026 14.745210033710388 15.863092166258555
Zr 17.519511038590238 14.77954596936577 11.499166418418367
Zr 15.581481020874897 12.614529889683592 17.872334627552725
Zr 17.794622202829157 11.823172770925611 12.107371068355194
Zr 15.661626538652273 16.104131061128218 13.32293345851918
Zr 13.857740737301324 15.104783028271491 17.803773725164316
Zr 17.19067519138787 13.129674726100095 9.255196431573273
Zr 16.22720722905303 11.431908327350373 15.02939661777262
Zr 14.303447073917269 10.228358380408094 17.273934859037666
Zr 12.897581516824525 15.593313320124855 14.86237715615195
Zr 15.216270940245458 13.322350723586347 12.979372140827266
Zr 15.809205456735123 9.589201304315692 12.393455312265651
Zr 13.562395263855693 12.643107071920376 15.694830403893983
Zr 12.537457058517402 12.315429864116528 18.430649888488432
Zr 13.743615540031682 9.361586697796307 14.637528829961555
Zr 14.518675484853718 17.85011612910747 15.425120504375434
Zr 14.683302396107083 15.184037240819638 10.485497988726356
Zr 17.229654199819315 10.204546481314242 9.883597192412314
Zr 10.908558139113524 14.810245495235568 17.61754919374727
Zr 15.814636872855848 11.014178556585021 7.644467161303671
Zr 12.055044100041227 17.41839796243519 17.0598601321196
Zr 14.490844646134473 13.634503198931908 7.869589745313149
Zr 14.722657514837778 11.921814476906272 10.300823862213761
Zr 9.716868679515011 12.097205384044456 17.44924558808233
Zr 11.818171718055996 18.51913569225874 14.52834730259683
Zr 10.915825309219015 13.048971844702342 14.775024454502974
Zr 14.516537369764414 9.047544752328612 9.567788030516796
Zr 11.457067426125121 10.237237636908443 16.29876151610834
Zr 13.1145455376192 8.478197534825407 12.004093641018295
Zr 12.917332468200073 11.485196696513743 12.63937389560179
Zr 13.409652241431623 17.687979738863177 12.334391526391903
Zr 9.804618496217465 16.49189960426253 15.274442497708332
Zr 13.040543054975439 11.103730367685673 7.845373120654602
Zr 8.413987513794027 14.142699071204383 16.122361119446285
Zr 12.089161057140222 14.590472981870516 12.29478329730655
Zr 12.052703401615227 16.40424700402342 9.94820967235488
Zr 8.631553838336059 11.565620927111448 14.687728656178104
Zr 11.66922614904534 10.110716545513052 10.177306843364436
Zr 10.410802711423354 17.148120970564307 12.354282132599932
Zr 10.844395851713736 9.70084912600272 13.345303438157547
Zr 8.807033673750318 14.586436439044624 13.193880415812925
Zr 12.0902684672997 13.342524991949048 9.610259599588893
Zr 10.037930362496486 12.26661324072091 11.867351683230051
Zr 9.70398615623911 14.93380354283411 10.440786496257807
