42
Energy = -309.34356306 eV
Zr 15.463806266236299 9.374434875676974 14.22345413220178
Zr 14.973488130924478 8.77511995904014 11.417193111619946
Zr 12.897381259747162 7.963744681039469 13.627886267808645
Zr 15.890341293085902 11.61960179935748 12.257901492173843
Zr 13.350474327420972 9.535473228640804 16.24495645880807
Zr 15.705622963401142 11.391139678148097 8.877588592565626
Zr 17.532596348434375 13.271592512538826 10.584470652322803
Zr 15.050786234852033 12.160367003951626 15.257550783222625
Zr 13.16685085032712 10.782188614061255 13.009323699154828
Zr 13.209151675718646 10.96710724722305 10.032964552745613
Zr 13.439340732165368 12.06266639090037 17.904099082834506
Zr 16.38218689943038 14.17272659330955 8.09474794356425
Zr 16.193571914131944 14.702936464385735 12.877206965775535
Zr 10.457435903299338 9.752744499817508 12.062788419050968
Zr 12.306235446960688 7.931170520659796 10.791109331093674
Zr 10.95968643835286 10.554998596699399 17.728040769825963
Zr 10.506521434097849 9.246785434483439 15.184498756273715
Zr 14.546942437925264 13.803817882431884 10.493278648490156
Zr 13.714307544769484 8.625666366470801 8.478688963744599
Zr 13.518203167127462 14.423198198448 16.397404746366586
Zr 16.683147190255717 16.020612703609988 10.32414493084078
Zr 12.809373540241577 10.819644923482782 7.088973527522379
Zr 11.966198013775031 12.037896636635047 15.360944014030014
Zr 8.20111239808691 10.268827630642587 13.65463855977744
Zr 13.521575461262788 13.556826903710052 7.618599423642047
Zr 10.833411780114089 9.602301854845305 8.958412124531545
Zr 14.399928428407168 16.23729367140856 8.64881422104385
Zr 13.359820796927345 14.01265774430091 13.385235315045051
Zr 11.33529697740412 12.770999207247842 11.174696137757177
Zr 14.03991331574039 16.518011196781945 11.594423837056805
Zr 10.762566691994504 13.542779024401279 17.54498221222127
Zr 10.870054852971952 12.55328557109112 8.38827441854888
Zr 11.887627798798192 15.3542242504236 9.497145642155841
Zr 8.672555507787237 11.556133875010655 16.20481662566324
Zr 8.43120694859929 11.629233256631867 11.104920864818684
Zr 9.904146281777129 12.949526533594742 13.55101748955226
Zr 11.137535845903711 15.531029746463927 15.247066300961501
Zr 11.070025530818878 15.752807136165485 12.236727532215948
Zr 8.75151228545197 14.356026355438706 11.076519478966812
Zr 8.483194668603021 14.372951126314018 15.959688398428924
Zr 7.110698217471203 13.03867766393405 13.648934373310128
Zr 8.56688702264911 15.729420284226226 13.604807017607182
