40
Energy = -293.55923307 eV
Zr 14.148206098511752 10.278564288614595 7.16554575432618
Zr 14.645457452237371 13.225566345694492 8.020809569941628
Zr 12.075627146241464 12.017899437914556 7.0103710239216745
Zr 16.098284733586414 10.805962247237588 9.116308006519418
Zr 11.859005117405637 14.445219207604383 8.411435127005499
Zr 14.386477762881974 15.886541286882533 9.927657529355223
Zr 16.033592190613575 13.033885309774414 10.863304447212732
Zr 14.277682471329605 8.544710581900901 9.463969056997293
Zr 11.487668149806513 9.371089403509433 8.332736165601828
Zr 13.147689838697996 11.279119954584171 9.851218907256825
Zr 9.6188025466336 12.07505460758095 8.476890803044588
Zr 11.247392792725098 16.279658360456178 10.78241750909099
Zr 15.337549899302484 10.17421124000756 11.898081379583514
Zr 9.10711517762332 14.737214714888959 9.55561583820774
Zr 13.36036381740584 13.96703693718482 11.12653379263889
Zr 15.121846508641674 15.056054616720603 13.521901221689712
Zr 13.380870951941823 16.98168446315057 12.681753175910096
Zr 10.783570188288955 12.777520779258165 11.127272080822095
Zr 12.06490085313332 8.586061052957982 11.241661881460862
Zr 9.37331373795081 10.041247263863244 10.781773158576224
Zr 11.560987513373314 6.975660368414197 13.90247614715762
Zr 16.192160514722865 12.420088387631763 13.734160966859525
Zr 13.798968656091553 8.41704868769398 13.726202146544606
Zr 11.83790682351422 14.314192460182896 13.578362305174178
Zr 9.277252716619799 7.634368623116882 12.328907628112733
Zr 10.83837647347708 9.945381811030085 13.56074184293002
Zr 7.912186076679509 12.4891409060836 11.066785937331044
Zr 8.909670729160293 15.128453728740249 12.49185717191671
Zr 10.775425513211342 17.090450446338153 13.670788952578539
Zr 14.565453763828149 10.5025915899337 15.420721384127217
Zr 12.868355295355677 16.001272452180377 15.50695198238045
Zr 14.378895413865886 13.368541308147492 15.736313749135586
Zr 13.271490750125086 11.802471082748067 13.20161696174181
Zr 11.917702824463705 9.032232590810848 16.14494172723192
Zr 9.277243024264324 7.922900266952259 15.249118434387555
Zr 9.864793324825618 14.946398821722637 15.483609599008563
Zr 9.238584128919854 12.524900222111032 13.817338008192385
Zr 7.793197411615972 9.825793379576002 13.526934736679829
Zr 11.656385734941491 12.284578956544268 15.892772184665665
Zr 9.245518852234763 10.633862534805845 16.032438302071768
