40
Energy = -293.49870937 eV
Zr 15.604997532748678 12.0719342745408 8.220108015002811
Zr 13.250941342185422 10.887810958671515 6.738948366308199
Zr 13.946496855296129 13.66034723737087 6.277880539524394
Zr 13.878418754562109 9.81113570330853 9.336350911533929
Zr 15.707243724632114 10.565441719645086 11.657054687484342
Zr 14.882773376209876 14.931084824496967 8.74597710007415
Zr 10.952065774135754 8.347302338427623 10.764490085012975
Zr 11.102445672190457 12.941857331136452 6.594323916286969
Zr 11.335403121554616 7.4269300829498395 13.548776228121847
Zr 14.71166678831934 13.137983252989471 11.180983847873058
Zr 12.808712413760004 12.821656855382479 8.93011810444752
Zr 16.295185993793606 12.500363786443172 13.859460988137556
Zr 10.904127728803376 10.788542659567296 8.869798288944963
Zr 15.552217428711911 9.668814134412232 14.41702066885965
Zr 12.113175465815578 15.463774683086523 7.685956634793359
Zr 13.806681496355212 8.307899997369068 12.502228545476147
Zr 12.577330387354344 10.720288403297458 11.52399781860902
Zr 8.75044123788458 10.498932041109637 10.946735384866354
Zr 8.790922777111577 7.9518031179155555 12.586598783602367
Zr 13.36810835019301 11.748777785461643 14.057444718219914
Zr 10.832484312300014 12.876907503101686 11.571968148065709
Zr 9.926668179484558 13.85985484056609 9.148962124035037
Zr 12.584403678239479 15.302765160378575 10.71771752586531
Zr 15.21565407571983 15.60246229045299 12.823597955389907
Zr 7.335101889277093 9.954255982559667 13.664212507689628
Zr 12.823086091101274 9.123399551321462 15.397851076539055
Zr 10.380022567273349 10.508295989882884 13.561280044528504
Zr 12.652319025717455 14.463766582819819 13.623827390693148
Zr 9.407821663648512 8.634935178300697 15.463815405100053
Zr 14.615746710714765 11.615326322010786 16.516297023505107
Zr 12.55315330107337 17.296701907814686 12.906581669284861
Zr 15.322594440309796 14.327674241474542 15.660594127253903
Zr 8.108467949252704 12.63641990685196 12.965639691171479
Zr 10.04143088323689 15.566033482134912 12.533635794499775
Zr 13.870537618995304 16.5827062084048 15.345033702637377
Zr 8.453681256677754 11.462811648674707 15.721597150151643
Zr 11.396527779561822 11.38882771026444 16.394943021205773
Zr 10.065224955364027 13.658021990172923 14.955856018062674
Zr 12.632347228040308 14.153664823652939 16.731609066288037
Zr 11.021476071548399 16.39208653988123 15.22940670522995
