40
Energy = -294.11300024 eV
Zr 15.889619441184331 8.707981675140003 14.244767694107654
Zr 13.611520661953662 7.186979777635407 14.18229750054704
Zr 13.723509339012958 9.409655223904211 16.26241825229044
Zr 17.01407068927132 10.0447948451354 11.944216012678858
Zr 14.666250520920975 7.976580444747439 11.541913108232803
Zr 16.147790909247316 11.471504996655604 14.745786854193346
Zr 14.944892887585704 9.980478143776537 9.23151333967749
Zr 11.140995943965175 8.286884502217122 14.93325403705943
Zr 13.228950923299255 10.17618939213194 13.728459639563273
Zr 16.719878070590156 12.199072806959077 9.787032922259462
Zr 11.618944189375856 7.45521293923121 11.997973076127568
Zr 17.389022542673437 12.979833579875185 12.507355110343088
Zr 13.155541131507277 12.676960490524491 15.60455887579837
Zr 10.963344440306418 10.932485860492609 15.933557286153889
Zr 12.797178505810505 7.8944101916029075 9.283357858554625
Zr 14.799214703551131 11.80863490967593 11.93305539852287
Zr 15.008312816425413 14.186068866666474 13.874300048628816
Zr 12.353756671584094 10.269883095890041 11.000425762803157
Zr 13.665950512487287 12.800731478840401 9.199634390345636
Zr 9.750681580400771 9.69948845525516 12.751348257657781
Zr 12.107407552157994 10.4508230224536 8.102343304990988
Zr 10.417818468612507 12.107778507044873 10.153397857682247
Zr 12.77370403213279 14.005438285869884 11.743098743635525
Zr 15.463184970781883 14.683670535170734 10.895953524877848
Zr 10.088740738971566 8.970223628569274 9.773518591140624
Zr 10.984148620137487 12.311278855276193 13.391706043560605
Zr 8.331803991975855 11.670905057252451 14.639651718582265
Zr 13.971766253762716 16.64524412908385 12.529499643140975
Zr 8.094875029369106 11.957724166918 11.82282281571771
Zr 9.978977591599728 13.942029837450232 15.603469704206383
Zr 12.264211479720108 15.677290712713782 14.596404790483332
Zr 10.921718024586353 14.423710037423184 8.867911010396375
Zr 10.246383461761347 14.890536292169527 12.072229070037368
Zr 8.049274142287846 14.489034819056746 10.27750701661045
Zr 12.767455636194448 16.448309108129035 9.905987955781203
Zr 7.6479226516682886 14.390361088294915 13.481069066237652
Zr 9.46957011840615 16.524556497738857 14.53024391081715
Zr 11.215140959139351 17.65317860977708 12.369963055896783
Zr 9.853080116509878 16.854081579096828 9.765256061340517
Zr 8.210705489998107 16.94732323097528 12.019174246559027
