41
Energy = -302.06665563 eV
Zr 8.380119271267253 7.634599237462641 12.505917706495518
Zr 7.054067483916471 9.704910664230088 11.04961865748281
Zr 7.998460450741357 10.359095416493322 13.815108226374166
Zr 8.882705784384902 8.05061817459269 9.634609000490949
Zr 10.501231011071868 8.274269436841854 14.393632269440927
Zr 11.130356701858297 7.17066321807607 11.5190228955058
Zr 10.365354829141815 11.098892216518871 15.543259268441341
Zr 7.564136282839727 12.43542950155097 11.568394369483755
Zr 9.995159007107198 9.920663097244898 11.595003064726155
Zr 8.407869916758317 13.460563060988571 14.474467465434373
Zr 9.032308810718495 11.051034639044278 8.991154441232002
Zr 13.23415847962487 7.615881039473667 13.45003124149696
Zr 13.269389477235103 9.548589240121395 15.69857430528593
Zr 11.389461804407986 9.150705279730056 8.88462351168262
Zr 10.269788194439963 12.79728223678932 12.588627183075902
Zr 12.809529420930513 12.183183527928511 16.7616018235099
Zr 12.392694575518203 10.438277793601847 13.227892814938686
Zr 10.783596109232205 13.900635909030662 16.104671399927813
Zr 8.541924033274249 15.196634894943244 12.110803672825753
Zr 13.683707806933525 8.938615723745025 10.783558149643422
Zr 9.43679938407205 14.044936396113451 9.562946649199567
Zr 13.6622179684503 14.883046418809611 15.804734521714717
Zr 11.985287558361566 11.63234404208675 10.25067986891785
Zr 16.474433176326603 9.992495636209243 10.611581218166972
Zr 14.556927869879726 12.018504380457912 11.416493499826519
Zr 10.851349188652271 15.654699374209992 13.934948546164268
Zr 12.913203495209938 13.280440088807795 13.805778161658182
Zr 14.464752783073243 10.866299399967211 8.54757322408004
Zr 15.271882722379878 12.043818645817897 15.144323957788526
Zr 15.37834417989304 9.640798507037946 13.339887050024622
Zr 11.557648556615757 12.608977158774007 7.743002442135701
Zr 12.290552949216579 14.339398046979708 11.043701306097072
Zr 17.12960249020468 12.323709695618874 12.482378009688004
Zr 11.66469243255559 15.439432221180967 8.303745377375156
Zr 15.790769794102399 14.616978939477193 13.856659603275931
Zr 10.778734680529096 16.642824092625705 10.882907196311727
Zr 16.729301452005505 12.626543372964756 9.508942200658526
Zr 14.225345568709491 13.867965305155 8.560386907156715
Zr 13.61874694202932 16.38052007225332 12.877271219339647
Zr 15.676834317907854 14.933611878678557 11.100224408049709
Zr 13.692052180791116 16.590319684451902 9.865953475620508
