47
Energy = -347.34756876 eV
Zr 7.579086442361508 14.865502175222543 11.293776848183128
Zr 10.233353208413735 15.13503386496715 9.992795523100545
Zr 9.098168724590598 16.935971542836043 12.24251296036165
Zr 8.786225876377697 12.438946290564079 10.146920082954747
Zr 7.82617253979479 15.04698974652237 14.343604176308306
Zr 7.265522730509261 12.557382157628702 12.741895754762394
Zr 12.120552091690547 16.683806035984706 12.126554441137351
Zr 14.494467087643363 18.304703360780927 11.423802511909726
Zr 10.041694779526166 14.14531645609163 12.99879742660149
Zr 11.55363057000697 12.137977593468829 8.901871890568513
Zr 14.122388199893887 15.681652626534982 9.792528018354087
Zr 13.902912470118029 18.035846991170477 14.180023145609969
Zr 10.422113491853054 16.57548323629886 14.725241657378676
Zr 8.198783217362577 9.946315337800888 12.094902508464003
Zr 10.499717528171852 13.885348524680186 16.125256673928128
Zr 16.664111174553547 17.012802039312515 10.371382558802384
Zr 12.420826220874117 13.778439711042955 11.315916184204738
Zr 14.375439251931052 12.54126669045949 9.010306344819599
Zr 16.900189979983313 17.854760584100024 13.355057532666777
Zr 15.219346130935252 15.636077570633526 12.757375381350347
Zr 13.499714720364956 9.680775948245183 8.643942440645068
Zr 8.803613680408098 11.76905853995323 14.951520487480636
Zr 10.460660352502149 9.654985167770937 9.684339045872784
Zr 16.763341118311686 14.116477717512879 10.030279174131984
Zr 13.205783288907591 10.66787183028649 11.155719909481897
Zr 12.93908677878266 15.217146749232063 14.857080826623015
Zr 10.514525076567129 11.380218315142782 12.414355366353178
Zr 15.455039936928449 16.373852441267935 15.803373656013667
Zr 14.953392823151606 12.91870067978137 12.15038819697277
Zr 18.3355716284933 15.559858902442025 12.044807722530626
Zr 9.888017262965526 8.741165036351404 14.6863184549329
Zr 12.780604809945098 12.333138261071161 14.279585392055306
Zr 11.232625497053343 10.875647511115403 16.50038563106443
Zr 10.166150157234304 7.937892771957754 11.984808994617486
Zr 17.6911293690434 15.203278218034034 14.712075443407297
Zr 13.14563457155219 13.16240888624339 17.06606352658354
Zr 15.562350977916676 13.263406881685988 15.287077142141614
Zr 17.687150102784177 12.871952489732637 12.87824276832751
Zr 12.499090551211872 7.641469027122009 10.649981282886383
Zr 16.178055261035556 10.827866367062214 10.523519054390587
Zr 12.727551698537255 9.454432496249956 13.658678378180287
Zr 14.277458694243185 10.421772659868155 16.325809729736694
Zr 12.337952671483963 8.182898628839249 16.300341381217187
Zr 12.247317535234309 6.734238802842818 13.681437227144029
Zr 15.691547336290498 10.423859336543208 13.588483484427908
Zr 14.914657449950628 8.100475896918 11.892126071658465
Zr 14.824863187790749 7.856959678922305 14.863151650745113
