47
Energy = -344.71404315 eV
Zr 13.466528330107087 10.379188672516964 8.55154950297786
Zr 12.812672560087078 12.996895731601754 7.4814024420680525
Zr 15.511400667660755 9.89881900936538 10.325705966966009
Zr 11.907224931446935 15.663895974539981 6.407167580923822
Zr 10.463048784113921 14.406970314828213 8.414750161432908
Zr 12.600459007167649 9.062995966705827 10.896532420860009
Zr 17.42436397452444 9.690369858076181 12.700181262551855
Zr 13.972726183287866 15.564389379842213 8.39598778400136
Zr 14.815147213223641 12.880982181509516 9.547949639603182
Zr 11.280247843181073 11.74130347544812 9.760491712516364
Zr 8.768530464021431 12.871535258511004 10.72661345527623
Zr 10.318227546684883 10.717328637381014 12.298997591644863
Zr 9.280215154632339 15.88835159344982 10.67804617374392
Zr 14.769339422482766 8.742913436955066 12.884953205889419
Zr 11.653629457935141 17.112315811631394 9.076679155928854
Zr 16.167048366529915 15.217114301820168 10.776618758378227
Zr 16.788908040129247 12.295265459295475 11.54533068912871
Zr 10.015314680490711 11.309643759169463 15.477812808435576
Zr 13.444917000099808 11.646194160727395 12.000640666062303
Zr 8.036699662523901 12.025290226745387 13.408035102742396
Zr 12.479192675546585 10.072107657490086 14.321274019804598
Zr 12.389262835237366 14.560065819105994 10.783451539811425
Zr 7.63302586205786 14.696304259158094 12.667442548914703
Zr 15.28232685327456 11.444352687991788 14.561370790815252
Zr 11.930826085134338 9.008969502351855 16.932491353571212
Zr 14.019422838283363 17.132048134614088 11.11599852917445
Zr 8.639954419251346 14.126772842850524 15.340100244529463
Zr 14.087357632489521 7.966805901881189 15.595255903885283
Zr 14.7036333346165 14.088766102118182 13.170841310110239
Zr 9.504386863094608 16.578656085012593 13.671030689488376
Zr 10.60371840423386 13.72322460156772 13.077187453494247
Zr 16.81087877412015 9.099790007512656 15.417858701643423
Zr 11.242404608748647 17.629794316599487 11.805372584660223
Zr 18.204012341448895 11.988682649863414 14.27285438590036
Zr 12.348055807098504 11.66219063935454 18.0926493380543
Zr 12.613057459569715 13.173127372501142 15.479609826154194
Zr 12.688925342928238 16.362506327887445 13.821109258469436
Zr 17.78803680920051 14.61740084031876 13.041841627753563
Zr 14.676339043723747 10.131876280811007 17.37289383006826
Zr 17.222437681200734 11.573622750673099 16.90147162517627
Zr 10.183687725929673 13.422917443321493 17.529553155736206
Zr 11.103096203411576 15.87167381862373 16.144816256725626
Zr 15.809951844967197 16.656050991216283 13.552676328869632
Zr 16.717928923079302 14.304176670773343 15.683019369522496
Zr 12.561449100047081 14.596723241287703 18.27574834129682
Zr 14.231486501659122 15.788568306311536 16.197832853757454
Zr 14.948990289173405 13.19639792614444 17.682908641449757
