49
Energy = -363.2125796 eV
Zr 18.061340288724217 11.267230130684728 10.15038518419748
Zr 16.266050064424338 8.935079695056332 10.005346259003385
Zr 16.712694419471084 10.84921201558102 7.755248363888528
Zr 16.75784138942422 10.399117360292106 12.616329979409464
Zr 16.794015319851088 13.684955148203516 8.830191523653863
Zr 13.95162257932467 9.64049352396137 7.923108594102526
Zr 17.203557025541468 13.257464592089107 11.982268977247923
Zr 14.532306034314011 12.456030197947294 7.165342337876966
Zr 14.742171162248832 8.126677970158077 12.52514525529713
Zr 15.023294068825372 11.861982853721202 10.104525551428994
Zr 13.8215601592933 7.488864278200071 9.80052750576162
Zr 11.952963878520569 7.220579216832806 11.767955880319052
Zr 16.287488764522035 12.439959820470468 15.123205397847636
Zr 11.213453863037376 8.711801156375333 9.186704893984416
Zr 14.527509298465752 10.14245440973355 14.908334357606735
Zr 14.382892006196869 12.424019560182929 12.876137253469688
Zr 13.542185806360159 14.388398624445566 9.01410436069954
Zr 12.781818111472882 10.089249445208202 11.20602524734034
Zr 15.111053368027266 15.099439973222776 11.20286421277517
Zr 11.989206818758284 11.793000061257425 8.440327087903386
Zr 15.590612136404664 15.059554041238101 14.221242351051345
Zr 9.894272779858207 9.267238016748744 12.239342762521076
Zr 14.908715351271848 11.321144036616003 17.460626883016328
Zr 12.102161280229556 8.829134264629953 14.116760205678048
Zr 14.442744812399813 17.497843278601103 12.82892846592142
Zr 9.843390398355929 11.245064608236657 10.225655571955686
Zr 10.610144443491565 14.790369305872034 9.015809790961152
Zr 12.732409370658074 15.204044140344445 13.209169900104015
Zr 15.248584359285543 14.290468053744169 17.49887766934055
Zr 11.779918736810457 13.336169881696181 11.215263466776673
Zr 11.371714188845795 11.643803111793009 13.59331714069334
Zr 12.839527592021355 12.712674856945737 18.599967785437194
Zr 13.255603369174565 13.404616796358653 15.657769321581762
Zr 12.061817722617734 10.600250109083209 16.670886595492956
Zr 12.441744491684092 16.787545614086667 10.652593212887849
Zr 13.727948491826798 16.638138134318822 15.69095367596186
Zr 9.393816113968937 10.386501471868943 15.147110371796286
Zr 8.505785391688907 13.810947153804337 10.5780103335679
Zr 8.148078950018844 11.791667932640513 12.5935982915621
Zr 9.936496285082113 14.242054874424921 13.879388489350015
Zr 12.50823441376364 15.281851159978187 18.093512680353687
Zr 11.538656459976243 17.81114662482203 13.424862210003107
Zr 9.59214066962512 16.33841238384312 11.426034266456726
Zr 10.392378495823268 13.202138386968867 16.804923553645448
Zr 10.900466533032205 16.408549990353016 16.036939944224223
Zr 7.711586063403343 12.652305464428022 15.27030506838867
Zr 7.285914274852337 14.821506131743567 13.111453012906882
Zr 8.794740129921582 17.13039649220734 14.133295260618068
Zr 8.188001123370801 15.2203069451433 16.062542524202282
