42
Energy = -308.18506497 eV
Zr 13.101317583795359 15.265703085888385 7.373734898514561
Zr 15.294545457808569 16.404835591126073 15.70951656296872
Zr 14.705159095199377 16.82375828929211 12.91367470898363
Zr 9.36456055224525 15.835149226403068 14.40433556339908
Zr 11.542399904922231 15.698706991067596 9.636447261923623
Zr 12.34056141815098 15.127477486255389 12.141266227210416
Zr 14.365842420757511 16.26361819076711 9.732591001150867
Zr 9.360519270536336 14.576092690769364 11.392369783523396
Zr 7.495577847103123 13.750077154663318 13.457908947341416
Zr 12.351883263164218 16.01789811939479 14.927833789237136
Zr 13.459921754081764 12.693137941523783 6.621897877861321
Zr 13.756756176413562 14.695817835332665 17.312536966986478
Zr 10.739783889186766 14.585951281395658 16.91384160083405
Zr 13.744970198072345 13.221832856445221 9.655681242325272
Zr 16.120864119563407 14.578377300045222 11.297111902284788
Zr 15.874681796631865 14.173515241446893 8.07422283941479
Zr 17.117046904028665 15.360637302773867 13.832924304311124
Zr 10.993126704312207 13.207233420170493 8.181420165800857
Zr 8.259700495470677 13.642872790596412 16.07316803356509
Zr 10.460461993418322 13.201202986247846 13.836237761022458
Zr 14.435969176162258 14.018410407947357 14.049555057514894
Zr 16.93668966137663 12.381652387229314 13.284915967771472
Zr 16.458825016977027 13.67869974026699 16.186611351845563
Zr 12.204109986509565 12.553001894260158 18.5921616183746
Zr 16.715104221911528 11.813414903375426 10.33803199401359
Zr 15.407614558648392 11.257463794057077 7.767653122020627
Zr 12.509979833952238 12.059284131530273 15.524965387613515
Zr 9.929321047714556 11.546628482151647 17.228063807115596
Zr 13.977205383977017 11.56654565227952 12.34282408377175
Zr 8.533017039215864 11.781052778027316 11.687470141249568
Zr 8.375996916049644 11.052940088680995 14.612345785658034
Zr 12.523206427183814 10.610688075582578 8.565702018872456
Zr 10.692870503458149 10.101687943024487 12.777814413147334
Zr 14.733323130084948 11.945823492072323 17.707739297250736
Zr 11.30437282974301 12.324045777705097 11.012719755189078
Zr 15.014403529255858 9.560855457361221 9.763432622676525
Zr 15.396519730270132 10.858024354307073 15.134225963781232
Zr 15.901792640338963 9.463503936485264 12.434321194188252
Zr 12.609683654006764 9.884124776338759 17.39376160016419
Zr 13.305306352577176 9.189951508972005 14.253071628452362
Zr 10.659248657198345 9.414720482587247 15.418005128385193
Zr 12.906035024455205 8.917834272627934 11.301889096926226
