47
Energy = -347.63780953 eV
Zr 16.642756195524125 9.540272116573538 11.862786325811367
Zr 12.056226823748805 7.86427143128209 14.386395969570213
Zr 13.946090276595884 8.291374506368593 11.801976282013424
Zr 15.014863420095866 9.672406943921365 14.29855996851739
Zr 16.968232217080093 12.098862432632448 10.197683839085101
Zr 15.23363497971653 9.846700053109895 9.194705854116295
Zr 16.79308900721342 11.953187518143935 13.778624894418519
Zr 9.270239852333306 7.032766303017869 14.548966017111365
Zr 12.455751057515576 10.518606640724228 15.452814605038341
Zr 15.057566742995437 12.120212624700525 16.52576597028876
Zr 10.203568831987944 8.952273753635927 16.569992263506553
Zr 10.505144775359406 7.7123350445240915 11.900171303482338
Zr 14.452929375001693 11.349703281442578 11.772215237551125
Zr 11.892645278482032 10.433031350950936 12.447205837138556
Zr 12.301454279090718 9.571123295596067 9.707599500631703
Zr 13.963380310517477 13.008131655145892 14.119120624547785
Zr 7.491800534698822 9.20601876246077 15.450289588656718
Zr 15.958498495294736 12.102700206214935 7.437140220636325
Zr 15.919547984347371 14.252130476786462 12.015966792370266
Zr 13.099540999205663 11.093882517323507 7.177050427134183
Zr 7.541047956957201 8.228125402661322 12.621760623577407
Zr 16.168910667989643 14.556759897008765 15.137889326095756
Zr 12.069804090549257 12.472839157514517 17.245857691694553
Zr 13.513187852201185 14.93406521443986 16.418768067649435
Zr 13.964905040433672 13.908505310676937 6.655058635418793
Zr 9.185995261508394 11.981224771628089 15.813097502466684
Zr 10.232835038150345 10.687889101239842 7.935950569616542
Zr 15.876205848547771 14.885343814010717 8.691168147407405
Zr 11.18904849862605 13.222427874640756 14.195578554084772
Zr 14.02302230210936 12.88342099865008 9.46625880536521
Zr 14.227807473901386 16.18574023696817 13.651933018083545
Zr 9.647185838642207 9.973430591166442 13.788376564800808
Zr 6.977966424736355 11.01965268843448 13.137084265565077
Zr 11.151833965434797 13.489896615884538 7.359550310053409
Zr 11.194219296364798 12.403531675052042 10.211160417406573
Zr 9.046687176625353 10.230204819221052 10.77049134762575
Zr 12.606212629027993 14.543680482938727 11.680839463136445
Zr 10.49943086923811 14.664998750717288 16.781209233205136
Zr 14.733980115141364 16.596829364779815 10.766251355928933
Zr 12.877201352288033 15.80714402701405 8.62129579746718
Zr 8.964657334211344 12.911159941411912 12.200785048255531
Zr 8.613626833723718 12.78806420138019 9.03521352991577
Zr 8.732756620407054 14.794591861893762 14.64373767405577
Zr 10.137566297201316 15.282484004720475 9.554712465143162
Zr 12.007161219398165 17.270254175122282 11.297725084194004
Zr 11.436636687252188 16.318606900823557 14.426509407238704
Zr 9.61498898793266 15.80809531205638 12.240823384495993
