40
Energy = -294.85213363 eV
Zr 11.027388559205974 13.391414760631207 16.398252575078853
Zr 8.333223275792387 12.430136455274566 15.683912854105625
Zr 9.126130872881687 14.97885173508261 14.667987006965575
Zr 13.011510626670201 11.115337275527688 16.680212298450993
Zr 13.98710458088739 13.587637768651343 15.819973931884107
Zr 10.455678434313441 10.38672558590832 15.920202256300803
Zr 12.1255491447234 15.2071899090692 14.104658118613907
Zr 7.589704976925779 13.073462118113115 12.800702466688977
Zr 10.406126286996567 12.603150775397944 13.543302299398057
Zr 12.87323516484162 8.770879532080233 14.879760309751953
Zr 8.168604484374852 10.2025485413881 13.882674694495165
Zr 15.400727209352315 10.962748493141785 14.947256018599612
Zr 11.930518192681317 17.013938082014754 11.552106470483366
Zr 14.535650143771356 16.38152300137427 12.358754637432822
Zr 13.175650729833565 11.682520885954641 13.593837749246577
Zr 9.686715943187027 15.192914702905961 11.88543380179408
Zr 15.464420112862163 13.883427292088772 13.515874386946471
Zr 10.128799549228082 7.996909825725761 14.466362693449199
Zr 12.731985612337395 14.135092857009028 11.467518109961484
Zr 11.266817402597349 9.889605388690201 12.27885119260804
Zr 8.885623443504498 7.9872839039062775 12.015137494527117
Zr 7.9642174411388025 10.6275287484122 10.974379708452714
Zr 10.613008481882211 12.333208268704588 10.398255785211347
Zr 13.841937899575507 16.127346272751165 9.508038073914435
Zr 8.225103019483885 13.582731980857472 9.70200146181359
Zr 10.951810889827296 15.353488240956437 9.229936070201916
Zr 15.68777681965967 14.164329370886268 10.642889687067594
Zr 16.29566237642886 11.437908051292403 12.000586826195859
Zr 8.812448845020155 11.005810280751827 8.346130571731397
Zr 14.464014672013025 8.967375022259333 12.479012075515222
Zr 11.785057344062075 7.195844415969542 12.107469523926282
Zr 10.1519209326917 8.700874198440527 9.66119831937118
Zr 13.30831618149975 13.30443774621168 8.411864801956966
Zr 13.629831602278047 11.232483254215534 10.447288154516887
Zr 10.412648788287662 13.123942118490131 7.523138780173948
Zr 11.697907394261595 10.472136136821407 7.924012163041667
Zr 16.227097592225903 12.009068810412325 8.973739346175794
Zr 15.90116647420202 9.347229780002504 9.973656196706147
Zr 13.198137434821142 8.309854605683615 9.604735756062253
Zr 14.448377892918256 10.326941825830328 7.68506142304516
