46
Energy = -339.73837347 eV
Zr 7.234428665686301 12.2776446999805 10.564737710074853
Zr 11.663193667813276 11.04891240329473 6.588543492279422
Zr 11.142250100684123 8.721159919973218 8.213356505212646
Zr 9.480436148847737 11.421006014571342 8.653930110461074
Zr 7.237183064036707 10.810776540643669 13.2617317609746
Zr 7.979994087123434 9.459241241155427 10.579008997212492
Zr 8.282191952337483 13.842140498956601 12.983136958939433
Zr 11.652269420659827 13.674932005328829 7.894371303763427
Zr 9.50336684272106 14.201720686812845 10.045740755250646
Zr 10.782429904061384 8.87535756447276 11.048940905760537
Zr 13.938970945895727 9.425730443722513 7.528326277052353
Zr 14.25978719398135 12.206907866000936 7.277829221999201
Zr 9.718749560446556 11.569925192439257 11.687232704884597
Zr 13.511929748877986 8.36163012796619 10.21831913534791
Zr 12.519720064909787 16.07530898207131 10.462074661563381
Zr 12.42715836512547 11.141094139823835 9.460467512076905
Zr 8.27424660960858 9.695997941011921 15.894224893460299
Zr 8.36694047231486 12.4039467317186 15.4592153140082
Zr 8.832780876948737 8.140266858657327 13.408724466056924
Zr 10.705010512910777 15.824402609073111 12.591454188995417
Zr 12.04920668005013 13.35363868325168 11.472518389753485
Zr 14.218028927604133 13.989908690737858 9.435651667312557
Zr 13.454454054493093 17.79656954667945 12.88840250261546
Zr 11.987115174200975 7.725224733504254 13.457107820618182
Zr 10.587512802061653 10.374231839160876 14.12827375183635
Zr 11.559923385787842 16.76016122106561 15.171855658331822
Zr 15.515317541462672 16.089599217187807 11.118854675243881
Zr 15.345367096430772 10.910654145906998 10.043839945527713
Zr 11.257244229103978 13.263900127839728 14.371007316152745
Zr 13.014354454766892 10.475889871816964 12.407750506465826
Zr 13.607648552852448 15.054208867848379 13.540392067787048
Zr 10.580304359265757 8.196978202950419 16.01286021472714
Zr 9.793545852026934 14.771889181452018 16.107353373645715
Zr 16.998685866102253 13.601806325336552 10.081285687809938
Zr 15.136633836194289 12.843649092113267 12.308098702321885
Zr 14.23415422766869 16.96595614785582 15.777585051554986
Zr 10.893509881260373 11.367471037814278 16.803112954303355
Zr 16.129680726580702 16.898110653753445 13.79644174761747
Zr 13.156720926944342 9.393987287702316 15.454563320288429
Zr 13.958303870845837 12.04182170865721 15.10199599640874
Zr 15.582891412854089 9.94682776948436 13.142378681355014
Zr 12.94906675308291 14.45365562406919 16.626334407226686
Zr 17.54292974289169 14.497568329564189 12.927159858780145
Zr 17.801966504374484 11.612943382417244 11.944924131303093
Zr 15.97475171194948 14.534744325628209 15.571016482827686
Zr 16.962158195949694 12.038445602017722 14.621577036657207
