53
Energy = -393.18336391 eV
Zr 7.600161210159583 11.925698953960335 10.118527744693688
Zr 6.949742232747596 14.366981199970315 11.125151711349357
Zr 9.143454593974383 14.213405022637698 9.010216831934192
Zr 7.371809289502509 12.16114394144219 13.187418035192088
Zr 10.331528622132721 11.435888452722411 9.174215070531039
Zr 8.951689250287345 10.019458717327572 11.743014348425465
Zr 8.94493301745521 9.900846499386128 14.831297940080583
Zr 8.126745171805164 15.16604473282542 13.723720111275005
Zr 11.422620342511808 9.026602181213796 10.61127558031339
Zr 9.034329633958476 16.280801742070352 10.935463434003882
Zr 9.685335050204355 13.327081485266298 11.807095291784519
Zr 12.692273277615357 13.214882193600733 8.435692630013724
Zr 10.772165029095808 8.229776032897492 13.2481888547865
Zr 9.272623199955541 13.052413781736906 15.452031834417697
Zr 13.229830731963567 10.121095104834128 8.461791504628051
Zr 11.188804304496024 11.218785276432827 13.766291315987877
Zr 12.591484322615415 11.792474255396076 11.085390162855653
Zr 9.86252824442491 15.998129892103936 15.825442307522007
Zr 10.741949892503941 16.9428901296906 13.021680769298756
Zr 15.193501188080782 12.083925111083989 7.910691680486108
Zr 10.547168364655354 11.042619710531056 17.29607202587809
Zr 14.127224238406082 8.15827961551168 10.454395818715282
Zr 12.155835343090374 17.890273968029387 10.527107491614526
Zr 13.734355677797378 9.42687974104706 13.166614719692346
Zr 11.687250330996777 14.306408123297823 14.08766200029361
Zr 11.895313095919455 14.886508490585856 10.65203009064275
Zr 13.850550620824693 16.001051052268743 12.490460509827097
Zr 14.297284885358305 16.322122462910368 9.313567600005689
Zr 11.97914435722775 8.985556792470195 15.665386949969307
Zr 15.138813828517968 13.847583663036145 10.529015957101418
Zr 13.025801159108328 18.86615998003533 13.165740994853206
Zr 12.653923534994409 16.96605789702245 15.329481995722789
Zr 14.301868955364837 12.559201831144973 13.470014917923038
Zr 16.383659338704486 9.391888513536125 8.862479409516231
Zr 15.46777421326633 10.988808248698373 11.000533920075387
Zr 11.766115975646668 14.315020159145698 17.123395773019805
Zr 14.676746871638699 13.938810976562301 18.18654686848649
Zr 13.253997696361859 11.925821330329565 16.244042837396215
Zr 16.39657440093173 8.3317595908156 11.939046082338525
Zr 17.579298981140507 12.248532817852919 9.152484959721859
Zr 12.99313337893762 9.573175220196674 18.211631386033964
Zr 16.50006516792108 14.589155191928793 13.55580557870224
Zr 16.67349172808061 16.290632075673187 11.190994740860274
Zr 14.940011508522284 18.525153593143845 11.107524035986073
Zr 15.09997593965283 9.592032657458565 15.956932227495516
Zr 15.688762838098139 17.609709089282134 13.877122744597578
Zr 17.984934424331534 12.938405392414849 11.787900043556853
Zr 14.524806758456762 14.882192790555749 15.501261967293765
Zr 18.35104152784333 10.169426685610539 11.090575004200662
Zr 12.57493474399927 12.231519001291732 19.15168778951896
Zr 16.832070083038396 10.857695130128247 13.690867369764788
Zr 15.276361064293358 11.169019089702354 18.486532621241263
Zr 16.347635849039563 12.528531121861548 16.15291386900471
