53
Energy = -393.90451754 eV
Zr 14.313074230312797 11.238469177790046 7.274265431678256
Zr 15.44615319707083 8.971091795013301 9.293776160093117
Zr 13.588778913218494 7.162815030595552 10.59490424623644
Zr 12.475545352723158 8.88197491167572 8.593215356126004
Zr 16.581117553634456 11.730150782872084 9.425759533712753
Zr 15.281121784398739 13.988213247889783 8.139711966492525
Zr 15.978423194241925 7.542844666278527 12.163770656750767
Zr 17.542273264987486 9.786127996707869 11.314708524208271
Zr 12.681273346640776 14.012507915926811 7.041553332666608
Zr 11.099222811898148 11.489093107427982 8.090252201769767
Zr 13.670534951268998 11.89178860696005 9.817781210046538
Zr 13.80918083385428 16.4324966482657 8.890525972854563
Zr 16.753760053616663 12.448069476120741 12.566732036494729
Zr 11.812837365932081 9.98882739134086 11.340105234810189
Zr 15.353986520436317 14.49669947836109 10.903710354470533
Zr 9.835451510254977 13.995387850187251 7.63975021109486
Zr 10.791949970113992 7.363788400383816 10.80133389886477
Zr 12.533390800867117 7.631737889784391 13.326352036789409
Zr 14.651831764944834 9.976006022362762 12.139999193628617
Zr 9.413234741655113 9.563638252151689 9.562083422842363
Zr 11.052422592348824 16.430453418847865 8.035230477131563
Zr 13.205234714885048 12.985589549480208 12.478051025594471
Zr 12.147995818575463 14.563787986789784 10.051534988839766
Zr 14.810060445860916 8.367534009311743 14.977015937438104
Zr 10.277317773513303 12.487995954715242 10.847915064811023
Zr 16.922800541617956 9.957846579512939 14.2244124905393
Zr 17.064516678321024 12.673733652426076 15.65216087379697
Zr 14.640120602368471 11.939901441389624 14.64264576263621
Zr 8.059916401727339 12.37275044072686 9.176866935883343
Zr 13.471453617254594 16.23882019401368 12.423676102763753
Zr 11.103187081735761 17.247070058560595 10.945205170143833
Zr 8.991919419311891 15.384047356149699 10.05888911412867
Zr 10.015229179193264 12.23931576634894 13.851043646530853
Zr 15.106174203092548 10.549275832589165 17.039567535291326
Zr 12.611692353327147 8.831149664357183 16.70508628385052
Zr 10.572782315011493 15.004600590774197 12.8378455669986
Zr 15.398081886147457 14.835810268961199 14.294829202436574
Zr 12.288284714930466 10.431533004181908 14.370471714662818
Zr 9.726282216593669 9.185910646716827 13.221972502871363
Zr 7.822176946375124 10.763232048218004 11.741406516854038
Zr 12.309753135230277 13.975082078538874 15.037594290368103
Zr 8.585409831497078 16.808886197782957 13.057864082721588
Zr 14.523254687456587 13.844948610200147 16.999716806933947
Zr 7.663532459403569 13.5942622902928 12.160723884739468
Zr 9.87113484566356 10.226557004412777 16.191795476555207
Zr 11.318121140334126 17.785305598531114 13.816387893954499
Zr 7.814602681850899 14.49685052070507 14.84003362703383
Zr 13.11179118214394 16.577437028694764 15.749181921321508
Zr 12.194055640189303 11.808219606471411 17.2684102230938
Zr 7.522878341876811 11.58880712117771 14.668741467038314
Zr 9.489255982772788 13.195281724794665 16.799791472899713
Zr 10.010313815243212 16.125868432149517 15.847972394811869
Zr 11.81827459401271 14.793056152679366 17.77863931361104
