52
Energy = -384.8374478 eV
Zr 14.74969012255123 10.191247283501964 16.927551407478273
Zr 12.234063155927668 8.832680755004388 16.399525246118664
Zr 11.090693389233225 8.332714325594809 13.836254454306559
Zr 14.223229197133435 8.15536262779941 14.476432320204323
Zr 12.255106071119766 11.400226418007918 17.703698569564978
Zr 13.074757757367188 7.5982278363969264 11.837759698258543
Zr 9.868372322115693 10.311380911281073 15.920724174135941
Zr 9.387360346687066 10.824819159854638 13.101523679042147
Zr 9.630004962906652 12.493794920673706 17.759423743889965
Zr 14.820590047402293 13.01509163088201 18.356795762818862
Zr 16.99876215754527 11.93162291944124 16.712351079364243
Zr 16.16250267903896 10.556708779574155 14.247673329037674
Zr 8.273299788599452 12.803778781410415 15.008576452282513
Zr 11.445568278891958 9.750053041497099 11.146224670100807
Zr 12.853294099011908 10.745309211492229 13.929621950314347
Zr 14.365754050698197 13.028536278564083 15.59221797098398
Zr 15.236368769163967 9.381477327411279 11.812580287699712
Zr 11.933777916251502 14.395901246928565 17.98495363951766
Zr 9.417239996200259 11.553885515132272 10.301863009240693
Zr 13.696613223833886 9.12783776709681 9.197192727387126
Zr 11.15480167741407 13.257975680157415 15.259645047510373
Zr 11.553373972983723 13.012822177955554 12.156902604554274
Zr 9.134668707668936 14.986784270744101 16.866798775602547
Zr 16.81736102405597 14.849278727940494 16.676436823856697
Zr 17.61407383670663 13.191439982581214 14.23103019046842
Zr 17.267037521546403 11.695758206004525 11.513308498485022
Zr 16.30286209035359 10.41579443890514 9.250643704242218
Zr 14.193767552615448 15.90170958596043 16.722204177927377
Zr 9.328987060402245 15.652608347351043 14.149635040830214
Zr 11.183005811139509 16.844582022104547 16.31889232100696
Zr 13.824184441623126 11.830095960928677 10.469795424741255
Zr 11.673332895101131 11.293725715615832 8.402564232925744
Zr 8.694391865292753 13.713076483187757 12.006745627224358
Zr 18.72685718880606 15.72739053557938 14.592337695955422
Zr 14.994499187034807 13.217864701147207 12.726683638973045
Zr 12.657884627930992 15.567466865591955 14.002663159982806
Zr 10.709994887382493 13.956334685726757 9.431252781525115
Zr 14.560424650520737 11.562369263528433 7.51956535549173
Zr 15.622300635407258 15.978543334846787 13.859435063990976
Zr 17.636488321754317 14.767647840980635 11.78165569386469
Zr 16.907404641867302 17.84744161304205 15.615970991093285
Zr 13.736123366555855 18.271619784943784 15.115350490279688
Zr 10.734387113266173 16.00265367742254 11.563483034266483
Zr 13.54006817713471 15.058474802961577 10.77961524808275
Zr 11.004594700160201 18.107809511359772 13.667624782103738
Zr 16.033578497048104 13.525774878212555 9.378849755193045
Zr 13.280179648359862 13.878357431200206 8.161759110521958
Zr 18.013507062857506 17.57074939645683 12.751955148496641
Zr 15.870569448725856 16.9232505055043 10.907223193558561
Zr 13.31472816116983 17.92764649135572 11.917687648435887
Zr 15.75559962075815 19.117273720635037 13.067480007372367
Zr 12.978761682450676 20.326651636762787 13.389736886207086
