52
Energy = -384.33668798 eV
Zr 17.700888957906557 14.096287363240158 12.49657823675907
Zr 17.093004017743667 11.935116886993756 15.181929458024774
Zr 16.844961541505967 12.790905101366944 10.235249054191568
Zr 15.856115583046021 18.290473572090832 10.723664789423955
Zr 16.31501637162108 14.775766979668676 15.206998801739562
Zr 17.20880593127628 15.69972426696075 9.913040737894203
Zr 16.80250300087752 10.86673393958408 12.599625278135056
Zr 16.687241825243717 8.604396701000116 14.321057726894507
Zr 16.223403851583384 10.05983117116117 17.466148858733444
Zr 16.8710595501743 16.890264510335403 12.93822020058044
Zr 15.70368920670237 12.929575425661511 17.70972220817757
Zr 15.745875986679307 17.720619862778452 15.393246234202532
Zr 14.653221791014344 15.475335773211802 11.13025735027699
Zr 16.037025043237506 7.371165327025798 16.59022903655401
Zr 14.584658464795334 8.81890886375119 12.232217944380833
Zr 14.872202836910008 16.90071798202454 8.50615559472713
Zr 14.833301991023685 13.016833731287111 12.902213945361167
Zr 14.622142304814892 13.799465366831429 8.521498066448554
Zr 13.50277787255409 10.983742767151718 18.180738790630976
Zr 14.660051190323227 11.133668434480725 10.52096386303293
Zr 12.923496056203659 18.046772489167868 10.539667809440362
Zr 13.681575709857466 8.35925583811922 17.45611729292373
Zr 14.117361682118302 18.62263596794581 13.109994058103572
Zr 14.337972040020329 10.380464868099134 15.048023066913707
Zr 13.604419069562793 15.820984061996642 14.147611456095104
Zr 13.882423296771318 7.366711791266801 14.662922628635936
Zr 12.08743594329995 11.402404014263476 13.077403709534474
Zr 14.34883560986415 15.874786369127685 17.173677772088492
Zr 12.893442738968961 18.16277496639495 15.801544214951756
Zr 11.12523889599487 17.443018340066708 13.589862305255902
Zr 13.641343715014958 13.313396903427028 15.651737498176852
Zr 11.543823221165866 9.288259719161891 15.831553631167848
Zr 13.081186796561004 11.036717100003164 8.104603992079841
Zr 12.219344588422581 12.875369529944432 10.38808779007651
Zr 12.787580253550159 13.66876553823999 18.459755205908724
Zr 11.248103721126755 12.088214628584895 16.285995633289748
Zr 12.24933760652363 15.768822327693861 8.842499529628057
Zr 12.140038649648313 9.397191874012682 10.370631557019788
Zr 9.235144979493432 11.344084624987378 14.320044058706555
Zr 10.664079039270383 14.096619552660348 13.979025088528036
Zr 11.57228943995045 15.492890282392533 11.59598697075524
Zr 11.470233816857888 15.47693194614116 16.476940911290257
Zr 11.627349577593382 8.421661206112242 13.058768520572952
Zr 8.834905156057076 16.253464483248376 15.105947507135452
Zr 11.711815187453752 13.29760539841631 7.439278934533158
Zr 8.872946254105617 13.719937709293786 16.422955263556243
Zr 9.694913229740406 14.283701411175672 9.293984181684658
Zr 10.162982500704896 11.240087921728323 9.009265571077588
Zr 9.112674307270382 12.851015610713375 11.570408527982666
Zr 9.661453363525785 10.025870358290877 11.643050277081253
Zr 8.729691495635988 15.891703550684152 12.151800073679059
Zr 7.606369219665467 13.902810693789984 13.875938443435267
