5
Energy = -27.1854296 eV
Zr 12.904878136216615 11.971598609659482 14.025131637476282
Zr 15.353881870011474 12.165541725635983 13.184473873929326
Zr 11.285164125874399 15.014181243900854 11.859290801666187
Zr 10.919530786974601 12.646650965711437 12.67158674632265
Zr 13.572246601619602 13.481968237711419 11.709450777526865
