51
Energy = -377.66663585 eV
Zr 17.78683936462386 8.84553750262017 11.900613744018528
Zr 10.680611459717133 13.013832692112326 8.246513424539033
Zr 15.517841738663355 16.65766217656894 10.730807824901508
Zr 15.085283975847538 15.665778806934439 13.697781929025828
Zr 17.627651284202294 13.557435446244334 13.282210233657544
Zr 15.398808575409138 12.072685996836782 14.716961202013003
Zr 8.706708432005167 11.50864006226545 9.925724287291898
Zr 11.49481019049872 13.246453590673262 10.661967803757635
Zr 12.843118539014611 10.630034393409977 14.657872943453366
Zr 11.334382272089657 18.555512051258663 11.74553641657136
Zr 15.20834207988111 8.937062478602538 13.471652130690893
Zr 18.17791043538253 13.433968316192866 10.360912437277717
Zr 10.685982699462347 16.234681991490742 9.675952117725922
Zr 8.462526745871164 14.347221484686251 10.698280487503137
Zr 12.063020532238284 9.588937310993176 17.2906113004279
Zr 7.432962028148193 14.74702185956517 13.541366552697813
Zr 11.585453398440862 8.426553377108126 12.52745896546375
Zr 15.743692731149991 14.41801873392552 16.404054774601658
Zr 13.647009392592366 11.856940763092984 9.055603350389573
Zr 9.596942214644065 15.086393987577337 15.86911655700295
Zr 10.273822304117108 14.009085769138835 13.395645031881088
Zr 10.43794173136558 11.273257960540285 12.739823281819538
Zr 18.331982287823074 10.495912283628444 9.592333934277102
Zr 11.238772193429973 13.817158892562544 18.250751168382294
Zr 16.338559383065284 11.377442340689361 11.699466930112452
Zr 9.33567422168622 16.661352268550967 12.442823283958845
Zr 11.64217479157354 16.62789744232015 17.44685563341534
Zr 19.355796262993795 11.374242979683467 12.11550692005653
Zr 13.210054520003485 17.96851045002681 9.78073869458682
Zr 10.164057331679132 9.207765459911762 15.01389809780969
Zr 12.682669507349587 15.876336655014102 11.866784956477293
Zr 13.831207545728889 15.026235235301659 18.45372059905646
Zr 13.387299036180856 10.577460366291733 11.671995128298137
Zr 14.288839374464922 16.98275588250015 16.312074034929736
Zr 14.07461691711693 18.342644174265253 12.68782808156758
Zr 17.767038145910327 10.615437258223151 14.313684846371228
Zr 10.707711172222242 12.065864112348905 16.059353500396895
Zr 15.557326432517375 9.388886848163837 9.684082576897687
Zr 7.407854165591859 12.145627056983919 12.301717354077851
Zr 8.778380752349804 9.253930161841742 11.87681004384041
Zr 12.836246022552405 7.751213645746628 15.130557405662653
Zr 11.815677964080614 17.130028794422362 14.457819868411788
Zr 16.342576655042503 12.201627575112836 8.575506867965501
Zr 8.223435269890066 12.22544212567868 14.953170949781388
Zr 12.705959879438627 14.439416368424029 15.680658489105548
Zr 13.38639222702842 15.076212255892758 8.93167059284517
Zr 14.928009700836963 9.460363369318552 16.38576043312818
Zr 13.317513629390879 13.186618777028956 13.006572687833096
Zr 15.207768428174724 13.885683053452661 10.930769668920698
Zr 11.105682084076124 10.1250451666714 9.829534136505815
Zr 13.717192244516507 12.148155433633907 17.382556103569325
