50
Energy = -370.3450407 eV
Zr 15.821191834189621 8.937274375792589 11.599719391974794
Zr 16.458426931552435 10.823916837544912 13.73063029025436
Zr 15.451761809239649 11.764130897741106 10.368158280431286
Zr 18.2924533402059 12.211862149072008 11.76936470527797
Zr 13.531427784599083 9.4618948688007 9.57515317347853
Zr 17.040432053440767 14.296559685070848 10.253630430834866
Zr 14.381104247937119 13.99510416094396 8.598696140521858
Zr 13.676246381393913 11.454540281964373 7.568439479151045
Zr 18.661266208869876 15.055634008303704 12.560071121181672
Zr 15.124930818511771 16.45611894333694 9.900752432055645
Zr 11.7726850788219 13.538090796006644 7.416697806660099
Zr 18.552574559940393 12.906072828369757 14.602485005260396
Zr 11.923500486894316 15.57015587624461 9.697855816417988
Zr 14.572391716956245 8.528366073045232 14.397176389197487
Zr 15.697330862249233 10.320884081048858 16.49055657415947
Zr 13.289636238661428 7.620248868422679 11.893190570327114
Zr 13.633370195971663 10.684780337129945 12.34578664089821
Zr 13.478068795001127 17.640298456030006 11.520951164402017
Zr 16.08025565565831 13.666781028979564 13.1859875271537
Zr 16.012296499884474 16.79268912028419 12.836692099055501
Zr 10.957808527673889 9.084258046473154 10.971403676353795
Zr 12.17996842144545 12.16986024127334 10.125242234035055
Zr 13.700881754452068 14.245624980294611 11.614631279355338
Zr 10.738640906793812 10.79889188530169 8.243550669959198
Zr 15.11780984132128 16.610682345134496 16.192729678859173
Zr 17.605974974256686 15.566670130680233 15.143015256379286
Zr 13.645858360524006 11.958052384674417 15.114427626524764
Zr 12.66754363626056 9.55002105027621 16.631705090670874
Zr 11.279383655560732 16.572715402292165 12.97835512975714
Zr 9.118254514455007 16.16390370955875 10.990315009539819
Zr 11.546490168765388 8.36754899914498 14.041992877501597
Zr 13.997346588348636 11.805594296552002 18.066553644527236
Zr 10.479449276384484 13.84355377738871 11.97808022635419
Zr 13.730828256945907 15.20395757243128 14.305607196250236
Zr 13.647616868407761 18.20962531217109 14.213629135629155
Zr 15.907880616480131 13.422457967403224 16.33926931178517
Zr 9.43199111774219 13.736639137166682 9.139936894289898
Zr 8.882516958135147 11.279124881393315 10.756855883441293
Zr 8.894589230162609 9.319317277711857 13.08321486561018
Zr 11.005883939874515 11.227514882981785 13.478862331344704
Zr 9.673974980427404 10.194576898556097 15.829063020670445
Zr 11.820545119136556 16.768969390951316 15.92307862135755
Zr 8.687109769046895 15.204835341526701 14.049105834321288
Zr 11.155426820842179 12.088510920647023 17.552595685019043
Zr 13.042495191619782 14.513462318771328 17.418936142558323
Zr 7.529343588546786 13.84915393609539 11.467371627948076
Zr 11.100974186487369 13.860956372394872 14.93627774702422
Zr 8.065228602860822 12.093671062405507 13.623058740473216
Zr 8.521212852823886 12.8861821736117 16.244510982572628
Zr 10.032994800661184 14.904152723601355 17.344110068419468
