52
Energy = -386.05856667 eV
Zr 14.248093134006151 10.82851641602555 18.07814081197889
Zr 14.669992153087739 8.681438003060258 16.103922738177655
Zr 12.002722050579663 9.21392692441929 17.361055418785313
Zr 16.243355788883694 11.307579905686477 15.77055686830274
Zr 17.597122318152707 9.67206989439283 13.340376152836535
Zr 11.687301607752726 12.442862665648988 17.577596206632453
Zr 14.383786860820896 13.63655751535634 17.064473402989808
Zr 12.097124563776026 8.077185794319616 14.447156674024601
Zr 18.710577871250933 12.247490691862001 14.049856293122636
Zr 13.139299931050925 11.00332035739519 15.354520506519645
Zr 14.612681302003582 9.61141942203149 13.315299617743765
Zr 16.735057533987582 14.332733432405188 14.921042039521737
Zr 9.80269790107801 10.749802599271087 16.253582072053636
Zr 9.002893936963664 8.694838981989701 14.337715581851748
Zr 11.809818067808369 15.369021006698913 16.567071281477393
Zr 16.084939462711397 9.717572832780354 10.716477987433867
Zr 10.311920790432264 7.964734948538817 11.920885454035693
Zr 18.522291747612748 11.52559241330583 11.01395123860207
Zr 12.966995650220298 8.767815768023569 11.237927642095887
Zr 13.82329865662731 13.495855336828186 14.154552993259605
Zr 10.792132088480018 13.372405853659647 14.526282430266924
Zr 16.15554867297919 12.177413065244362 12.976608987067952
Zr 18.02410726673461 14.406916378881494 11.876774823658012
Zr 9.08006140225527 13.862175817967547 16.607860833041222
Zr 11.043832837108388 10.520856343521658 13.17500205627737
Zr 14.297746760181207 16.233308242540282 15.145071446311437
Zr 8.315807055230326 10.096939872261391 11.669288878360662
Zr 15.774424257705014 12.970537779286209 10.418533523450474
Zr 16.89243200416909 11.163595740885826 8.390579617178679
Zr 15.17386449680335 15.593316575222676 12.339595011280105
Zr 13.025204157832725 11.922328271879891 11.582638917903962
Zr 11.848348125126275 17.815092474054115 15.0356288348798
Zr 18.135787298696833 13.688379157202272 8.904756192912373
Zr 12.03291007233973 15.647554649645704 12.753606199948118
Zr 13.857033405425218 11.194887524596545 8.900784401679077
Zr 13.703924340994725 18.271294622365918 13.03076088274688
Zr 8.198313512703887 11.666873438605629 14.141636907013135
Zr 10.900237570813466 10.259116661513433 9.930513530019377
Zr 9.435782111008427 16.428236095950506 14.681211658285969
Zr 16.229574331194403 15.76930043895454 9.591007685922026
Zr 10.036830905344342 13.144242998027709 11.62701692100469
Zr 13.34892544975484 14.529108961644434 9.92543314672691
Zr 7.656441425860602 14.357588787661529 14.059302030727643
Zr 15.396492473047797 13.641774081987313 7.675428142743854
Zr 8.558554556613467 11.759596542449694 9.35300644511956
Zr 13.22965823160698 17.325647896923762 10.516951859982662
Zr 10.73551304918001 18.143389850684425 12.252425908667318
Zr 11.15877680534399 13.09627106011083 8.728057584898135
Zr 7.057777996496126 13.169121963841265 11.51504565771928
Zr 10.706184006122156 16.16470994116472 9.841071465514974
Zr 8.520856394721685 15.998317193305963 11.868164291418191
Zr 8.51436014108367 14.49564086099406 9.358846601722101
