51
Energy = -377.83114898 eV
Zr 15.87873814076711 15.43102455569742 8.601068055903987
Zr 18.76442859393418 12.252374054926964 10.747148011036254
Zr 16.424663442711374 12.602502106913475 9.227167853418067
Zr 17.942385057455567 15.054801497015728 10.579030580565998
Zr 16.955174049549047 9.87654459646908 10.812351108821725
Zr 13.585373748970031 13.585725118643134 9.070269886875959
Zr 13.310610652456543 16.660289306549952 9.164420404722238
Zr 10.991084451064474 14.903022421688291 8.56061961741573
Zr 15.996283140615873 17.576043790132733 10.67818373552908
Zr 18.764206045901282 10.836596161312734 13.098916392081993
Zr 14.120157683308332 10.68286493365257 9.652613022244585
Zr 15.036718631341689 15.07377898809169 11.553572567992383
Zr 18.599953236208915 13.818071235853079 13.231144318571479
Zr 16.099104380643123 12.132047204608545 12.358583467017992
Zr 11.105286599881993 12.240943106168546 9.916605974196942
Zr 10.252876222140145 17.03351287339728 10.572793028989846
Zr 14.18632546464974 9.256865970823739 12.139188273899912
Zr 16.416326029897963 9.521743298182802 14.026422706028386
Zr 12.013325521530193 15.091549460843304 11.415937276771198
Zr 17.424413736989408 16.55907894776991 13.072414634780683
Zr 13.045170461356706 18.065768855544036 11.46659832360229
Zr 8.879798012243423 14.275351984826115 10.498471258189038
Zr 13.147299324153284 12.445068840495951 12.03661064509339
Zr 17.070608646273186 11.86205005186927 15.437865469784114
Zr 11.533610204397283 9.367876480972884 10.912310730044386
Zr 16.056099361881746 14.416066072173422 14.57662069856747
Zr 11.420404424210714 10.623071265273765 13.592759424898999
Zr 13.127160682616076 14.829239757979101 14.464931509814166
Zr 14.087397105767472 11.384875957364503 14.800798499222688
Zr 8.988916059598292 11.1227078848855 11.576685778586915
Zr 8.710627140153953 15.99760899592388 12.989471898330477
Zr 14.590792363441038 17.315672460469486 13.757619809252457
Zr 14.179217057838251 8.108128222183195 14.938776873934218
Zr 11.278158082242486 17.38328817470673 13.609456659684525
Zr 11.900405358937011 7.713739338847061 13.454143047052336
Zr 10.22902317970484 13.55815892399273 13.216643715295316
Zr 14.947022481984616 13.049426348793867 17.241622770896118
Zr 11.292504285608553 12.681979197955314 15.714443131410262
Zr 15.084924819826197 16.07560063715053 16.52615094220066
Zr 12.654733486640524 17.327779621075575 16.14089234895328
Zr 14.954740365289707 9.949508664015438 17.062569422502182
Zr 9.464148277183245 8.719005906378175 14.185621382767705
Zr 11.991396166749663 9.068983187076674 16.34953010458678
Zr 7.3453288425858485 13.429775146429106 12.812426035788647
Zr 10.302781342075118 15.594799947309472 15.944289762850012
Zr 8.154872778293896 11.153750593949741 14.30059453123561
Zr 12.627546029615198 14.649948661817012 17.61603847737401
Zr 9.581310845319427 10.644387836324084 16.851178112831924
Zr 12.402132801753245 11.445686939326874 18.12861399915898
Zr 10.029433608090537 13.340504477080616 18.163131497592975
Zr 8.290535094502015 13.47441707933967 15.751739224914576
