50
Energy = -369.64581976 eV
Zr 18.894069459472437 12.519666528783565 13.853671588063115
Zr 18.16772476109093 12.333691886464639 10.990596057776518
Zr 18.161803406961567 14.83289875265401 12.721506735658457
Zr 15.522645608869269 7.942566771532942 13.003852019290393
Zr 15.500264625214086 16.68978135755313 15.554557142136604
Zr 17.27149002524733 10.2995542765476 13.274621042052246
Zr 17.394468274594093 11.254033162261528 16.043790957472314
Zr 16.101634142158588 10.018568071626387 10.63422940433598
Zr 16.015676008970424 9.00107212210902 15.835511097075132
Zr 14.915887375438961 14.80431800774951 17.575759114197254
Zr 16.49496683114545 13.799826942315393 15.149714455424588
Zr 17.020468308270782 14.86211728945387 10.241317238839091
Zr 14.499941398884221 11.96197042409869 17.01507304437278
Zr 15.54719273785027 13.034804549502852 12.332831876184898
Zr 15.299439756713367 12.480675159720901 9.433316122911362
Zr 15.453611374197115 16.075058691005054 12.67518123210125
Zr 14.31080015252262 7.787033319810338 10.276881242730488
Zr 12.076538222511578 13.747206172022084 17.519419961772073
Zr 12.769341491199736 7.166037092214798 12.605034782287062
Zr 14.481980574347295 11.08821725939416 14.416710229842339
Zr 12.779339245400019 16.690776784814005 16.645711147697515
Zr 13.34231764532289 10.133565732448243 11.893200227009379
Zr 13.383099522922715 8.318532792431556 15.078887822104205
Zr 13.525187715396212 10.187277529481783 8.768905696480134
Zr 13.689817183775197 14.24837035546123 14.932744832503685
Zr 10.771664457112108 10.889501705224347 9.023785917727663
Zr 11.461264325659338 8.444935801671061 10.333468414562544
Zr 13.473527390882674 18.192166523520413 14.024022869611183
Zr 11.673361978163392 10.747707398283016 16.38348955779938
Zr 10.974217395676849 9.237166877014426 13.762706058235628
Zr 11.47950609806992 12.390955639820538 14.175004946830365
Zr 12.408758724066079 13.112218655549542 8.196219827676776
Zr 12.381553133972465 12.92568661198502 11.088193873654358
Zr 13.55834073920399 17.76853274106628 11.04179188174035
Zr 12.357083940577256 15.771417688046325 12.866469397907695
Zr 14.163598301843704 15.046250356139863 10.02933894101509
Zr 9.488381016855518 12.791490927152084 16.74645837674177
Zr 10.328354237810986 15.300589735542513 15.643761172719772
Zr 9.487894125539253 13.40301011663695 9.862441739457106
Zr 10.768790654309223 18.024528903329852 14.926691678784511
Zr 10.011502095717287 10.872208847847139 11.746338640652045
Zr 8.792035719849174 11.08320176929318 14.660749628064519
Zr 11.468768375025132 15.78489851597512 9.828296320055884
Zr 10.827159795959842 18.145923762226925 12.036547234278165
Zr 9.904570917611013 14.222437662744344 12.540820833580204
Zr 7.743795919012126 13.940083345548176 14.656281710313051
Zr 8.534547361520783 16.76429031375277 13.59823883474651
Zr 7.591409307926871 12.175672330817845 12.23822870879029
Zr 8.915223888559316 16.493370398629278 10.644139692901227
Zr 7.107217755087996 14.807768091093257 11.814278301259963
