54
Energy = -398.12930862 eV
Zr 17.65302287492654 13.259497965196697 9.200156346769512
Zr 16.13924930323897 15.695239266947006 9.352079675146442
Zr 15.985620164219954 17.16330077536817 12.12842365801097
Zr 17.65938842423745 14.682077224862754 11.680843345310546
Zr 17.469514251564927 13.000667565072686 14.313479780308318
Zr 17.4247004696716 10.029518578925492 14.351662885538703
Zr 16.98753249294226 16.109660470882897 14.555571406760034
Zr 16.293658535484226 10.793730369640583 8.836406739551744
Zr 17.01775624678832 11.65624849489021 11.751912527545223
Zr 16.845979838320083 11.609184825072456 16.732201718549884
Zr 15.27184998411751 13.426858859967826 7.388542511717032
Zr 15.576940924993051 17.228288923739793 16.815606659706805
Zr 13.526018494144589 15.83442296075357 11.194115624885907
Zr 15.969646057123619 18.815019070015094 14.641202433652538
Zr 12.657548737240637 16.132165766072795 16.66487405570947
Zr 15.125486279838999 14.190094194713932 16.15001959522481
Zr 14.953642942900132 14.159454201357285 13.058566018494336
Zr 14.265347560339611 10.206817511892208 10.973005292035477
Zr 14.7362053047797 13.019515856316668 10.163354549491299
Zr 14.832915436441025 11.393191962936022 14.206871069092898
Zr 15.512774007345845 9.155231945978576 16.308123911682415
Zr 14.653646576676884 8.607870488695385 13.61207914454286
Zr 13.658349740089712 10.978911787443655 7.808008685367846
Zr 13.864265803663562 16.864120477824244 14.284123068338802
Zr 13.520663724308793 15.768475915880812 8.34064357229753
Zr 13.991799449488044 11.468385031597153 17.428173982692417
Zr 12.005288128078242 18.07938103650877 12.335401015117883
Zr 12.527164632616163 12.967918491709126 15.122467699273919
Zr 10.804333924297849 15.853720383074291 10.236711384026696
Zr 11.911659003007086 10.146181279783333 12.915193742178543
Zr 11.211692587941075 15.354028977574057 13.401696163613908
Zr 12.630855577242404 13.888130314641966 18.045176124970485
Zr 12.077705105305283 13.414739684985946 8.442111257837599
Zr 13.621432613537348 7.272080498639194 11.425255735489168
Zr 12.63480999227416 9.664183622949105 15.7884708428978
Zr 11.964561423298722 13.039745043269603 11.597519747542098
Zr 10.68466174301094 17.570968165055422 15.079138578886399
Zr 13.284677286820433 8.341241464024899 8.896984658935136
Zr 11.466932222979187 10.758108689283828 9.55105291521589
Zr 10.663752260361733 11.79315123898022 17.204323101273225
Zr 9.279101629565167 17.494135458965587 12.534485867843546
Zr 8.345777954301202 15.136178040238121 11.586770821143974
Zr 11.782827051395623 7.316836227260981 13.691013062141304
Zr 9.727789933204606 9.856272087543923 15.326837307943153
Zr 9.284662400781073 13.04003399488956 10.01764494832489
Zr 9.83937906690876 12.694660460332418 13.798491427790466
Zr 10.896280397327116 8.072136622624921 10.828375391278737
Zr 10.152672323426051 14.603781269998985 16.435018590317576
Zr 9.14396120395445 10.632023805675312 11.481687789831183
Zr 7.897200710053031 12.425640822140178 15.817073382938474
Zr 8.131955558875942 15.291213502079708 14.444364232559366
Zr 9.130616073194858 8.160390460436753 13.042221564744136
Zr 7.115025560462579 12.892967734008721 12.704466060804108
Zr 7.4410892830008795 10.347747401437513 13.81894412441211
