55
Energy = -409.37065862 eV
Zr 8.897410987964664 11.40021806618432 16.204779279578833
Zr 15.958417456972345 13.71550223852151 11.800891490934847
Zr 14.454422931811804 9.394199284526131 15.371982415513479
Zr 11.143281325344521 11.576941929130987 9.376617149896731
Zr 15.548787772687538 13.833221453372099 15.000957027286463
Zr 14.379968595269238 14.887709804319195 7.434784124583336
Zr 10.723618110968307 11.619401251153144 13.56597129229421
Zr 8.574503911713338 11.691903599203675 11.230942255753495
Zr 13.536412884188117 14.471550169682583 10.223600234264335
Zr 13.886907262627687 11.784304811967788 17.880609229551006
Zr 11.04754568049273 12.43026333289574 17.732285926901387
Zr 13.15667865121716 14.661772908360149 13.392503363381625
Zr 10.358699515872283 16.253895919703172 9.906383010803246
Zr 8.340439565396261 14.776820160080346 11.911446260718717
Zr 12.846060469837804 14.699079490238217 16.492482572335632
Zr 10.496814795120002 16.715360421686874 12.98776815446171
Zr 13.878006142470944 12.05461250855 8.479093321902415
Zr 18.415410635490694 12.519964910586436 10.434443796702858
Zr 15.924283891700165 10.953822844829867 10.335165493522739
Zr 13.447142326905066 11.595259567762806 12.0027368861346
Zr 19.08268069495341 13.259658529153528 13.09428081003225
Zr 16.36218741721373 11.519311523561063 13.670655571466611
Zr 13.195263831729616 12.005424000880321 15.055203299106351
Zr 9.042929071240827 13.68425744425462 9.238179822700841
Zr 16.513420651937963 11.324426158950235 16.724453353681298
Zr 12.7853204858965 16.879427736864002 8.55132894305255
Zr 8.61955681808866 14.330444489318179 16.94650528967086
Zr 15.55512074704056 16.60436923477435 9.641029838346537
Zr 12.941190024630126 17.27813303866929 11.422449543040802
Zr 10.738444451240472 15.397211176272776 18.606256276061018
Zr 15.504026212655607 16.577924839028398 12.777865514039366
Zr 13.015887083893674 17.444252968864078 14.73844463483257
Zr 13.016141769513972 14.09915177941037 19.38712175978764
Zr 10.482975157413797 9.516820146463244 11.2435776202765
Zr 18.366878646170782 10.171161907995009 12.23010268105248
Zr 18.28033602662665 13.58884077811074 15.948925234320756
Zr 11.31592296775641 9.833912585009923 16.12397325809564
Zr 19.052574554350873 11.036506000338642 15.034342641523663
Zr 15.513381977315728 14.403460583827815 17.95332017381191
Zr 11.549616441815346 14.213808016279618 7.9386999254983746
Zr 18.06039980094516 15.447287670218394 11.061515734655458
Zr 8.063193324929316 15.934613563505858 14.623001315224442
Zr 10.939273237035449 13.776500275696414 11.549179091902046
Zr 9.18217647627006 9.468780635422593 13.925440418018567
Zr 10.41972044818058 16.949737721884404 16.18583594104102
Zr 10.443088934839784 14.269669190884823 14.780390998901288
Zr 7.852236158929012 12.820249373284344 14.088193052917637
Zr 13.305300530959887 16.916462007974648 18.013317576474073
Zr 15.26359938086671 8.951960740889492 12.491789299538784
Zr 13.181708625408364 9.359255373122522 10.245048235845008
Zr 15.47221541022342 16.559374497849635 15.892416840436306
Zr 17.202507717395104 8.978429748141474 14.82259606178402
Zr 12.264872856073204 8.854815894828029 13.376916068948672
Zr 17.882641105584288 15.709741981572419 14.062673180565385
Zr 16.546519226118328 13.826934893238763 8.817647886122858
