5
Energy = -29.46913775 eV
Zr 9.129314704440517 10.933749139824394 10.214274634184427
Zr 11.122819201353135 9.092499797266907 9.47941475477933
Zr 9.73979148416756 10.6450325553498 7.567263595171178
Zr 8.42795166166521 8.537433629568978 8.926934092573312
Zr 9.338692199030278 8.583151727341711 11.602787826649644
