55
Energy = -403.37223693 eV
Zr 12.292564545403565 10.368215519052418 15.783969493627252
Zr 16.516530654476202 8.182633275894434 16.00641234593669
Zr 16.66098066824897 11.439333331757322 12.397474129616274
Zr 15.403270721515083 21.55707917692144 18.290167988419498
Zr 14.72050790363113 15.748418536024781 16.141541076293564
Zr 13.301199407275796 17.21044973806614 18.73951689018564
Zr 18.434706296905276 17.670270359928622 18.614310002326615
Zr 15.581182001697853 18.889926624199724 19.933058677932586
Zr 15.028560080548528 9.036768886090222 13.73940270862039
Zr 12.439144799317347 18.515675724131818 16.02984007544297
Zr 20.550006415978217 14.286841169314565 15.253005352583706
Zr 15.058886134097236 18.718341597950296 11.144205284662773
Zr 15.959146003298457 13.356771445445334 20.197661862024447
Zr 18.83012991061452 19.111781434103868 15.977451077819293
Zr 12.201426967455374 14.785601189887176 12.724662860285886
Zr 15.752374389128954 18.731541061063997 17.076046529068034
Zr 16.970103922727073 16.4014446222606 12.719677913445723
Zr 12.947975588812389 13.135118640720979 15.664820445210925
Zr 20.475025063756455 16.756491399564474 16.706144025789925
Zr 19.19892001483945 11.899802149534725 16.521848763610652
Zr 16.73495851960604 10.306984157264953 17.992755897327932
Zr 12.549085109521648 19.90620268812219 13.231482531428123
Zr 19.480091388046915 14.53138854060077 12.371999947575068
Zr 16.28391199184159 13.268658846310263 17.35298027808947
Zr 10.937018696896908 17.427555746620644 13.680915500661323
Zr 13.204332886737335 20.037538426048535 18.39005993077165
Zr 13.908710971243854 11.369163525627451 18.391882047335862
Zr 15.311887090284225 11.241097499612064 15.529375679620738
Zr 16.10979655875584 15.932816900582418 18.659193937803494
Zr 14.186795772556508 8.760901145049557 17.181402403759648
Zr 14.59008895999368 15.795798927879575 21.03266493256333
Zr 17.930746044414494 20.438905447315385 18.452860703985756
Zr 16.960687760109895 14.04829241127243 11.036993196118075
Zr 19.77222523142427 16.890249146896142 13.885965376058651
Zr 17.92476227475844 10.111916467694245 14.631236378893332
Zr 19.83204477062467 11.965821780290051 13.558307699124345
Zr 13.93080314749108 17.203714674190824 13.634617387630188
Zr 14.945207029823194 13.991284219205074 13.49043482334334
Zr 13.214327724904173 20.934322775684542 10.709379091962028
Zr 12.27515373050921 17.730736118926323 11.129978333606656
Zr 13.528062027108447 14.249756735866425 18.67827349692156
Zr 13.421145611288505 11.387118336906259 13.076099212189831
Zr 14.39443548079248 12.802605633597762 10.877294465353794
Zr 16.41052044848828 18.919737780044926 14.177536855195616
Zr 16.949816839651614 21.421367569819118 15.824823675850391
Zr 19.01965157513257 14.460645888139698 17.926729723060067
Zr 17.654994119318353 16.34572832576086 15.903393292844198
Zr 14.160527195715625 20.9578793362288 15.516380416698068
Zr 14.516399668406578 15.769704299897679 11.030043917569428
Zr 13.23127327496015 22.71364975681104 12.987589087666404
Zr 15.425951490264936 21.162126513664397 12.593279386798878
Zr 17.624520192921437 13.594246609611712 14.510401080559058
Zr 11.081841525107572 12.25316015570243 17.705174862547256
Zr 11.830722260287692 15.702531290654576 15.824828812203187
Zr 11.449975097320051 9.669000396221952 18.467562090016173
