51
Energy = -378.54160775 eV
Zr 16.80488848027666 9.448189073758824 14.973251273155777
Zr 14.71700122020688 8.69402028597324 16.89167720888165
Zr 14.91341752438666 7.304593003468089 14.296430715892985
Zr 18.047582902210145 10.975811042383302 11.649735964629164
Zr 15.291919757718428 11.655106736768493 16.721864550791427
Zr 16.38411297119179 12.123823789381696 14.023382164757887
Zr 15.628801719118833 9.224631734000637 12.004083052697686
Zr 17.850372351525696 13.8241018635863 12.160589934070883
Zr 13.957917624009069 10.083133334620852 14.413114566159726
Zr 12.318973815214902 7.85314617034677 15.522377135248385
Zr 13.295539558757476 14.310719016257764 17.379307096865304
Zr 15.757129929097033 14.480533245728797 15.813940732651595
Zr 12.43373534274415 10.753942253237163 16.834107706479198
Zr 16.457733017157555 10.324970730302121 9.230736985997886
Zr 17.716343821729645 12.864413498800458 9.391143181743907
Zr 15.365009214520247 12.269429910139301 11.166417469378962
Zr 12.673545394463119 8.153524859272009 12.450750313264932
Zr 13.288206820108412 13.162466417476315 14.751727111059456
Zr 15.133483439283461 14.885927269589596 12.97034028273193
Zr 13.556612933577759 9.934452074518902 9.704038961978592
Zr 16.169553984448257 15.264890813440418 10.178232821087368
Zr 10.574601350524778 9.691811607004487 14.035304508162294
Zr 10.737199073625467 13.019452279305915 17.78133561081095
Zr 12.628304015681717 11.405967186451472 12.293664268648204
Zr 9.60666728271675 10.48626943845126 17.00051329337822
Zr 14.829029411177405 13.087447196931645 8.35281823456705
Zr 13.159120194645784 14.36287163559558 10.391523370553154
Zr 10.509537601769242 9.857066893413142 10.969979493311811
Zr 10.172619321377793 12.471675271872927 14.804245979041571
Zr 13.485681360835063 16.217328429101453 14.986053526215677
Zr 12.955691018856442 11.360965418582659 6.842253415923777
Zr 14.046361976542714 16.306831271745022 8.553258295846959
Zr 7.700201649441925 10.567423606971325 15.122213936136495
Zr 7.786581897225705 10.787477180366132 12.182484514046127
Zr 11.740985687078265 12.144381790697695 9.407966974591432
Zr 11.658700755533792 14.996744528854606 12.772060150469937
Zr 8.144594333027777 13.245763715234741 16.62093838137209
Zr 10.871689911772732 15.351973519578312 15.822228390345717
Zr 12.261966436935518 14.356340271786868 7.258444939510262
Zr 13.776732924124007 17.03940565755274 11.555423117434454
Zr 10.828917855760885 9.760206391471021 8.03031574644475
Zr 9.938066720094797 12.849629747532312 11.819402150450962
Zr 6.998029974438864 12.932720380945572 13.918562652108411
Zr 10.192984741925162 12.365288525531323 6.874906631409772
Zr 10.8852779280784 17.516097793692396 13.17195706237685
Zr 11.410331732252732 16.830027932838288 10.00646005391988
Zr 8.678315978512135 11.62969526063307 9.319256962897184
Zr 8.692519207583628 15.231347569237691 13.830017674157766
Zr 9.6277081748463 14.441448320940202 9.005235412594214
Zr 8.997859553197296 16.178568182978232 11.270315376416688
Zr 7.313635171933907 13.715394979454826 11.193744660351255
