55
Energy = -405.88685029 eV
Zr 14.468302956383585 14.732651564224133 14.191343862667571
Zr 8.919562364066955 9.697420496248007 12.61803595435928
Zr 13.607120079037273 9.362629254820932 16.803539235450366
Zr 9.262698181375107 14.257146786208486 15.29638248708494
Zr 13.851662900790725 12.861027801888564 11.409112513637945
Zr 14.469369510673408 12.895790764166456 16.60859032639067
Zr 14.342988226827051 17.670460921153133 14.08541058377466
Zr 14.027399583333663 16.255166007082316 11.638842053244696
Zr 16.400022413068918 17.16884473423129 15.983913945010219
Zr 14.409810487859048 11.018607010463402 14.149406603512968
Zr 13.991925017410473 9.490061557414943 11.576651434709687
Zr 11.727135998906414 14.315258694371614 16.955108781254957
Zr 9.159805073447014 11.457766319604994 15.2598102843337
Zr 16.427133994671113 14.40357812422461 10.945937709756603
Zr 9.288652554150339 12.859903814790023 17.885407766546177
Zr 14.2242699310547 8.083547351250136 14.052272539077164
Zr 16.42479932645503 11.324788186316498 10.940571122262988
Zr 17.18731855641244 11.286323536205856 16.02151979304317
Zr 11.857173748964101 12.934048602365074 14.108903743265065
Zr 8.41995607060798 14.392694277022045 10.106883654408069
Zr 16.230310686665277 8.558781372049625 15.982932097239352
Zr 11.750418173583851 16.000603694167616 14.313738652275642
Zr 8.370688084719665 11.370594846288002 10.051478664746186
Zr 13.78365163033198 16.39353959878155 16.87004898133081
Zr 11.661618304003005 9.827731052440592 14.184643021081731
Zr 11.374473134092629 12.886897046853578 9.05116390306625
Zr 17.216999417373703 14.380511557593707 16.013521635815984
Zr 16.690248612100053 12.848332791312231 13.426035591567622
Zr 15.987879477456197 12.880380674747665 8.729311950767011
Zr 9.199841754970842 12.904964655006783 7.29011320310511
Zr 16.936308497093048 16.04564222657449 13.465296929770712
Zr 12.18886223564027 17.249949230557043 9.386914315225765
Zr 10.00724142791179 15.638394683375491 8.071879879903094
Zr 16.867253183003346 9.641532545055647 13.467282840404451
Zr 9.421834955525913 17.192639084133564 10.226123978454268
Zr 9.966039260837945 10.155407535371392 7.981231768772434
Zr 11.340007145527657 14.901308205538406 11.309700069825052
Zr 12.162144281047814 8.547514879211795 9.280308709108793
Zr 11.77752563175245 14.373420958109582 6.39127037350284
Zr 11.427467480186307 17.83264586526144 12.134453342406902
Zr 9.387962683534962 8.57396890676773 10.088755167567513
Zr 11.782075178473288 11.4188718296081 6.37468698363445
Zr 11.289320694378606 10.859323410916343 11.234973305352012
Zr 13.750490384688069 14.83368100717329 8.923705421123866
Zr 14.098201339982785 12.894369152052851 6.726307067123439
Zr 11.382980364220815 7.92739310423482 12.010578592956813
Zr 13.765505468864824 10.93523228112266 8.888109053758619
Zr 16.459593675561713 12.83275388594191 18.751352282370295
Zr 9.198497659118274 12.838820421022099 12.593477102053921
Zr 11.62931726909216 11.440769511837775 16.825068426437824
Zr 16.166233447620876 15.694499281096295 18.32327760927376
Zr 9.007157934970705 16.032078649704708 12.73735072342719
Zr 13.83583907519297 14.358584555758267 19.12970601890161
Zr 15.977444708915154 10.02539433097379 18.30644622776574
Zr 13.677649175530405 11.471940774772435 19.057301125555988
