50
Energy = -370.70781607 eV
Zr 8.954773265645477 17.583502870832408 13.396260139214695
Zr 7.433523437677726 15.131064706561446 13.76671953869177
Zr 11.702274029562087 18.9406129884561 12.919336251128298
Zr 9.390270670232566 15.666895209276635 15.913964409952385
Zr 11.384706006051186 17.681456358442272 15.357045434631866
Zr 10.341737101287087 17.877598795320395 10.686786392823228
Zr 8.748723785667849 15.384876076525767 11.06282767938082
Zr 7.9467299294188845 12.945467893804869 15.583117681752102
Zr 7.768290119745988 12.350422429453273 12.561359472444593
Zr 11.272088789751512 16.018153613568277 12.791843500883099
Zr 13.906854534137022 17.06716608501891 13.882722328727759
Zr 10.048372057336671 13.613378232637377 13.828067507322281
Zr 11.604636436883041 15.389775581527363 9.61689379323377
Zr 12.509915962325271 15.02572582369758 15.665420765774636
Zr 13.37601564737262 17.2860407608423 10.99402682695585
Zr 10.876433133357892 12.811993281450672 16.56698973161499
Zr 10.534392701447231 13.013051720445239 11.108005224818726
Zr 14.943560429007636 14.640183843295128 9.487804703124878
Zr 9.79617835052423 10.63396167948799 14.754402808231797
Zr 15.466166798947919 14.256900130785674 14.616776722672368
Zr 13.44547329462933 14.474042643878153 12.202915887767935
Zr 16.19082279059565 15.424611378785045 11.974156164603304
Zr 10.164849708797378 12.997222289645121 8.282160474956864
Zr 12.542745117823474 12.136033524391825 14.134788266266748
Zr 8.246841746218847 11.0598696999641 9.969576043379258
Zr 10.45569151937442 10.313230031251083 12.000080112058672
Zr 7.660542064700207 9.463790467126653 12.524079789129758
Zr 12.603028557627892 8.779587542771912 13.700148747863656
Zr 14.384871151544194 12.530163001010898 16.636512399507414
Zr 12.794212322871592 12.072051442659731 7.001395391839432
Zr 12.857933444185226 12.523254434848354 9.702125032253074
Zr 15.486891299305162 12.493166687179565 11.797663047872515
Zr 12.841283308339655 10.110910433760472 16.420531471232007
Zr 17.79398383901804 12.813692266820242 10.374735377824706
Zr 17.999053762855407 13.541595676467612 13.243934128784687
Zr 13.476476917456909 10.287734775518928 11.377503519478648
Zr 15.047425120798318 10.700245201208896 14.264708971788266
Zr 10.94651307246133 10.23264489068122 8.82956873968386
Zr 9.845487416289732 7.71307841944798 13.097980357232966
Zr 9.082010425800835 8.277404657272013 10.301509387814564
Zr 15.603433009236905 12.056135403015046 8.391849796354657
Zr 17.42696659428314 11.89879896926334 15.506400137712362
Zr 15.782374044366282 10.014000388858015 17.123840899296987
Zr 13.879885001899728 9.756679292859133 8.512168700830166
Zr 14.747759348344758 7.901216591602404 15.463098346565316
Zr 11.899983799923437 7.87534416292366 10.835774955577552
Zr 16.458583199212207 10.023443219880111 10.197372763885204
Zr 17.965763874754696 10.646632425429358 12.689620057234082
Zr 15.569428831525467 8.30210074573499 12.579696018404203
Zr 17.365678905638298 8.96674697188808 14.941780382073496
