50
Energy = -370.78245143 eV
Zr 17.86334095778772 12.75820324819341 11.376828519551339
Zr 15.451940680952852 7.682603615005803 14.377742606828852
Zr 16.529243644097797 12.90056720572531 13.933077565847904
Zr 16.521944327963304 10.060369756399169 12.363465476229322
Zr 15.623069567734287 10.340948587276637 15.623591149934747
Zr 16.899337763421403 11.162078385390506 9.335439291516156
Zr 15.301490920181502 13.158025146117488 16.45079428639589
Zr 15.152643781587075 7.124305027797681 11.733386146000269
Zr 16.55896558826239 15.295600755945904 12.04999136868066
Zr 16.26025617740881 14.122083038461854 9.233328585575538
Zr 13.292751037506859 8.619306032033592 15.898731051174108
Zr 12.930916085650185 11.39727386177727 17.08729632411687
Zr 15.963135507963736 15.796263516493172 15.08727701539632
Zr 12.660653448215347 6.935343956778558 13.55193503776927
Zr 14.885615101117397 12.300399493227884 11.228889776099606
Zr 14.917981219410454 9.256093999090217 9.80525434729034
Zr 13.557233949120596 9.395010039463143 12.701723834170181
Zr 13.608852311182687 11.878163864458168 14.098616077428654
Zr 14.608021277134855 16.676006487511305 10.16512851440521
Zr 14.104783223467516 11.930804267685819 8.19422498130003
Zr 13.103589588783784 14.82238528325991 16.81612441353286
Zr 12.433425626562654 7.4913313268997 10.486722173875725
Zr 13.827626310143497 14.705035677893596 13.69809293887278
Zr 14.831388217584413 17.48342084622276 12.969678804213915
Zr 11.139463492573714 10.006865195671807 14.65292197648179
Zr 12.899657696402786 14.370739874742185 10.961444644291099
Zr 12.884080864505728 8.94526369630024 7.816085718032159
Zr 9.707148856480536 11.164673061287282 17.12457491529662
Zr 13.74320040441639 14.837436989780533 7.993829105069858
Zr 12.197699846681932 10.727834162707214 10.200508696779076
Zr 10.317366657203918 9.074788053760638 11.955147329829659
Zr 11.143971377667546 12.961896222445251 15.367848532483103
Zr 12.866772828382848 17.134542652068784 15.127288007030081
Zr 10.832515846048718 13.57481908021908 18.186008937622084
Zr 11.730255250610341 16.436023484419458 9.21914047475596
Zr 11.246941681765383 13.43846938706534 8.671956118600797
Zr 10.230061874013149 8.725084139121243 9.03486524314002
Zr 8.683706175050272 11.444418262254992 14.373888262016473
Zr 10.856192755483647 12.27825826167229 12.36750946578117
Zr 11.983237842931311 17.231253103067022 12.044508417040165
Zr 10.67920767960511 15.32722719353067 13.878963718395113
Zr 9.889210796359952 14.767511637168415 10.886013215275021
Zr 10.3265472968205 16.198343082037383 16.87615822828887
Zr 11.01621447794815 10.987763179652445 7.440431769860035
Zr 8.393463813931643 13.795196116668244 16.335164216100125
Zr 10.21254753955557 18.146803245815914 14.519569344502589
Zr 9.301843589477468 11.342718157585212 9.975421234119798
Zr 8.036023876362556 14.038591464559659 13.207664680066884
Zr 8.766254777296936 16.93511110622287 12.31396482595704
Zr 8.029530094264313 16.359581119295907 15.0255110726932
