50
Energy = -369.7913444 eV
Zr 8.74206789322622 15.161463378911087 9.749960683500893
Zr 9.610984569743383 16.425373458590837 12.419556329944548
Zr 11.405272518441569 18.979863116394164 11.298414588535032
Zr 10.992315929104345 16.894417390397212 9.170903058230486
Zr 8.222213689969733 13.656593248489607 12.038697658052781
Zr 8.580543865131803 14.96756868156331 14.750379298113046
Zr 9.106129336326052 12.159875200833218 9.472309271551216
Zr 8.407794686055027 12.066171910204053 14.545594174189805
Zr 11.843344835787939 18.32129035417284 14.030200883303975
Zr 13.655947364838934 18.04557310773525 9.706015245579609
Zr 10.840653595722268 14.16144857931134 7.9392754080028975
Zr 11.394012791957872 13.913873184675776 10.685230814242964
Zr 9.82843771733007 9.374290191444945 9.88016686531608
Zr 8.021400371072081 10.383639547249864 11.954200132860828
Zr 12.416254229096785 16.27214571672009 11.856881228512954
Zr 10.353960371135393 13.272644803061706 16.553859986597185
Zr 14.140732199936892 18.655757184003043 12.485051417180893
Zr 10.675888705424702 11.320218268651889 11.898091091486416
Zr 13.502397867581706 15.277308371390152 8.885555863144724
Zr 11.130279455796828 13.948690148006909 13.65786897855777
Zr 9.484495979952362 10.490275577630083 16.84161177490474
Zr 11.288276102384463 16.04224332225515 15.517882714088023
Zr 12.121820545050788 11.394270753324056 9.090798274084722
Zr 8.79353113575508 9.197622944880486 14.566579011760325
Zr 11.613886439758693 11.003897122369604 14.581478839957871
Zr 14.022151085908536 13.65052809176565 12.342253439090864
Zr 13.210351645253828 13.393729330185318 15.960019240453695
Zr 14.134854049870395 16.067298815994516 14.24305574573051
Zr 15.370958189531178 16.141218205426433 11.279946364360681
Zr 13.732900012793609 10.676887271911877 12.047910712023919
Zr 12.478995727397175 8.460084949128648 10.367841123426404
Zr 14.938656076002134 12.731006716650832 9.560135081694737
Zr 14.719264558106682 10.023580084985557 9.183065195671288
Zr 11.329908020284075 8.397127742337357 15.775458843193045
Zr 10.515211042456013 8.302547150341779 12.617451602178912
Zr 12.188023842553612 10.991171765823042 17.462433737429627
Zr 15.90618980864536 12.264072191235156 14.291448925530505
Zr 16.746066737800295 11.029652307845033 11.40785199547416
Zr 15.617749090413984 12.178511351134814 17.43941184170499
Zr 15.764069882029835 14.706062123632464 16.314910573609794
Zr 17.14630677792052 15.212786312260228 13.814371376752089
Zr 13.297608444694633 7.908316223126717 13.320673380328074
Zr 17.019485641390794 13.97241052167354 11.105281654984514
Zr 15.31469152366606 8.224998616481571 11.153767090649636
Zr 14.14668502840063 9.81443043907841 15.851165703096589
Zr 17.064171972408392 10.196964709975168 16.32303604791123
Zr 18.201026957373426 13.046359265847402 15.873174080893358
Zr 18.521484769694133 10.563066117744055 14.029908349813077
Zr 18.72617163720328 12.969378238158773 12.930689023239687
Zr 15.93754167487733 9.177120963655069 13.747102703873221
