54
Energy = -399.39848343 eV
Zr 17.789685799645817 12.694013418390462 16.551155740298977
Zr 18.567484062677604 10.521783873477034 14.584400674535004
Zr 17.844987953846584 11.187302504995737 11.636899023858618
Zr 18.6190829300638 13.513746886134117 13.762568962652475
Zr 18.06384376408731 15.50124122161759 15.821620615282006
Zr 15.739973319438459 14.787245665218522 17.714304370540418
Zr 16.308984695029494 10.025519109913859 16.47301479046647
Zr 13.784754612963573 16.71526822340267 18.545192412138178
Zr 15.686751952319957 17.319092397460732 16.244774364555138
Zr 16.585939505494256 16.654995799543585 12.848686388204289
Zr 16.620453938868344 13.873588070628033 11.484982622186639
Zr 14.525211589217088 12.228726334352164 16.728952915176176
Zr 16.72407565264102 11.99459943438417 8.999456254009852
Zr 16.118270254674364 11.924929314983345 14.014190256476569
Zr 16.15340182156389 9.128171237082933 12.807291577823209
Zr 13.899271963600565 17.88908310698276 13.829586976916072
Zr 16.179012982883265 9.321684976460721 9.841148177830576
Zr 15.97760853884586 16.186340508958857 9.844844465428501
Zr 14.7229012098005 11.423155765026904 11.376397253117672
Zr 15.639790951947045 14.61529641235909 14.65880589778116
Zr 13.19010538979504 15.577450471090263 15.75272613600603
Zr 11.017962565666071 16.520773613897912 17.584565384499786
Zr 12.580632461383551 14.051018500217943 18.26089584675858
Zr 15.698947927023141 7.7146941373911355 15.162789172231482
Zr 12.898988447355947 18.486769418394665 16.53823881622776
Zr 14.551026262217109 18.17865832316158 11.102502706037619
Zr 12.697819491553146 12.886880879067444 14.228362659068594
Zr 13.694797606704402 10.218911128794753 14.436457824163584
Zr 13.922299618480753 15.346037853599993 12.028895105991259
Zr 13.563912879689717 8.601953050239938 16.8431462865685
Zr 13.551522397073832 8.725537693269764 10.74432261925903
Zr 14.006119647163638 10.859304433456364 8.45088216207899
Zr 11.829109394369588 11.208649968031645 16.8524822396554
Zr 13.063380416416512 16.396904916090172 9.213845755314443
Zr 11.745783081647838 17.662426199345543 11.626708346236724
Zr 10.916046869053922 17.602160410074703 14.620319159021447
Zr 12.274985086521166 13.065022346426742 10.923032281299214
Zr 14.60663349292343 13.80882485261392 9.029012186944927
Zr 13.218951252312904 7.494576285261803 13.7768393444918
Zr 10.384678131682058 13.980717223298626 16.136812154732674
Zr 11.142421274464725 8.732103164476555 15.304916159936115
Zr 10.862034840136172 14.86864383394577 13.166222627200028
Zr 10.437652100951228 15.404125835917675 10.168004492226176
Zr 11.354124855309651 10.582319203843186 9.547570790447095
Zr 11.367322252200148 9.709017023049771 12.442848606187141
Zr 11.93673152189736 13.405618977450382 8.018285345002514
Zr 10.054624294236094 11.239052708599033 14.685952914510942
Zr 8.77054832703379 16.85596504299576 12.331585639537314
Zr 8.551107560426013 16.179716419996456 15.28778172958358
Zr 9.689421279505286 12.137786764413509 11.962996414851201
Zr 9.568838455695833 12.781371778925967 9.109008810779024
Zr 8.069336117886861 13.638803633391161 14.01631294425084
Zr 7.864421480650914 14.315307240252377 11.160438846396048
Zr 6.390381565628065 15.739604842337169 13.329796582631289
