51
Energy = -378.83656138 eV
Zr 10.444157064801539 9.90584245161863 16.82103014462041
Zr 8.943665209328087 9.178908313291895 14.417815942219386
Zr 8.140631252927324 11.785727057251359 15.822766314414702
Zr 9.943605497803972 12.641125230905503 18.147891085079742
Zr 11.788154445241927 8.75397283672652 14.272157995835395
Zr 12.37571757296938 10.80334065997388 18.670615100519967
Zr 7.841564719942525 11.20555488255011 12.648831284166585
Zr 12.575958707112665 13.416291603919365 19.49272039195406
Zr 13.590967742480027 10.028992832896321 16.117409301615773
Zr 10.469040264515504 11.680011841760576 14.29245656204731
Zr 9.681742750578977 14.564880528291248 15.717727500446772
Zr 10.67623841256072 9.798853423974705 11.831132511608535
Zr 11.280896231699877 15.37016824228802 17.91317835376636
Zr 8.416148278486347 10.647907479508554 9.777059023780543
Zr 8.351168902490544 14.047359990997203 13.21975083356249
Zr 12.350625104527603 12.919126469576243 16.448271279610974
Zr 16.31554750102782 11.12807382945965 14.440026505969499
Zr 13.253363135393954 8.85015629424967 10.413913704927744
Zr 14.89809260676883 8.97777713976063 12.813856830319017
Zr 14.840180533263327 12.161999977753045 17.981106058504654
Zr 13.28193440517746 11.328711421825894 13.394787455845938
Zr 7.381200638763002 13.218361006489726 10.493629110561146
Zr 11.697715220611 14.007155737250342 13.343552383362342
Zr 14.18860695517432 15.053778828014032 17.73078272457236
Zr 11.15749772022653 10.56378059634328 8.844437607284386
Zr 17.684639413685026 9.327102668876226 12.432514161110918
Zr 15.016241204222702 13.55206346437022 15.326012516858038
Zr 13.219775322599554 11.872435978737006 10.495828182786898
Zr 15.995136796338642 11.631111590771036 11.48612574667806
Zr 10.198590817581541 12.557019822170103 11.121906881067563
Zr 14.13603583405534 10.475390401475694 8.128997698983005
Zr 9.469182323832625 13.300211818573432 8.372103908707395
Zr 14.553196205789423 14.225971677753424 12.404801948583792
Zr 12.684443109009157 15.897805266093622 15.285149971758761
Zr 16.164048414007766 9.094438077627983 9.854195805397953
Zr 9.041951010088376 15.543038996814674 10.524776761625201
Zr 10.316828969895077 16.571244569961447 13.07392919220299
Zr 17.375602957789553 14.315216652249637 13.381521750627687
Zr 18.745451982039565 11.96732387818784 12.690468652272967
Zr 12.165957085528598 14.791266687709323 10.568604179727792
Zr 15.500703041527753 16.313169588324058 14.364965823346907
Zr 12.418640099916008 13.097138918570913 7.823142088757929
Zr 18.566734086606665 10.886488631023589 10.101466277162544
Zr 16.575054498574517 11.87150933667608 8.414104984214257
Zr 17.776957918760104 13.815027605844415 10.458102171928244
Zr 14.913636147912374 14.07287042298377 9.291915471529096
Zr 11.058547455979479 15.86799827715505 8.206795747720975
Zr 11.249376623669924 17.609686389136414 10.47072984333824
Zr 13.306704750054077 17.24327578770043 12.56661020125551
Zr 16.125254666727127 16.42582453139752 11.500067736494525
Zr 13.897672895880556 16.877740948275232 9.632326781540486
