54
Energy = -401.26940484 eV
Zr 14.612976390709775 8.502593773949473 10.019938300349402
Zr 13.12295869126418 6.965624790686225 12.29055987470299
Zr 11.593495380073639 8.2371190468147 10.150649285940473
Zr 15.758489586260218 8.355055615631244 12.85267789729375
Zr 12.561649477049759 9.818103667701926 8.197996860420774
Zr 14.105165761459203 7.2043678423526725 15.070470610125165
Zr 14.816651289403824 11.70630665104382 8.584072250767141
Zr 16.57034879037443 10.994258291412468 10.928437706600569
Zr 11.241816947267456 7.4933377291433 14.748562198132985
Zr 18.082278934340405 10.964366022480633 14.016446600686104
Zr 19.00340047189081 12.676313689035833 11.942227994143284
Zr 13.133440438360283 10.740039696566287 10.936467688854323
Zr 10.18020226670859 9.41066533308815 12.452203228138726
Zr 15.525828365263884 9.615007922201992 15.907551805698633
Zr 12.976185581350856 9.51633726032044 13.693795864417174
Zr 11.956349409411022 12.724246093348851 8.38403180060354
Zr 10.218412460672894 11.063598604177043 10.044930107226087
Zr 12.699632215642191 9.32143205720651 16.803804930729633
Zr 17.033245439134568 13.789571491315888 10.05253168538016
Zr 14.037041636932518 14.806764838518001 8.604284207578559
Zr 18.741898975694344 14.014075343215374 14.704128042798777
Zr 15.249582279630905 11.194572612812127 13.434696196188815
Zr 14.297635654918086 13.307816655564368 11.114820088381931
Zr 16.45134633789516 13.625756227664434 13.230077480534511
Zr 16.9270879045302 12.130305974457109 16.28085263126704
Zr 11.224386865661705 15.542816158984497 8.47096439745548
Zr 18.45796966990665 15.486533187133942 12.079866637356282
Zr 13.595574894322471 12.273498684626915 15.42061957408027
Zr 10.272583846888317 10.17992561855674 15.223590977422745
Zr 11.498233227223327 12.097484170385654 13.235131881753755
Zr 15.652530021503882 16.05099040511523 11.272236674261904
Zr 9.07581817455295 13.822087855039026 9.54067325864921
Zr 15.690303624067878 14.609186568833113 16.224831074850396
Zr 11.359285795851523 14.088062405263587 11.199496343657756
Zr 14.37344586234818 11.922235195783156 17.935629014872372
Zr 8.63926356031832 12.146056284042844 12.169844497724906
Zr 12.943932096788048 16.813665243333755 10.555498273038305
Zr 13.881660025770206 15.01176958669813 13.735880996422276
Zr 11.138032198922984 12.140536027837339 17.073396333682737
Zr 16.48224098520403 16.485226249212822 14.143890361321981
Zr 10.887495586853131 14.40945537090671 14.930011234526848
Zr 12.749398800030292 14.714255313059104 17.234891248234167
Zr 9.89699775917472 16.695704792569078 10.805715138021913
Zr 8.616417022709372 14.873550609884827 12.70447464768522
Zr 8.501251847822893 12.81708907262653 15.283030129699368
Zr 11.67206079793183 16.57019281702714 13.237266686909322
Zr 14.135171035007568 18.333980276957202 13.050726556376121
Zr 11.409258359682221 19.088810465572596 11.919128655896285
Zr 13.73992959428199 17.24904747079871 15.778690442157117
Zr 9.655883841680811 14.534261754133333 17.56394111385525
Zr 8.21825266252791 15.749487615463797 15.453311259481183
Zr 10.676242675421754 17.126302530875734 16.466204063084216
Zr 9.233980211420867 17.948233053432038 13.823591927330682
Zr 11.81184229423053 19.17088632009974 14.716732115639921
