52
Energy = -385.31289551 eV
Zr 14.822430192502999 12.697648966545339 18.282327634910434
Zr 13.669191317267908 13.7525682698684 8.540210436289088
Zr 8.47275916668612 12.787051090189923 15.355150857998972
Zr 7.938200965788309 16.27096101188274 11.897871623263168
Zr 18.052788278269325 13.742988913480133 14.732869315204372
Zr 10.824890292807666 10.65801951305063 14.376990027506132
Zr 11.729612270374993 11.278151092847477 8.626653519003437
Zr 7.144239495528202 10.60592937493042 10.433328597324959
Zr 7.107786839583134 13.557905778351179 10.73357684815358
Zr 15.076889341961467 7.7609795673431705 14.686816945445207
Zr 12.47050891914929 13.048224191317983 13.344126405169815
Zr 15.223467455764267 15.015960361154997 13.716991527517232
Zr 14.614988441331247 17.148017585887512 15.842649692748074
Zr 9.549377345193614 9.495830240873467 9.496590992870248
Zr 18.24801065121464 14.956254567567195 12.301275362896734
Zr 11.89329417344843 16.220517297989687 8.854262605263164
Zr 16.469390224965302 14.052953387299603 10.25766909986648
Zr 13.401142847909455 14.954274681777926 16.96694794910205
Zr 10.923858691405252 13.911938672005824 7.399471769862275
Zr 12.616392176820487 8.786115752837398 16.223728431926705
Zr 17.144216140301584 10.202607603378967 14.642395231689747
Zr 14.419777275191022 17.77085830790255 13.083859107125626
Zr 12.227924272520006 15.985868478306818 14.242519477978899
Zr 13.546688211103827 15.366379120844543 11.271308323170555
Zr 16.349480609142738 16.80664371213336 11.417130176183814
Zr 8.997347300238477 15.414858033483762 9.264499689481347
Zr 12.439418843537293 11.461487235780513 16.991725287929516
Zr 8.784893263834 12.310899667733095 8.544519716642686
Zr 17.200157575145248 16.899383398168354 14.39654772860144
Zr 17.216933550771724 12.04422636054112 16.842730412110335
Zr 11.222456421735872 13.744912774817205 10.29503865718326
Zr 8.878615499546562 15.867760110942577 14.963856883609326
Zr 10.793790092408871 16.842933508802563 11.43567854526121
Zr 12.049460008937928 7.779700485760963 13.798453380919536
Zr 13.74577692279957 12.156824675486524 10.983497881884857
Zr 7.034175149080622 11.456033919397706 13.127130678957197
Zr 11.800771005920886 9.700954119920569 11.480820814570656
Zr 15.178025084686624 9.924056484247304 16.90498518791924
Zr 16.450227212739037 9.329942702407813 11.93241101348559
Zr 13.91732411596023 10.14976829675535 13.717489541027106
Zr 9.598032729133694 11.730896433429468 11.582331639691132
Zr 16.033290842163787 12.334433028156148 12.749213858721522
Zr 9.808338546200224 14.271371695697557 12.952812753513252
Zr 18.447447378193505 12.005182882915646 11.724485102945614
Zr 14.048944450023159 7.543635606747861 11.923431252614112
Zr 16.325789720152642 11.35413700503442 9.618948852927812
Zr 8.929495390454122 9.090507751384113 12.366591712480139
Zr 10.964133299485205 13.787469783636404 15.834051254424425
Zr 6.814816407545616 14.297926536208585 13.587438219174937
Zr 16.387673724338196 14.964054851806763 16.847331413359736
Zr 14.658804016153308 12.648689302307712 15.41737938587318
Zr 14.299891814681859 9.43920650034708 9.935048840859443
