55
Energy = -407.68067424 eV
Zr 10.162123708082197 12.857817522308505 13.15216912981263
Zr 14.204752787117634 19.452783824497352 15.652697260496991
Zr 19.338570368524422 17.25752208974995 13.579964825067234
Zr 13.231263274877065 18.076440483351092 18.143246890229435
Zr 13.960044920284595 19.408029485427555 12.661221668408
Zr 8.739085401594766 16.8670941863589 16.292525249319304
Zr 19.50536615882635 14.516046074212285 10.840804794195419
Zr 16.23067141663004 13.549171548406067 17.050656635250295
Zr 13.398069549226038 13.105584899923699 16.9725315221429
Zr 18.552082678409302 12.201029288859985 9.322074305047648
Zr 15.055958386685797 10.91362955416064 12.587933433841233
Zr 11.367420075220666 13.243288800031571 19.17984681602416
Zr 14.525409676254979 14.256531633667878 11.134396524608299
Zr 17.387172363885487 10.094715887793335 10.872988169378006
Zr 15.252644553258767 10.559426042522098 18.39318472841613
Zr 12.309352364237558 14.286931731213777 14.385636808382976
Zr 19.230046544092644 13.443541063122211 17.110275685268775
Zr 9.846261946193268 15.628530933689676 13.92240272305793
Zr 12.23738973483447 11.195515333556656 14.52155187614796
Zr 10.458854128767786 12.84110705528354 16.31405850382361
Zr 16.89084538937649 12.836210566226844 19.513181733331834
Zr 16.93308592588896 15.942941185061184 12.213847908985166
Zr 12.319895303029762 10.70901800518348 17.86547897124258
Zr 11.390773226389738 17.897575374590485 12.112681170660586
Zr 14.098844119026193 17.11794588679979 10.74160092056088
Zr 14.570912377665916 15.220912204564316 19.026019417577942
Zr 14.408339971561926 16.164334711378476 16.222754413439727
Zr 15.607787558473587 11.946283880524389 9.558075008739285
Zr 17.827930026040143 9.871087632916977 13.724408425877368
Zr 13.894373849685982 12.362272929465906 19.92835892565959
Zr 17.829366813814566 10.860978350443897 17.052465065090257
Zr 15.128436378180453 10.713804509581736 15.58690102516797
Zr 11.506456135302688 15.514328020309302 17.232012504586383
Zr 20.06537774536717 11.423092719013198 14.948233044134032
Zr 17.453399972273147 12.551796680870119 14.694826976805464
Zr 19.810313968572792 11.504093097357327 12.004792724214274
Zr 19.711341365026055 14.26786304993659 13.6555354626654
Zr 16.488068872902637 18.311473886406276 14.210786569680419
Zr 13.905516251430132 16.60399223752055 13.431426237457265
Zr 16.281833044547405 17.896183749628555 17.509252974128437
Zr 18.77107039085794 18.250924177175968 16.270480189049987
Zr 17.4357160857808 15.708128839772092 15.27663148594928
Zr 14.866058541952137 13.518232304246931 14.045746316428552
Zr 17.219491408110827 12.945842241301403 11.863663407210046
Zr 12.569346851669238 12.242435943170808 11.780609422970706
Zr 18.132734573187147 15.855193787624609 18.226127965472244
Zr 11.795394953905916 20.40057387408521 17.070420392673075
Zr 10.305697873825233 18.152815222952107 18.292758243414287
Zr 9.235865743302268 19.754266974598078 16.142328039477707
Zr 11.458829818876211 20.290554592227604 14.053124359810738
Zr 16.954140369022657 14.657770524196073 9.406229381961097
Zr 11.521314753284837 17.78671337263463 15.491660128704584
Zr 11.569258807665648 14.98250279003236 11.388396210594108
Zr 20.403833786835207 15.973149301670727 16.046384779194625
Zr 9.066078453316221 18.430240681548938 13.74290339131741
