54
Energy = -399.24989899 eV
Zr 16.807376193300357 17.89773331128715 14.18842747588799
Zr 15.370398857557685 16.644170512313845 16.368046238989006
Zr 16.792719124068945 14.874190924575407 14.36097071709051
Zr 14.315729444048856 18.992176467155605 15.012025356687536
Zr 16.680470779765006 13.156993573935114 16.823806003063
Zr 18.002336743370076 11.913638488159448 14.604360781258803
Zr 14.906159051808698 14.596755509761497 18.80488047548492
Zr 14.506318354838331 11.826476159456867 18.129335933642995
Zr 17.19759988645534 16.31231989963631 11.740063785301372
Zr 16.11620617840848 10.186476920447483 16.235173490775225
Zr 17.137725654596803 9.438441427750645 13.522547911554833
Zr 15.164143613406186 19.04790126333545 12.068000553681353
Zr 11.952661550809522 16.84146976134633 15.192604510301308
Zr 17.83014503035896 13.379802793289238 12.112783933193342
Zr 14.197134163481435 16.504633161561586 13.132243780651232
Zr 12.679022376730927 16.255942493398575 17.96731625126979
Zr 13.845632037929962 14.407939807224597 15.974015074127355
Zr 15.08926649767516 12.29119972220718 14.132225725964837
Zr 15.494353344376718 7.601597956265683 15.026727191430385
Zr 13.115093108729202 9.024035979204292 16.351397574358405
Zr 12.340628737080783 18.993378773232923 13.132730056560673
Zr 15.855832570773613 11.347322968185253 11.350877325064998
Zr 15.325822040213309 16.776504550560826 9.6781559533154
Zr 12.282146570322352 13.435505657036412 18.626374613567222
Zr 16.98134764636589 14.115651378850814 9.423692778142179
Zr 12.513870372462382 11.946719909991636 15.854285276452048
Zr 14.982352699036404 14.133063214595037 11.448617784896337
Zr 12.008444106532478 14.119856654535173 13.523948127680917
Zr 10.272559737486784 10.485511403460924 16.853406612516647
Zr 10.744582190861566 14.446975843217478 16.440901810992276
Zr 9.59411528992289 12.433543748792037 14.533063246796038
Zr 14.235261030531216 9.429616324392738 13.284050880355563
Zr 10.800348863625812 16.607249123481495 12.123550317261248
Zr 14.18220987612477 9.393171250784828 10.142641950840355
Zr 12.579521409628757 14.776527141949522 10.213703357633902
Zr 11.366941512571941 9.986596611466322 13.991742371399637
Zr 12.751183809666433 17.869042972474112 10.519628238996512
Zr 12.67907490279165 11.671043751883346 11.585207547875973
Zr 10.240797144052197 7.85078494089427 15.812467916527467
Zr 12.411726602950583 7.151760702306478 14.134302543971557
Zr 8.401507800112405 9.825400083680984 14.509369076217183
Zr 14.813940566469894 14.655681453705451 7.764179910379241
Zr 13.830320644256712 12.0927889252953 8.893047312896305
Zr 9.049921676798803 15.27696414323252 14.081393429875304
Zr 7.420399381935092 12.696974422150662 12.978845108319156
Zr 9.610413519282774 14.020360900807686 11.49557903355302
Zr 11.975205366867623 8.184387263382684 11.401529178842207
Zr 10.361191228612661 15.974643701656595 9.009220622778498
Zr 11.47016842912805 10.050835647505599 9.289537275661319
Zr 9.562118853747988 10.82367802477855 11.727573616536738
Zr 9.607562620551365 7.811956672911437 12.92527723912209
Zr 12.949709184396703 16.74008771528879 7.822564528326675
Zr 12.044832980450007 14.064891987630867 7.306343719909928
Zr 10.58913424507034 12.673392486071648 9.245671248461381
