55
Energy = -404.94483418 eV
Zr 15.316409084092966 15.596654332202842 15.089366301673456
Zr 10.123050378284422 10.887896544887711 13.892397821020195
Zr 14.737713518416472 10.583449116419182 17.828848715368643
Zr 10.05878936672326 15.361531816274747 16.7660889410364
Zr 15.167752420399053 13.945859632759035 12.218886959918835
Zr 15.350048742280658 13.946490822281508 17.671686438615513
Zr 15.184179250192326 18.604549758821996 15.055638064826796
Zr 15.207665141193552 17.103360743075914 12.420803727262843
Zr 17.29878974721859 18.221960636480524 16.90046389124099
Zr 15.324112751623487 12.298071099169487 15.094212581238267
Zr 15.220158793378117 10.790865402880828 12.4267502431316
Zr 12.568118298165713 15.417914382394013 18.33237264880512
Zr 10.06978026506917 12.527150386039443 16.77084486327802
Zr 17.716330006102087 15.461157157264351 11.60381502754284
Zr 10.213688704794704 13.94750940636666 19.353919597630505
Zr 15.199814718804934 9.290139535600858 15.066508812244575
Zr 17.72188515807167 12.437129410932895 11.6059365971673
Zr 18.109238019273384 12.466774676038252 16.85906517561577
Zr 12.72436144970281 13.944710433648407 15.610095760019606
Zr 9.764473887252516 15.378879602532471 11.345579801308954
Zr 17.313650610717797 9.682905229210128 16.908628289242824
Zr 12.592242174003808 16.99901766687153 15.621220308894031
Zr 9.769636321739798 12.491991664607536 11.35028097833828
Zr 14.726021976098853 17.31353124174556 17.8186772659869
Zr 12.605067540950069 10.893247322262964 15.633209475992542
Zr 12.72463684107856 13.93968242760917 10.202184287337762
Zr 18.101205523058805 15.439112635045745 16.855999760958372
Zr 17.786075825996864 13.950010967779471 14.206621347872563
Zr 17.5198885022498 13.948034744698466 9.194073580489874
Zr 10.304859284858962 13.934218038674656 8.531389350406629
Zr 17.75504797119253 17.099892104695417 14.344967755526358
Zr 13.018562488396164 17.368372759556586 10.264846563095402
Zr 10.585325019023287 16.749145090837903 8.973679007195576
Zr 17.76653183701794 10.800996184494796 14.351379767454619
Zr 10.432136170054601 18.188449871008427 11.326752026613871
Zr 10.597075009862772 11.121322928799867 8.981547127985896
Zr 12.552846983517664 15.546638033892512 12.86458152981053
Zr 13.031977524641126 10.515493319234647 10.273424456727163
Zr 12.894097293385135 15.511071478188631 7.72602058284129
Zr 12.616685347881191 18.595573010241782 13.035652138036825
Zr 10.449655584659416 9.685776800418521 11.338800317397046
Zr 12.899645734199513 12.367174402988738 7.728599338943275
Zr 12.558781386697687 12.340618050433388 12.86944152311317
Zr 15.390684005022575 15.8465326729227 9.618961375770338
Zr 15.321522609196514 13.943178577602078 7.50628327217574
Zr 12.633823605481226 9.293489269173463 13.050334019356608
Zr 15.400225777162014 12.040808671163278 9.61949592030879
Zr 17.572546237912608 13.955193551760495 19.62482420688962
Zr 10.081137817628264 13.941688971401154 14.06118297558985
Zr 12.580550613682943 12.486236466437564 18.34785938055012
Zr 17.174354149252192 16.77859009691528 19.252938822602122
Zr 10.111030276940552 16.994058403741725 13.88187285710523
Zr 14.925105122458994 15.406265746614826 20.22462397020714
Zr 17.18880659271048 11.127716932204601 19.258891578477336
Zr 14.939275313017724 12.488984543482665 20.234547644548243
