51
Energy = -378.50583339 eV
Zr 15.20028680117888 10.916992774541582 18.02758718711863
Zr 13.1614883244322 9.67798063108734 16.00016217445754
Zr 16.292816160790615 9.180289422081199 16.165678248555555
Zr 12.80276154427419 12.298398081617982 17.50303925223156
Zr 17.66160004713043 11.903327159685857 16.539720366524453
Zr 10.191675239690186 10.833389257302459 15.570508451157014
Zr 11.190842233769557 8.599787541786299 13.779918994145284
Zr 15.42248287353757 13.835524116176225 17.69978213080301
Zr 15.00268118688132 8.658381223082959 13.761636672522245
Zr 8.573821137928181 9.63295860673388 13.444215502750694
Zr 15.204164245186066 11.734655806636056 15.18459218818933
Zr 17.52223267354542 10.355343508557173 13.651705588127339
Zr 12.423929930080892 12.689261443823563 14.704686482803751
Zr 12.727962679849787 15.16920059191859 16.667734969447714
Zr 17.610841377041265 15.015736988356737 15.788908824850628
Zr 10.265731114744478 9.21894464157922 11.042658187879983
Zr 7.660524262618356 12.313436227809659 14.194616806372478
Zr 13.02608244205836 8.120724758576014 10.997514124804592
Zr 9.804759997503021 13.95824742513771 15.51536439559451
Zr 10.507418650683405 11.749594044873243 12.57523074724078
Zr 18.229855282873327 13.006614862307812 13.828212673487931
Zr 12.802530069100815 11.033614682977998 10.18153231122105
Zr 15.744128608292394 9.804937959977648 11.159727250326737
Zr 13.167156611452796 10.533262986058801 12.908189072945355
Zr 15.293573150213717 16.594097834573446 16.87582704433974
Zr 15.342408452219914 12.76795193943219 12.293464360944489
Zr 17.70921704338088 12.352906945105326 10.970319687052179
Zr 12.115467405358183 15.169087121933321 13.599824699256668
Zr 14.9626850643254 14.826513977741957 14.509436676084219
Zr 16.392159458152157 17.404885574718627 14.386737810940403
Zr 14.446232673703946 9.1745983227737 8.547358201340652
Zr 7.796532414182925 11.484133887381844 11.251255447703143
Zr 7.423040411400286 15.318565587284294 14.301951246414436
Zr 15.314533419526413 12.079221471545742 9.035491522705403
Zr 10.344391598346416 12.217375445187038 9.32832238124392
Zr 6.477399354162713 14.009850697963754 11.994401200850273
Zr 17.390751126507613 15.296185925740897 12.56879658533748
Zr 13.423791918902785 17.459021880920254 14.720495078059054
Zr 12.67717909300085 13.916176802045676 11.116855921552514
Zr 9.479767536596432 14.2995746583547 12.403380765016568
Zr 12.902178485877558 11.20381420642529 7.262335397755886
Zr 11.542119870920299 9.019623832879448 8.46633174345769
Zr 9.82275980596338 16.797567385097636 14.294638783631946
Zr 15.47603016265918 14.75961878652883 9.988836075030472
Zr 12.886403188147566 13.885855639886678 8.25638174103917
Zr 14.626143337333806 16.636643200679732 12.092659376530586
Zr 8.080936939272725 14.015410800834307 9.720227725763829
Zr 11.241470937426376 17.31779248666265 11.774568407796265
Zr 8.160312283241288 16.55649024122984 11.516412042722745
Zr 10.424053354534609 15.586440103527076 9.505944457003086
Zr 13.128859474639231 16.49760796755159 9.637382234088692
