5
Energy = -23.97214388 eV
Zr 8.858887742078824 9.47484629885098 8.86191115703478
Zr 11.890012888118491 11.843800249208256 11.903955583136804
Zr 12.183705430999773 14.261680925647717 12.965911688152044
Zr 13.641215522618406 12.24463020545256 13.79509942471508
Zr 10.759610199872215 9.917533702073666 10.041329372146096
