50
Energy = -371.06338891 eV
Zr 14.985235173501296 14.174834750879462 7.717714606494346
Zr 13.778500559722131 11.815636045041703 7.013682012094207
Zr 16.46152686607832 11.46441869761059 8.329142962950211
Zr 14.345449548256925 9.343093728873038 8.639235157129548
Zr 11.980210759460233 13.918678960844638 8.588902936417453
Zr 17.072846909366316 14.125918002356869 9.77921846230287
Zr 16.768147914769404 9.108380045615693 10.162191654570222
Zr 14.343788724890077 15.591152793542761 10.223517614863992
Zr 14.121503169487221 12.393910308447534 9.885418637926549
Zr 11.477111389261088 10.910471569525903 8.370848847123144
Zr 9.001827692628929 13.010417272185459 9.646781643619109
Zr 12.18104794097042 9.066667339100396 10.551043554843224
Zr 14.630720289337079 7.708010975339403 11.346831889146669
Zr 17.749325748343452 11.516127000746893 11.225035588192762
Zr 9.107314563332203 9.656690427581458 10.290556204145703
Zr 9.8498224087078 15.596120844112571 10.419973582084797
Zr 14.652393269158976 10.596556323122627 11.982998147641458
Zr 16.806934375980468 16.258332322096077 11.865020476576218
Zr 18.47954282651785 13.979758187320176 12.416900164777516
Zr 12.389849159689424 14.299194849156748 11.793573694089941
Zr 7.422446023224144 14.529782260967956 11.941952175827737
Zr 16.852096739282192 9.182088726805793 13.047740376449575
Zr 7.436847698214957 11.512727933126436 11.564956313120469
Zr 11.305498053440033 11.71015253557969 11.082127090527514
Zr 12.058195675034659 17.207033718832992 11.689503793234167
Zr 17.01131475463901 15.093765267827388 14.561164377657292
Zr 10.365235769845313 7.628028505407203 12.060802099978151
Zr 17.30881732311956 11.954795902436455 14.221987698129835
Zr 15.4501264165403 13.614847058354838 12.478477510233784
Zr 9.621727795797684 13.381279763443924 12.895151431760983
Zr 9.50568990398639 16.632878656612466 13.167065446385838
Zr 12.796323308417147 8.860393582751392 13.638889330259907
Zr 7.314730726779803 11.836082059243829 14.302376826240481
Zr 10.010361302479325 10.399028935818029 13.435350667491504
Zr 12.595435835842533 12.001251258921652 13.972489291807769
Zr 12.054134423346436 17.839305669300067 14.380687950922942
Zr 7.754424841229574 8.808854996053167 13.058143658822948
Zr 14.805346480831183 10.589234397107424 15.172756713711774
Zr 11.604047261237502 14.773005168709558 14.729562800199483
Zr 14.759000254490823 13.656804812575407 15.417890097735693
Zr 14.355467217697639 16.225167844015257 13.60377250747118
Zr 8.409494257293577 14.801724550781698 15.265495527768344
Zr 10.075957194884408 7.700312144666984 14.76795803116686
Zr 9.781876175522667 12.29592326667414 16.157032704691797
Zr 10.175893510556904 17.04040500804292 16.14211831970215
Zr 11.601353638665394 9.929731388088754 16.12692802262109
Zr 8.550646167231264 9.716433894085105 15.92764391020713
Zr 12.614374803928655 12.876812656043215 17.058570193247377
Zr 13.059865316715083 16.10442732900404 16.70013377599372
Zr 10.454679815043955 14.706672810196167 17.556286345319826
