51
Energy = -376.49884901 eV
Zr 18.45626560666805 15.01162779343103 11.962843746704593
Zr 15.37587655928363 18.24823307377712 13.491621314413488
Zr 16.992927118684136 14.138253823435917 9.836302193673092
Zr 16.12306825452863 16.71993537363775 10.915444820544478
Zr 13.174855039064964 16.84706937494277 11.89914116615433
Zr 16.24693434446543 16.51395044793492 15.911676655032606
Zr 10.509056736430674 17.70500566866791 10.999901083592075
Zr 14.846634762263824 15.037740878833821 8.452025755184891
Zr 13.379491537366281 17.295837131836564 15.205690451176114
Zr 17.851696464131756 17.13180974264155 13.498440662020437
Zr 11.917099492217162 15.923245493746634 9.137631984856826
Zr 16.673907429118454 12.63985094178183 12.453588038881453
Zr 10.715185563662814 17.02911290792533 13.878539560392266
Zr 15.398962201210608 15.20423209124999 13.455172261699053
Zr 15.12503515659776 11.94372622145508 9.50526115934099
Zr 13.940574220948596 15.205722596019884 17.05715672946323
Zr 8.96835394864256 15.78616186887285 9.556862477594798
Zr 11.155709698147604 15.630045588396511 16.596905991979686
Zr 13.970879394976482 14.013304837430821 11.070659570853119
Zr 10.891597014578002 14.625355062370593 11.65071714504885
Zr 8.323481960734139 16.393059795220033 12.265619477447899
Zr 15.633550022078511 13.103621735995919 15.735937142033226
Zr 12.6455017171285 13.209113682394898 8.256204660943844
Zr 12.377166792179752 14.36834389844877 14.331738906393031
Zr 18.047360224395707 14.39183205395033 14.669075175942357
Zr 13.949104242924179 11.754626432152444 13.668931805233651
Zr 12.929821074737802 12.554048465480012 16.879066195771962
Zr 9.209767352438876 14.530956689014912 14.30297758098518
Zr 7.996881476221077 13.63589093290942 11.383553580231188
Zr 16.72804461934556 10.652394727168213 14.369132205421815
Zr 9.89806962069741 13.1615938294609 9.079091133085191
Zr 10.608321799505264 11.895380999823075 13.438577700597648
Zr 13.521032539705908 10.646057324691414 7.565481040592988
Zr 10.039147444976953 12.751803769441224 16.329605083727134
Zr 15.377110106967333 9.784725510799753 11.674747188525574
Zr 12.318994965348788 11.319992309317321 10.752225396665308
Zr 14.571345624485879 10.096816003761491 16.24486948366228
Zr 10.888488641253149 10.227489791140881 8.414990045146693
Zr 7.730740125064448 11.700981293914653 13.634473881668198
Zr 9.101171260346169 10.918721298806839 10.843463059621914
Zr 11.584150691165702 10.222284764166146 16.002466628013632
Zr 13.402587353045229 8.761639154401143 9.557480174337268
Zr 12.369506904804796 9.31944177419405 13.161758533971575
Zr 15.288406611087716 8.25602321039828 14.040674538927007
Zr 9.040489587719463 9.028548335153976 13.127077994592813
Zr 8.728791385677512 10.180245064415162 15.782269629539787
Zr 10.771116238682774 8.367336177778672 10.681884695128344
Zr 13.561791434204716 7.02532423928365 12.058950138984653
Zr 12.962695395694423 7.2142655199148225 15.173733602784193
Zr 10.142685156601503 7.736127660626225 15.472565978702551
Zr 10.92361699136503 6.62722092542207 13.060002129408796
