52
Energy = -386.37814973 eV
Zr 16.554779313903364 15.26387817366516 13.811053179880888
Zr 16.694824651405977 13.981225950758855 10.700500731822592
Zr 16.46512218745724 12.958782017397708 7.906619018504003
Zr 17.376109253708396 11.138379394335045 10.260108442069107
Zr 16.274311110391814 10.155425728925998 7.643001069376769
Zr 14.80845185506682 17.357950271063647 14.269788203238651
Zr 15.869345428944486 15.777515894153899 8.65379674744174
Zr 16.677825206908885 13.174912036427223 15.6772933080867
Zr 15.447103505597356 15.614829690702855 16.78745120608387
Zr 14.5001569010955 16.086910024812443 11.466701010096608
Zr 15.877782395066838 12.370525105064702 12.953823424047776
Zr 14.141010531516468 14.508442395069475 6.673233546683728
Zr 13.811494792882183 11.67117828580102 6.893911867062424
Zr 16.007661893693747 8.460813199063871 9.861515620481029
Zr 13.829539735539639 13.751043108466645 9.519618713995941
Zr 13.772515191059645 14.567546208069288 14.906319604064324
Zr 12.00608024490893 16.794838050095194 13.375128335321003
Zr 14.459295352106992 10.96688187111498 10.046466988682289
Zr 14.595456000737526 12.514766442551029 17.53751760597637
Zr 15.265491964698453 9.577401999467035 12.558719970084502
Zr 12.896129994358189 17.140292381794602 16.223295736051586
Zr 11.53291689225095 15.528754898580733 10.628014450828998
Zr 15.94032181861007 10.384537191994308 15.614678082893374
Zr 13.774836474344863 8.852041115096819 7.963173816187992
Zr 13.023064526078151 16.404987602468886 8.456565080507946
Zr 13.074147020299336 13.531507245557409 12.387909444616925
Zr 13.560572987537881 9.665402151140768 17.134309694462335
Zr 11.664185959233414 10.683457967083722 8.799581896332416
Zr 13.469638315937662 11.478339632848938 14.812680253967134
Zr 11.356546042218143 13.683249245506323 7.997926889993803
Zr 13.12134164753898 8.317477775233113 10.776700081343154
Zr 10.79672000647242 12.757790012521355 10.843560678220571
Zr 12.24890826310596 10.428582828087226 12.39172953576028
Zr 9.556391933726678 14.955756201538442 12.747362605951293
Zr 12.334169711223728 14.692583176606322 17.712934393514274
Zr 13.530039767916271 8.467256587369093 14.480846102183367
Zr 11.031287018346438 13.169888945898764 14.91634115141373
Zr 11.64337590486852 11.768155639677962 17.721760395943235
Zr 10.03826313887707 9.172168884776815 10.430875254870195
Zr 10.341396527444893 16.02070497984921 15.750478928355577
Zr 8.51642418024802 11.504688761340516 9.537910837107606
Zr 10.992910593254148 9.594216005438758 15.521734314326432
Zr 8.791760266726017 14.513937858057965 9.781175719492133
Zr 10.14883788893314 8.17206276822056 12.939453672633988
Zr 9.497370814249633 11.236741037943268 13.191728898930007
Zr 9.580590624433722 13.870945673744666 17.45480101102685
Zr 8.079603246007602 13.793294561026796 14.820632138609703
Zr 8.7592283282968 11.328257525703044 16.352814413862262
Zr 7.4156676748391215 9.809397645463918 11.812138311747198
Zr 7.263875462955371 12.932625061070972 11.82486871043111
Zr 8.113715978382494 8.99018499678014 14.669545834179116
Zr 6.650779796882772 11.345416706983933 14.212083203033615
