5
Energy = -26.88646707 eV
Zr 10.212452072253324 7.374324258791613 7.521658702510083
Zr 8.822396849379032 8.489292031828676 9.658202661350545
Zr 10.854669933649934 9.735870809066355 8.252629011265721
Zr 7.712389641105409 10.266222197602954 11.563265656675283
Zr 9.447626503947642 11.16354940344735 9.999182639300292
