54
Energy = -401.69575781 eV
Zr 12.770403117047426 14.402461014755902 17.669050488988372
Zr 10.60181228988777 11.722743761160997 17.608054224029352
Zr 13.602643868887558 11.583907939860078 16.88261371725531
Zr 15.61829419388966 13.652195108754253 16.347784927857987
Zr 12.29437227914909 9.180005044687269 17.516913914484125
Zr 14.456412003190964 16.380852117154706 15.904467603374412
Zr 17.114619055151667 15.625791823101409 14.915107671441293
Zr 9.473096832494486 13.95600883525297 16.160616179483
Zr 8.082235074229564 11.241324960773117 15.694673180193462
Zr 9.462380249929964 9.043686934584716 17.025134878283474
Zr 16.22782748924682 10.778295075400685 15.554937356418332
Zr 11.470754446879972 16.681851197256393 15.832812804631155
Zr 12.251701903426158 13.826203527236911 15.062749308078022
Zr 11.31240634182836 10.341091755106637 14.980930899591188
Zr 15.831923765833396 17.670977196052227 13.349923067464239
Zr 17.604242846434456 12.917256171170571 13.993239451428119
Zr 7.376099456375245 13.631618360731062 14.115180100841702
Zr 13.923254108292728 9.073820710319971 14.633972593571574
Zr 15.353446977963303 14.576469699853293 12.619080073736091
Zr 13.315886856770417 18.67446984802266 14.504133249630417
Zr 17.915893043375316 15.533099471895321 12.054297000105082
Zr 8.824130964796685 8.707661311853686 14.18230718558692
Zr 11.281555996108667 7.396388567094465 15.576996037746584
Zr 9.879410978620953 12.313995164482899 13.414440721383283
Zr 7.494524035111623 11.101236699547647 12.548122653941178
Zr 9.648278385869414 15.525300241529266 13.631273512869374
Zr 14.137188156686724 12.065211945297463 14.007655655306513
Zr 11.652141783755003 7.822435543542449 12.901156869374711
Zr 12.862294746151338 16.098835771598182 13.093958011291724
Zr 10.828377897244378 18.199664855194804 13.260271509444141
Zr 16.11503664481822 10.606625417808853 12.513797570001843
Zr 15.783105058042972 17.097545428748607 10.61321519401348
Zr 12.446669881594538 10.497078468669287 12.190590580027315
Zr 14.244965396376001 12.63722109382135 10.794770067658956
Zr 17.460496770341404 12.665582028483588 11.075650751797484
Zr 14.420056118557527 8.727090081554845 10.973392251354756
Zr 8.456335134939627 14.043022829624666 11.39686379538007
Zr 10.782106265439083 16.46613319883003 10.912678500193204
Zr 9.734181468348 9.310492799051831 11.40200861825192
Zr 13.27508458617503 18.401208395968098 11.503567673269634
Zr 11.70586036977978 13.64616237409174 11.782255964062324
Zr 11.770555992771934 7.714501048911594 9.70524186748838
Zr 13.386807399182382 15.594765390891096 9.891925071223751
Zr 15.540122687747932 10.997664235457073 8.933536744480294
Zr 16.20926903660376 14.520841324308805 9.54830377133184
Zr 12.35047989351985 10.679111078485121 9.229686824509319
Zr 9.526711664705232 11.832119842822365 10.060461739471661
Zr 14.275291896356569 8.422273678798183 8.233604872057517
Zr 11.087994730785425 13.91473156342577 8.913364866651541
Zr 9.607941236064924 9.368630352980606 8.455179923984451
Zr 13.563341197851623 13.181427072429377 7.7886209856766975
Zr 11.796121628243652 8.724438327544856 6.90145599365102
Zr 13.798491637572088 10.675774652179179 6.468814371904105
Zr 10.940267818510517 11.606479265458177 6.881840818464771
