5
Energy = -27.28976481 eV
Zr 8.241142318042293 12.099216731703043 10.70669861159021
Zr 10.894313392557857 11.747441807484304 10.480381589117927
Zr 11.36512701950109 8.960214818333807 10.636165302416247
Zr 13.316067784185734 10.611930831302987 10.311784003951317
Zr 9.031587678876585 9.651807761618402 10.890118949266048
