52
Energy = -386.01802712 eV
Zr 10.163921749480325 11.936588485385183 17.587387358121095
Zr 13.632390900448199 12.261280076803354 17.733279777879613
Zr 11.708897518606163 14.504478081067738 18.166575896535353
Zr 7.784501360586426 12.297057745350509 16.15487857856646
Zr 15.082415261876516 9.737674870203229 17.4246182609484
Zr 12.196283581088416 9.939076784451105 16.116154749377326
Zr 9.247333682653103 14.840773902504944 16.724143933032998
Zr 9.520715950844577 10.39194958173055 14.826511406526423
Zr 14.167020798692045 15.133903937139983 16.8310133925667
Zr 16.3411357519654 12.376575470898162 16.640420591611363
Zr 11.773622412588063 13.060429133400532 15.601335772084036
Zr 7.023082594400434 14.621745933621241 14.818976417166468
Zr 6.985580676955685 11.973445896261248 13.331059453380083
Zr 14.595860316947181 7.971066153058787 15.304854149580649
Zr 11.75006000768659 16.367977109668864 15.774921312770681
Zr 14.447848164467743 10.865924927647221 14.820168096174548
Zr 17.131515464145824 9.586936102532077 15.20198665936882
Zr 12.959352820755372 8.785963698261769 12.940399511119978
Zr 9.461304662694094 13.268965538812163 13.706342845048669
Zr 11.980702394602654 11.491060368068144 13.119583283842411
Zr 9.298836684779229 16.44967833099045 14.010346337626011
Zr 9.519501714884282 10.548021600836748 11.797203368168608
Zr 17.021753457926298 15.303098267900646 14.778004520519476
Zr 14.573591207031045 13.671779575834423 14.440308241301752
Zr 7.469386381930952 14.890488349365459 11.994020235663758
Zr 16.077394114008317 8.103811675454992 12.765333960091072
Zr 17.326220179770903 12.508648801845915 13.883677455694938
Zr 18.347419702619785 10.266139946458528 12.511340477023007
Zr 15.38394646667332 10.888623638103114 12.040904061724412
Zr 7.654964451948327 12.26117946984378 10.584332344137632
Zr 14.417803640859152 8.643071599789332 10.316190510242665
Zr 12.11899222168852 14.905281088039832 13.150736331096105
Zr 12.30039023358196 10.654628096445409 10.09370353694367
Zr 10.6766396904893 13.315857297809778 10.861905557348148
Zr 17.152229555277568 9.41500995391282 10.19041397166322
Zr 18.888574622876533 14.54013252043998 12.465964021465034
Zr 8.34065582383515 14.57755380710034 9.239035965382575
Zr 14.529198894619515 16.7481174171639 13.619232524148531
Zr 13.776622728066238 13.095206837590327 10.992880653168923
Zr 15.932877540250992 14.692478114401737 11.961579032624691
Zr 9.925624266916172 16.42372452842138 11.061641647520698
Zr 17.488573458728997 12.523338788566956 10.487337878768475
Zr 11.874661374838556 17.72613481676367 12.894735427648037
Zr 17.456447658970767 17.139657006379803 12.515345507770476
Zr 15.139560902122458 11.269211399558165 8.947524059792473
Zr 9.801665334884436 12.170321288496861 8.471116637256326
Zr 12.955596364289203 15.9352182842602 10.53744237339206
Zr 10.947309726690225 15.089323659047958 8.448251133510974
Zr 17.882379280757487 15.6265024847837 10.008558164368258
Zr 12.730504940354278 12.948979019488748 8.295595084102368
Zr 15.486802910867937 17.273295113646487 10.48997068176107
Zr 15.350531129735138 14.649214372285954 8.839982994257547
