52
Energy = -384.00401775 eV
Zr 10.492381845871213 15.682207749810287 9.234978846401786
Zr 13.0888837080335 15.123379929832375 8.131786421934775
Zr 15.316757773649009 13.882967469387452 6.9809977530556635
Zr 10.715542887709308 13.192651309410056 8.076791020975602
Zr 9.236781266907338 13.057381823076538 10.692755525212604
Zr 13.149361746328342 12.012125647186496 7.616133449851157
Zr 15.905447656988322 15.765871424699407 9.278302292482813
Zr 7.750020967301701 14.86769203890208 12.764410865841219
Zr 10.14281764809312 15.93575879435235 11.847710497401781
Zr 17.624216914593035 13.397431091872672 8.442589440755851
Zr 11.402767991238749 10.79800797112608 9.744893304071772
Zr 12.172915667849027 13.685657951399808 10.776557679352027
Zr 13.294525887546309 16.45330336942869 10.990558732574948
Zr 15.00439379956417 13.01038055538358 9.983999651018593
Zr 15.986331993432525 11.191323839380548 7.684582038911268
Zr 10.212313014490197 13.500907387626361 13.993729919395008
Zr 9.57821355221518 16.30394761799571 14.823260190101948
Zr 10.807346921121482 11.21472970308694 12.66847629230455
Zr 7.431918360429045 12.077182518484342 12.825798936044395
Zr 17.760321065321186 14.067731402061574 11.101729311098724
Zr 14.31534786598182 9.919021176914256 9.620066631538869
Zr 11.385263294501044 18.096593563349572 12.967243856001662
Zr 16.906868998464038 16.82843552355151 12.060608447491624
Zr 8.887571604683432 9.767490593489722 11.574771364048287
Zr 12.493371749082032 8.891809236021633 11.845660013094498
Zr 15.198481348453916 14.668194723259822 12.996014143455024
Zr 8.621074140386787 10.595717903239116 14.897735795571291
Zr 17.187003442881956 11.007584687091914 10.297541767936542
Zr 13.878904686533119 11.652845386925465 12.700178282299587
Zr 12.397050081708263 15.304417327298207 13.72162228924828
Zr 10.266985406435305 8.316604247237253 13.829214411177576
Zr 7.640547511495929 13.513427055352057 15.32606479510225
Zr 16.641928156280954 16.62261568505563 14.994357189242441
Zr 15.599534049429863 9.35322141260761 12.242851196095152
Zr 11.913796416183512 10.450529076882644 15.179620277327825
Zr 12.022066906598937 17.65609167472444 15.717152871388036
Zr 18.18395258063996 14.706627979564185 13.761510536045032
Zr 9.888944674821971 12.217214168513607 16.879848580891913
Zr 13.88480274966652 8.185983302968932 14.418521441136617
Zr 16.959875455768824 12.035931466037766 13.157636442557752
Zr 14.27018551192353 17.759565990441605 13.560455706712549
Zr 13.472497878986053 12.85942647635852 15.556353643395655
Zr 10.456403157889095 9.45799535427799 17.466503161866903
Zr 15.609248791312464 10.409115467376765 15.176273671914673
Zr 11.68033502116906 7.46197278568674 15.987344888107973
Zr 11.443601554101528 14.73615513800195 16.736040208062246
Zr 12.313735721826594 11.790294974943054 18.349294587181262
Zr 14.207555927743002 15.909316602018931 16.034382577009787
Zr 13.63900675947909 9.240509873885257 17.257381048341088
Zr 16.316478612100955 13.623519575728173 15.867750230574082
Zr 14.179958987713597 14.122572977992927 18.182157200846987
Zr 15.184391822625695 11.584863085991113 17.804906653361932
