55
Energy = -405.93838427 eV
Zr 14.181312666301872 14.657944774276993 14.15323772211229
Zr 8.433998495993064 9.285215377667368 12.22866414442562
Zr 13.128311915115566 8.588133469066372 16.637326865993153
Zr 8.908006993512208 14.091110824761467 14.580923392021306
Zr 13.479444368969089 12.489301966311205 11.2308927417134
Zr 14.47037070908343 12.744662159557025 16.287825484275515
Zr 13.764005353659254 17.579831003195366 13.808957420823576
Zr 13.508704046166741 15.840167730340887 11.390016584138474
Zr 15.976041004119596 16.93447150660167 15.441422272295803
Zr 14.185794565297684 10.461341781129015 14.338995206029228
Zr 13.60645335567 9.143969253132425 11.528235381576335
Zr 11.622593239995194 14.120983130065147 16.694202628383167
Zr 8.878105852615505 11.06279884184761 14.685456717601104
Zr 16.044575111475076 14.022069074089094 10.808497197328556
Zr 9.385622716459201 12.530896904947612 16.88281771895528
Zr 13.874329489776553 7.516830965607652 13.86722895534412
Zr 16.00627593764718 10.794960231544476 10.787290652772947
Zr 17.11550631483983 10.92505406056991 15.460167759454166
Zr 11.552680591335609 12.5898898031753 13.989012573827162
Zr 8.122849363069385 13.959637058713213 9.748322756658153
Zr 15.892000306371314 8.217273437712423 15.727456620362872
Zr 11.363641357505834 15.834280002504416 14.068860742771113
Zr 8.106455046994354 10.886280290050086 9.58280214953117
Zr 13.328988392082625 16.47347448998761 16.65377481175951
Zr 11.39558334478609 9.427562214420126 13.920748607739348
Zr 11.085617212041502 12.723411736473077 8.806721005665187
Zr 17.220869245191206 14.27544808807095 15.225903104216028
Zr 16.097507812200334 12.471902838166455 13.231924948350423
Zr 15.745689470168617 12.383620071383449 8.58532106342471
Zr 8.964819857998895 12.514233520536132 6.92437682428482
Zr 16.34795122707542 16.13775949747652 12.824549503477819
Zr 11.657151260860015 16.465670212635967 8.840058347523387
Zr 9.281574055056591 15.33139818549866 7.57863200512053
Zr 16.450755295347996 8.998082747657085 13.079227267016199
Zr 8.94997449139071 16.84105817937654 9.839108224665791
Zr 10.039148415640678 9.797701434886546 7.754429511639112
Zr 10.834140128485739 14.51986941586093 11.2529611209711
Zr 11.987225922949646 8.038730541369064 9.210318724574856
Zr 11.561311910052433 14.34192735754264 6.320087504744324
Zr 10.975198370124232 17.44336091389009 11.655646389190885
Zr 9.149888214593746 8.162268748023601 9.743273045039393
Zr 11.592388527171066 11.339031264408211 6.05121279439079
Zr 10.931089539290836 10.456665197833422 10.951103901621567
Zr 13.727342168597703 14.501563007472297 8.738834960280187
Zr 13.87378770596757 12.65326960577035 6.595290087560318
Zr 10.971282538208401 7.526149487971182 11.883704800726617
Zr 13.366672632150452 10.573069171217973 8.67527973162587
Zr 16.204108929330857 12.659976061049653 18.501275871342372
Zr 8.851635141523746 12.401141185214097 12.137494952989421
Zr 11.671453835712853 10.973502900161952 16.48474707494429
Zr 15.911974619352181 15.387793272863085 17.612700788550548
Zr 8.444510021491553 15.87691078009568 12.389446852280773
Zr 13.699980926370776 14.301378836697486 18.83371298211919
Zr 15.505027298875186 10.006952667563167 17.724048450473163
Zr 13.396397010137068 11.546137043760236 18.87359537549704
