51
Energy = -375.60360398 eV
Zr 13.193622526196046 12.270676247416914 21.178535533613964
Zr 12.225457949303248 14.006227716545125 19.192975453076322
Zr 11.150771372535749 16.331644851011266 18.061662308897375
Zr 14.972302354962666 14.268352890349021 20.028590677645788
Zr 9.255956246301315 17.081664116981134 16.356005748963167
Zr 14.005252397617602 16.09177793070684 17.54211786301362
Zr 12.122387975931318 18.140288204457335 16.09753377705839
Zr 16.965043069686505 16.324182745204066 17.180413255744835
Zr 11.67832521661973 11.310415411667678 18.337497647949455
Zr 14.42261484182161 11.693748462331435 18.73168028629448
Zr 15.694555267917778 17.823906240423238 15.153244358510202
Zr 9.903536887853384 13.7174213472367 16.8074140144423
Zr 8.586177418447383 15.424066294180006 14.177155625530583
Zr 12.948943916869188 13.278110492105187 16.437857556511574
Zr 16.231392929684056 13.472892318817513 17.437724092587818
Zr 10.163104208354023 17.867118281195904 13.754962896848753
Zr 11.42129368891215 15.435978677559158 15.004935254344485
Zr 19.068915638800902 14.591475960170873 16.79709790313103
Zr 16.535186553717715 10.306770829735479 17.475630970035652
Zr 14.419842898100297 15.262424685336729 14.666474034800954
Zr 11.503067405202982 10.847852005665276 15.243159074697388
Zr 13.1111719651766 17.61446994437337 13.354655723176409
Zr 13.841714772631422 9.584684635797368 16.608871120177113
Zr 9.944670971550112 12.969781474547 13.674684898502884
Zr 18.51309977928127 16.564212674927447 14.512363706879272
Zr 12.860272856403114 12.86317501332948 13.295002396474063
Zr 14.40912183769943 18.817488160168104 11.190280352448708
Zr 19.930569489903924 13.790115546738116 14.211204936127256
Zr 13.755561182836932 15.763668207282395 10.875599201076342
Zr 18.32207772111317 11.691871745657226 15.85933562990774
Zr 11.5751369823325 17.94175183028713 10.681417870924342
Zr 10.7001000741549 15.484585837757812 11.959819867905326
Zr 16.48430011047235 9.115571081133902 14.902582033352962
Zr 17.057636642261965 14.157311539553602 14.668387863331136
Zr 15.292535236451329 11.682829637755447 14.92859769818298
Zr 11.172723342158982 10.6027734325896 12.377832172906519
Zr 13.57331646929495 9.366610373955712 13.607676266715421
Zr 16.223668190609178 16.57681978532529 12.401870354150892
Zr 15.476751746112438 13.238975386731038 12.009947660318707
Zr 16.077347829374727 17.453757951028983 9.407814419975901
Zr 11.671262103073191 15.496524186585779 8.848286177335206
Zr 13.356416816159474 17.98194512789814 8.600663999892936
Zr 13.675179553320472 10.659635319732233 10.845084584784356
Zr 18.040030883716984 11.636946521350781 12.968762295745197
Zr 11.545528878916908 12.93555287223074 10.672578024670912
Zr 16.017602667815332 9.83485318847886 12.169260491785288
Zr 18.3465841625441 14.489065462769513 12.000343884138776
Zr 16.44253460436685 14.618643868300934 9.580202839740853
Zr 16.5321764487056 11.578912555167914 10.018693835101137
Zr 13.966709661387885 13.14762129697451 9.179172343112548
Zr 14.463777995857926 15.628070343241895 7.752500727961107
