5
Energy = -27.53124735 eV
Zr 8.172743290138394 10.566605519517536 10.48051972160316
Zr 12.673528486145376 10.767964942378734 11.565008971336908
Zr 10.37336798171496 10.710943058290466 12.05224447648569
Zr 11.318959483003876 11.662309650502179 9.371186419431778
Zr 10.063813163700525 9.097976126299953 9.318057139386784
