52
Energy = -386.15706447 eV
Zr 12.919919120224117 9.965238520930459 18.54865065463896
Zr 7.708519042563544 13.11041743864673 12.05081268256086
Zr 12.49131502673497 12.743570186139182 18.431695372860865
Zr 11.20836536872551 11.05831324653327 16.41097066700308
Zr 9.544801575898589 12.031352833530185 14.17218355103706
Zr 8.632575987483827 15.257690744917655 13.789485738431196
Zr 12.819175482430024 13.93531482547786 15.645895606646873
Zr 11.684639308952654 15.502626078385026 17.922171102424002
Zr 12.897627604301277 8.748502727660295 15.745144985189226
Zr 8.262712090830616 10.404792867506622 11.867672274852294
Zr 15.230049020815107 8.825067344223038 17.643915249721953
Zr 8.80802642952804 12.243857938500563 9.385476095231185
Zr 10.75269468497047 16.683174866609374 15.462192627558924
Zr 15.441519592204193 11.62606391779276 18.99250172897812
Zr 9.88269969768797 13.894402262841561 16.41430847145216
Zr 11.145639200050182 14.158720212110888 8.937897427633958
Zr 14.473392246895555 11.446790210146517 16.287397493116796
Zr 17.054691370845706 13.293832995333375 16.806900048739564
Zr 11.303045812984934 14.386837738593764 13.042069651427887
Zr 12.516700104858147 16.090899913567814 10.610028596169292
Zr 14.626434175623036 14.554522421306404 18.024486472031484
Zr 10.714134847750255 11.986961819546496 11.41431863211323
Zr 15.834056584330064 9.040060845431062 14.792707311064573
Zr 13.487710110185843 17.356790140378163 16.674914061633817
Zr 17.34855363708753 10.47355333070919 17.009572237242683
Zr 10.80335170884713 9.349121649507941 13.001838233440884
Zr 9.261178692238998 15.11560818652768 10.78825926258546
Zr 12.871840713224158 11.222381461754038 13.718484445413525
Zr 12.411433229240366 18.88693051354788 14.308023852522574
Zr 17.67000242283911 11.528439095936244 14.403593023909147
Zr 16.005882803436506 15.945948300247647 15.726455578850619
Zr 13.71538246128734 8.397634946383993 12.934629471354297
Zr 15.348999495463413 13.397703551578175 13.981808591326557
Zr 13.56709292229518 16.248479061832228 13.720269906062299
Zr 10.154521798972867 9.481498745072464 9.950473050190865
Zr 18.112246912244657 14.480572051623847 13.983966785332921
Zr 15.15439614067718 18.62884265492991 14.680200999294472
Zr 10.614095756817985 17.241995828292556 12.604006007040482
Zr 13.42059551170575 13.01356202329439 11.211909074404089
Zr 13.021677489346683 9.97962756589043 10.74699429639524
Zr 15.549884340241912 10.765963563224489 12.252970710473788
Zr 17.681487102046898 12.782560901867207 11.436447060269222
Zr 14.466462760812037 18.20400708899629 11.65458927234815
Zr 17.05376593655738 17.221093764757274 13.207575141002824
Zr 14.81319911971275 16.873352789735367 8.915355446624222
Zr 15.502363602082339 15.21733823940169 11.372916568556851
Zr 11.91559423172992 11.58545780005543 8.650557881432508
Zr 18.63387426457746 15.463336608453362 11.379984974366366
Zr 15.57008477514592 12.076309998578216 9.53435204436828
Zr 14.05666700420281 14.176210485712366 8.497747081745162
Zr 17.124886440490194 17.51952608573523 10.30421840971344
Zr 17.084303895537655 14.741112665280074 8.974466269941129
