53
Energy = -393.74995795 eV
Zr 16.625626487990026 15.473621907836 8.99599481516396
Zr 17.6578431530308 12.632222663547493 8.975747578358886
Zr 15.461801205238975 10.778293190920994 8.07194932812051
Zr 18.003647215044854 14.77443472463467 11.464688741003195
Zr 14.867042217412557 13.481958899872833 7.682264129687961
Zr 16.57741397471191 10.08557683892972 10.577682607509423
Zr 15.393372149671942 16.599954322750065 11.383606008814798
Zr 13.63965536937824 15.528763334774867 9.388193741191824
Zr 18.29073743668518 11.894027566654984 11.743782793622712
Zr 12.490860860341888 10.839594105840286 7.41791072059598
Zr 15.58833674832646 13.327009001772538 10.798404903033683
Zr 14.145442816841172 14.385846498030443 13.30312606873802
Zr 13.88878477114166 9.012666226292083 9.849475678876729
Zr 16.568467689955497 16.108470249313072 13.831945273464363
Zr 11.369444994658357 13.730339132410839 8.225596984704277
Zr 14.120444388458452 11.130837664567236 12.293444617598245
Zr 12.258668301787004 17.168437215148586 11.998321653021327
Zr 17.103631873784366 13.153405094486974 14.019344075049444
Zr 10.774649116261818 16.283663889528686 9.537790988136555
Zr 11.207461440833235 8.875265985052636 9.095763094759915
Zr 11.76277896394727 14.206521143347526 11.372759329926819
Zr 16.71549842933351 10.253171449931752 13.832970166779461
Zr 13.589537944279735 16.78873668065823 14.879627013035755
Zr 9.479045299324758 11.21463540685509 8.400188657484879
Zr 13.168329037086599 11.952530939161665 9.813781499175692
Zr 15.683621980147127 14.528856956231676 16.08002940963966
Zr 14.481654116111535 8.507154836378668 13.372002811457298
Zr 11.20310318735369 14.899588392624244 14.278288618770178
Zr 14.28942593712165 11.725393016378657 15.077383511403049
Zr 8.888481936658973 13.973355130268953 9.819700861471064
Zr 10.527584022721424 11.521609753461163 11.043698094996094
Zr 10.723513370308552 17.798313967122127 14.363160839151725
Zr 9.455680289531342 16.27291273260154 12.166984050369058
Zr 15.136406145437878 9.032998095733543 16.115692408848346
Zr 11.73456283528996 8.9931769451384 12.158955202741158
Zr 16.38369038229507 11.589651532521062 16.872532515799058
Zr 14.192485768240598 16.286083979264852 17.765128110892864
Zr 9.007451568595622 9.060491746600734 10.658876066541987
Zr 11.488337085351175 11.924376607677727 13.894180070164156
Zr 8.872782056716867 13.422727874902261 12.805330657651085
Zr 7.597330267160272 11.442060057896875 10.925567352294415
Zr 14.606443827943671 13.382408881255481 18.775767095298153
Zr 12.29642601478645 9.266056450118297 15.25557304886182
Zr 11.316911724058517 16.74219150395517 16.998094030608883
Zr 12.628600595507615 13.890434860395725 16.65570609128446
Zr 13.503935408979517 10.650928853290909 17.848171438245004
Zr 8.76396904616138 15.793738870174884 15.351611564846413
Zr 9.17998289337753 10.328680158677471 13.405461060889309
Zr 12.21985964356528 15.17364995439325 19.37217228067814
Zr 8.81276766478423 12.783677409306637 15.456935059275613
Zr 10.658533666541034 11.287276944181807 16.91955572239147
Zr 11.770717652118522 12.467745357485732 19.257183896074647
Zr 9.834141046405296 14.224782258133065 17.78320397618752
