54
Energy = -400.21245214 eV
Zr 8.726816410476118 11.379377065066999 14.71554143242986
Zr 11.38653423368634 9.946487610740613 14.19635474021782
Zr 7.413248841786408 13.931468057633687 15.345392645995954
Zr 12.68205099223743 9.320705060250067 11.650716942841447
Zr 13.571062082272833 7.568791463025487 13.61577619862045
Zr 8.877515448428158 12.773654529936676 17.369581216327877
Zr 10.230714821195923 10.010997489677665 16.967462910905187
Zr 10.083062715100848 11.794257600870457 11.921817527082013
Zr 9.160244091110194 12.967771420966871 9.419109393847622
Zr 11.093976107052208 11.80227194594985 18.995359972506076
Zr 12.911165822817123 8.109786404490622 16.143660451399526
Zr 7.701015136103641 13.372242033404563 12.635351641270576
Zr 8.068397137941224 16.094452151779002 13.797152278168456
Zr 10.381549783173957 14.108040137748715 13.969849612843959
Zr 12.96057154862118 12.231263252586906 12.539310710796718
Zr 15.600739170688788 8.79005857855233 11.813337879069026
Zr 9.976438353031348 15.594227212255865 8.44853236395654
Zr 9.441753794859084 15.741811796300258 16.41207055485327
Zr 13.231730097660607 10.317193797353939 17.728209318848148
Zr 11.663143806770254 11.22981656378821 9.331550396423337
Zr 11.081107267770452 14.540410037631752 18.32765635350675
Zr 16.22954229662216 8.403836671552943 14.819192441640896
Zr 14.557655406918435 10.840450473975107 9.957069654838268
Zr 11.690939445408572 12.477866831575257 16.04988489993835
Zr 9.369008770140315 15.399435068994796 11.34288969860595
Zr 11.11108378913169 13.346677273342753 7.34352023466385
Zr 14.230353807380862 10.331094411850074 14.659281504826144
Zr 10.799330743764195 17.18600862085886 13.64342237637091
Zr 13.658205456142813 13.187627372361717 18.316451689334745
Zr 12.759866956557573 15.587377498470836 16.147746707331574
Zr 15.953532817000482 11.779622849123598 17.02489957931564
Zr 11.853993977168539 14.05073146682078 10.313113096991023
Zr 17.9608777170845 10.91925924289953 15.219721785567174
Zr 13.854645002125817 12.907491510801739 7.679379256206528
Zr 18.21008562590698 9.45038056121954 12.908276704855327
Zr 14.566422104391316 13.472526638431715 14.95531438306212
Zr 16.11376992904612 11.856657361925837 12.86707429158056
Zr 17.62209134458708 10.844566932917967 10.442594707059847
Zr 14.837649682497906 13.714825659923235 10.527677124797286
Zr 16.566031416642314 12.403280107229394 8.230969958813338
Zr 13.281415231047953 15.69465918314696 12.919520466862187
Zr 12.959830813460831 18.69992593513522 12.11442750188068
Zr 11.691068107366185 17.06439838267336 10.343030599385294
Zr 13.421229408898663 18.171004397064806 14.831012140181688
Zr 15.76093436619426 14.719141083223748 17.400553621385065
Zr 17.566293601364467 13.782523661544863 15.191058398726028
Zr 18.964451981385228 12.284644411353334 12.787164852598709
Zr 12.948282930246453 15.689498221093615 7.90369731237667
Zr 14.612760456411682 16.778974449799513 10.376863551211033
Zr 17.827673636065807 13.75753205503449 10.40212844488742
Zr 15.661338948435283 16.339026637014552 15.112617782612858
Zr 15.90525087395149 15.115083662388336 8.159092561603982
Zr 16.40132922062834 15.043673272233328 12.674502727031442
Zr 15.568033199195645 18.054636304762948 12.826079353298036
