53
Energy = -394.0109442 eV
Zr 18.928631423756762 12.8225179475741 10.2299199553035
Zr 19.22625826111472 15.240402776299511 11.438596941520661
Zr 19.222771073841862 12.891572674153515 13.27815058953627
Zr 17.86463869527419 10.722154159601832 11.650490351752806
Zr 17.369670629102576 13.50413665237908 15.744998295760778
Zr 18.16164592160058 15.709781859609478 14.041445945818257
Zr 16.99025777142269 14.844325739597126 9.35513930397758
Zr 16.549439957508234 11.202233925034168 14.090784556252137
Zr 16.624875167000408 13.718631381049825 12.194536182494199
Zr 16.37733184920985 11.837648816670868 9.343441268372572
Zr 16.931649476784692 16.842738896833133 11.566167496789742
Zr 14.96199093302735 8.740453605963246 14.523958672787396
Zr 12.804594088462663 8.12992416674084 10.085905917505919
Zr 14.931839070243212 10.968494304697778 16.514911194596365
Zr 14.87410267444777 9.944805943815366 11.519786524570836
Zr 14.731964964515871 13.583075196912954 14.92363093992585
Zr 15.76779418339334 16.082674455215844 16.47722194843937
Zr 14.808196424368512 13.938585788794501 18.14213186009255
Zr 13.686957121326765 10.755193589314223 8.76318259801231
Zr 12.498150912656616 8.323311775130579 12.993562837393737
Zr 15.104726534206177 16.311187978937454 13.669769181344895
Zr 14.39943957670342 15.790688606337294 10.685207992031657
Zr 12.356005705873173 9.316097367535589 16.11891458769009
Zr 14.19381223110353 13.75556565644625 8.367671095119034
Zr 13.44534274570414 11.099637056888826 13.848809890531884
Zr 13.88608169541203 12.786627500662835 11.152358137437869
Zr 13.63813011211307 16.734668529438668 18.24100687727441
Zr 12.499082348106942 12.000954004685003 17.649935746954945
Zr 9.916445840421844 8.410719063473804 10.937023038225355
Zr 11.031844117804107 9.61522308581354 8.4307828204379
Zr 12.580193996672266 14.875343195611464 16.11751935074662
Zr 11.727342332735487 10.65873573168707 11.204522178430018
Zr 13.277779948437352 17.83585813736687 15.521515952926151
Zr 12.014791555197121 14.581229679603586 19.016949913500444
Zr 11.171775975676429 12.443088292933576 14.858255297291242
Zr 10.189903192671025 9.686474728673986 13.974520353534675
Zr 11.785469979125496 14.796547240583541 10.1285425192178
Zr 12.432653133390103 14.894896852993238 13.074875761250908
Zr 12.778342181873056 17.801721525974962 12.403487141295193
Zr 9.861959933073344 10.703471654185442 16.772150331961527
Zr 11.170591348452284 12.490308130713185 8.602677750275058
Zr 8.047314933168488 10.069396179895646 12.234330324327848
Zr 8.756333350499128 10.982631282361206 9.567222652563192
Zr 9.87586988316468 13.58737142166006 17.33018738622471
Zr 9.96749211129902 12.91066156098119 11.994415493508674
Zr 10.839038539799747 16.79857159123256 17.22831888378056
Zr 9.54166526851604 15.000228461382383 14.720771714927785
Zr 10.700702772948105 17.44526824212524 14.324655094502825
Zr 8.252580681341492 12.21454479077754 14.406859937939954
Zr 9.978890488734333 16.225263597290095 11.767540555056794
Zr 8.670165183625913 14.147687353282805 9.729161977841494
Zr 6.966322818270082 12.409192313974128 11.486136073439305
Zr 7.622240843202946 14.78415798011302 12.558620607620737
