6
Energy = -36.39910429 eV
Zr 9.100940631275106 10.07715968686318 12.612690856919524
Zr 11.908110583657932 8.942560268110348 8.784152518776814
Zr 8.886152716163073 11.784663224777292 10.52703168199489
Zr 11.45630419388567 10.493376739407967 11.09369633019172
Zr 9.3824475068244 8.920414287431045 10.044444562142136
Zr 10.379608503270813 11.186708044969711 8.451013624654523
