6
Energy = -36.3890719 eV
Zr 9.941997440399202 7.300443914591399 9.614597117666285
Zr 11.431231602472025 9.216569928668651 8.458929459076144
Zr 7.355918392246119 7.750722505827207 9.633604802976727
Zr 6.635374472846548 10.12493678259281 8.45782881829963
Zr 9.098503065761573 10.10924708048966 9.810671989857205
Zr 8.854688026274527 8.815792787830395 7.3420808121237515
