6
Energy = -36.39831284 eV
Zr 13.95704556368057 11.12954486604213 12.610910885656274
Zr 11.416757498161346 11.264249762199041 11.95130348684437
Zr 14.998540544157853 13.490039859934349 13.516387993510852
Zr 12.302124415661732 12.995968210274874 14.153918464144489
Zr 10.282318525615668 13.695123636107526 12.28610600500419
Zr 13.002948099971016 13.700018096475818 11.54327565795225
