6
Energy = -36.42877105 eV
Zr 13.38186619410049 11.609881341631457 13.551014891753564
Zr 13.195594574590949 14.432262638122252 13.189388369243646
Zr 14.907988915215803 12.858204416370315 11.575137459542049
Zr 11.103940966144261 10.483093874037708 12.370949154191853
Zr 12.154700414582232 12.761046931277154 11.12286708419453
Zr 10.87505501385012 12.970588345810546 13.66292077225597
