6
Energy = -36.46450217 eV
Zr 7.6524516348360265 8.931370293861551 8.428099117031152
Zr 8.940653070253388 7.059155979141986 6.827250115537337
Zr 4.652704867839811 5.780309317735895 6.247302545997535
Zr 6.3445655925616755 8.04400600001147 6.073921298592387
Zr 7.348590874872091 5.376728924345486 5.663076660692099
Zr 6.561901689170933 6.317026468433485 8.26900301794572
