6
Energy = -36.46276892 eV
Zr 11.145501605010768 11.448328683323568 10.408343719074757
Zr 11.13306249581197 9.027322675157041 8.849974165825145
Zr 10.94496633582039 8.756788249273503 11.420810707189801
Zr 9.913933029475988 11.321751127781175 7.853082515057502
Zr 8.740783808430619 10.048615374802075 10.086237304219276
Zr 9.570962665092656 10.811974413566961 12.686879909914639
