6
Energy = -36.15361905 eV
Zr 8.441702252195489 10.721107628916853 7.865918588630767
Zr 10.942209500808135 9.742703695274146 8.595240487492985
Zr 7.94406374627332 9.100160079333763 10.06686051969348
Zr 10.521107697019735 8.801906165637629 11.248171542164501
Zr 9.50384049394662 11.458221381142712 10.338620800532992
Zr 9.731769217184086 7.301998870614188 8.984553395699555
