6
Energy = -35.18951111 eV
Zr 11.63114576809258 8.42083033105182 8.663475230580639
Zr 9.098149466223287 7.763945508552343 8.515051915780127
Zr 10.824168987572623 10.19901743265615 10.420333586680796
Zr 8.844411616039919 10.561602853334279 8.378851242900781
Zr 8.082118320523062 9.049302673531491 10.661610619699468
Zr 8.635860489265347 11.667048236459474 11.026145081411395
