7
Energy = -40.475735 eV
Zr 11.817462217050341 10.449159005390005 8.76671062151127
Zr 9.795137643583374 12.17825323460752 9.185659136410724
Zr 12.757591184601218 9.0521588403345 10.870198194864722
Zr 11.120480432961298 11.122517343950442 11.25650411483724
Zr 12.476314598139519 10.121974182426767 13.322151656641067
Zr 9.513070536387433 13.223711934460743 11.644887715126861
Zr 10.466910437212691 11.845708441125913 13.743174619342897
