7
Energy = -42.8541672 eV
Zr 11.855253809519809 10.862139311818 12.86709560255227
Zr 14.169202859202821 12.117995272763602 11.973164625427216
Zr 12.3365357585039 9.430799452733664 10.561354760890314
Zr 11.567585596055947 13.511813840114284 11.985679148042689
Zr 12.716066209241951 12.025506143534606 9.740110409451276
Zr 10.071294123535985 11.339386696406017 10.42832372434091
Zr 9.307295103896875 12.033462113717981 12.916341620731059
