7
Energy = -42.01573759 eV
Zr 13.180226596682607 11.479726903582938 10.913637132627562
Zr 11.758287296389584 9.120695653141805 11.790678257835884
Zr 12.297348331252472 12.294983822088055 8.407904895133177
Zr 10.445547005722384 11.034262021102908 10.062135132937554
Zr 10.90726520895073 9.59088527576809 14.123417812890956
Zr 11.324201517969437 13.639157776964883 10.802012919830712
Zr 10.963024102188049 11.939613559385096 12.863164424006131
