7
Energy = -43.02245164 eV
Zr 12.098298829156029 11.182153158133897 9.706861057609832
Zr 10.17651650706264 10.249573273114805 11.794606771721863
Zr 10.946395778783502 8.7268151175727 9.565109372576076
Zr 9.098087841177412 7.67484129216061 11.253931551959466
Zr 9.503947451699077 11.85080513070365 9.423839840631626
Zr 9.751264723909626 10.00841757126673 7.436363562359176
Zr 7.9455481658959055 9.67381473632121 9.805748370399053
