7
Energy = -44.42140792 eV
Zr 11.51023080476827 12.78713538449688 10.940776474338971
Zr 10.919325094357369 9.644784719643802 11.493712164300335
Zr 8.909275141459707 11.71148109312045 11.566825362626165
Zr 13.332435470004325 11.002003725410422 12.2939710738167
Zr 12.828690689762022 10.625832049090748 9.563540215645356
Zr 10.097616774329119 11.051939182658211 9.114876124096003
Zr 10.910817047438682 11.685214867699115 13.534689607295741
