7
Energy = -43.06896974 eV
Zr 10.096485185984497 7.847942750714466 8.14988052108569
Zr 10.762036965003903 6.976414171270651 10.492818784250083
Zr 9.37089416942927 10.384345019131132 7.919081813136613
Zr 8.654792479939907 8.968017024950658 10.533847822358904
Zr 11.308042344094432 9.747970888056686 9.995729169870692
Zr 9.240854217020734 11.748537300869883 10.381409244340286
Zr 6.948635061708382 10.809964009052974 9.109875807958108
