7
Energy = -43.21945505 eV
Zr 11.468003215026807 7.6026335754157515 8.152370258418422
Zr 9.965306856710436 8.306256466445603 10.439635159460657
Zr 9.25618383421376 10.959040614480681 10.983645752406092
Zr 7.196868718756646 8.812662752489334 10.301929091616062
Zr 8.022953921488835 10.757211410160338 8.607603536622303
Zr 10.82400891778185 10.239127382125805 8.444730368026688
Zr 8.761817356491326 8.064676998309986 7.831891878632448
