8
Energy = -49.86020952 eV
Zr 12.191175140466392 14.811112630597624 11.475710739609918
Zr 14.224403695739413 12.939576439267759 11.64028967926005
Zr 11.836493624985424 16.397436835380525 13.605043060791248
Zr 13.306857784327837 11.046463362989844 15.764145003793358
Zr 14.398790024155133 15.358714325460328 13.210068754503396
Zr 12.479281972776967 13.451120503698549 14.08160412139314
Zr 13.362887198216766 10.790456329197907 13.104859390702968
Zr 15.171277631532293 12.617917842495451 14.369722144004426
