8
Energy = -51.03814618 eV
Zr 11.057648217403381 10.902910556227907 7.873740795045208
Zr 12.134960944157237 10.223920932169376 10.370422269239652
Zr 9.99829720642849 8.652647032239413 9.282696246764859
Zr 11.441153724082922 12.902182715818679 9.969167019732684
Zr 11.100272898079954 8.493111434587359 12.23596667032597
Zr 8.657132881854865 9.478303439927933 11.700355939244028
Zr 9.040755725181718 11.430474115979118 9.776942357137631
Zr 10.544670852675372 11.571333148348986 12.342593259043483
