8
Energy = -49.99521621 eV
Zr 10.790981972147192 14.272087382876371 13.54809396177977
Zr 14.869366471768183 12.196605498341665 12.398102120753823
Zr 15.646458844511425 14.472836128719814 11.579019383132392
Zr 12.96657194675806 12.712232916826476 14.422674014656861
Zr 13.26288868666166 14.972130223202255 12.369673781976987
Zr 11.97189270894235 12.550917665195177 11.541418684580485
Zr 12.85928787064001 10.228771572781357 12.871186452514525
Zr 10.497037231532234 11.41857338202103 13.747223253748245
