9
Energy = -57.81786205 eV
Zr 11.546919356804663 13.756404774743324 15.589679294078088
Zr 14.600694789304333 12.189570542745624 9.900449486855
Zr 14.40240229674928 13.181293777406022 15.594082370012165
Zr 10.979066366135898 13.432257163284456 12.854663405395296
Zr 12.450314200165693 11.376792397572727 11.408025234839837
Zr 13.029682340797976 14.206128733673502 10.943245689454596
Zr 13.28509162286363 14.957237445004896 13.718577610472678
Zr 14.778895970827552 12.638475146669869 12.728364352174538
Zr 12.579843460585352 11.486182762243155 14.285878300577235
