9
Energy = -58.21179612 eV
Zr 7.523991506716669 7.981668646620719 7.536321662109053
Zr 6.922995526909843 9.028646313433393 10.214744489128124
Zr 6.973671882805117 10.784678062013459 7.971226248831335
Zr 9.602453244609633 9.87011568335422 7.21890678515224
Zr 9.688222964855854 8.208749737347128 10.393538883925357
Zr 10.32992611795748 7.0657158990906055 7.868205400819461
Zr 11.604279563094282 9.534134668496979 9.042680666392538
Zr 9.086216685568852 10.991575733910596 9.882147044024755
Zr 7.998599007482393 6.265071770666445 9.602585334550797
