9
Energy = -57.84588452 eV
Zr 10.030650260807954 9.584303613032995 12.209229002229044
Zr 8.358929396318366 11.610049555005407 11.05220288878205
Zr 8.151746403073812 7.948339834309475 10.787369152293216
Zr 11.195719881219498 11.231838332627122 10.436653817010017
Zr 11.210092255271089 9.835604670372756 7.833223036515047
Zr 9.735347450191455 12.518522189580963 8.585942374116884
Zr 9.436376604154242 7.254361968145599 8.20337437755402
Zr 11.019016470906072 8.087919512189002 10.208784727235084
Zr 8.744921127349048 9.895777927296239 8.934533494209546
