9
Energy = -57.62952783 eV
Zr 10.375313641958869 9.551303186608013 10.117961044920403
Zr 12.443776061013436 13.570361210456312 12.736398612558427
Zr 8.988028362513662 11.787145181123638 10.23013421281008
Zr 10.07557509130075 13.834346200247111 11.483455622714215
Zr 10.76868344388411 11.153996088378145 12.594132803196526
Zr 14.23076005337317 11.693548197291756 11.692604942709785
Zr 11.944168493343536 12.074577512175587 9.998761782508689
Zr 13.187850898214863 10.874976535295154 14.00850079025651
Zr 12.759725018444176 9.359305497510375 11.33372448932514
