9
Energy = -56.61462788 eV
Zr 11.1419580319025 10.807090049744264 11.766421255772233
Zr 15.234300005621215 12.240698469944554 13.203552731058835
Zr 12.827785654693793 10.810675756028129 14.021265055922786
Zr 13.758827893324508 13.17551349365058 15.448969231436562
Zr 13.756164438705001 10.97496633536204 11.32280694609543
Zr 12.561165092866988 13.370029438344874 12.590488692114956
Zr 14.55934882696006 15.24480560693965 13.643019053688278
Zr 11.99625914809592 15.117149491887186 14.892450391586951
Zr 12.261703792567667 16.442165603038557 12.610830271000086
