9
Energy = -58.52777694 eV
Zr 11.698311628169357 7.594719171132604 9.047538893405207
Zr 10.649791252491463 10.342101210540818 9.50187921788005
Zr 11.383704458849447 8.45933131550245 11.68052444857954
Zr 9.577040625440585 8.651031182834945 7.418313826077431
Zr 9.038685054592758 10.11014027417081 11.891622251558289
Zr 9.150931824701571 7.663663764947456 10.196826063676122
Zr 8.784898872919051 11.415276367440475 7.455006313941781
Zr 8.467100226029316 12.27152434036236 10.086652395125446
Zr 7.566647571252786 9.737973922933856 9.327912699660095
