9
Energy = -57.62273125 eV
Zr 10.346967280686261 9.494471255328753 11.929566355269321
Zr 12.11298272822786 11.17623401479152 10.187654844684223
Zr 12.66252144824823 8.446535369716944 10.690731933546086
Zr 9.43580355766781 11.800453807530733 10.919577702056607
Zr 7.127713300109967 12.05647609099136 9.39986392620017
Zr 10.089733281214025 7.142104204668541 10.472111182992025
Zr 8.130290776725639 9.387988353982486 9.782458443132338
Zr 10.806561664320697 9.163341139351628 8.712082111267613
Zr 9.437177480789646 11.481559119353761 8.056479694701874
