9
Energy = -57.80108194 eV
Zr 17.084436574547595 14.856713328938232 14.232759040641858
Zr 14.268888462950438 15.392252411134505 13.980603941380204
Zr 12.515626823286198 13.406566204784944 15.23973612718743
Zr 12.973475356844267 14.012925158599185 11.738047399030513
Zr 10.965767557997495 12.5340216357109 13.04681113853756
Zr 11.357342479824789 15.373160969583266 13.599028878685353
Zr 15.36082462578867 12.926033363229473 15.181388682436511
Zr 13.624699197283661 11.62269917080963 13.243558994198766
Zr 15.728378781226555 13.42097655286583 12.324211555855713
