46
Energy = -99.91132462 eV
Ag 16.748638618786234 14.579222389902633 10.63953857132694
Ag 16.271189893775645 15.449756487794719 13.422499366024375
Ag 16.209436476629207 12.616747171237364 12.613711536153286
Ag 14.985892774590685 12.465916047871088 10.060545510423314
Ag 15.442573916193677 17.022980297578872 10.27650274049429
Ag 14.240398531984523 14.923973100061904 8.935344621787719
Ag 13.151254420662777 12.604748994100976 7.871163457455569
Ag 13.846933576195397 10.146838056192076 9.019641934036194
Ag 15.129926562665377 10.141136499206185 11.534613507216855
Ag 12.124744559462128 10.190722333203531 6.811947207025053
Ag 15.117778030371037 10.465237180775926 14.353165936663736
Ag 14.193366182163897 14.748669617577221 11.769251427540095
Ag 15.118212125242167 13.279668943371306 15.130368906441994
Ag 14.204244486695494 17.54483015212935 12.652370154283838
Ag 12.586519097767757 16.740896394259966 10.437141854395152
Ag 12.152721233311189 12.86208770102584 10.631535568034455
Ag 13.121051886228292 5.6588079857713645 12.271632020183109
Ag 11.36630959868269 14.751986420529075 8.783819945978676
Ag 13.987411759232316 8.11938465849473 13.194873069165176
Ag 13.436541508160959 12.2896746624596 13.047967275397722
Ag 13.842329869531046 8.389510184281903 15.999903121970354
Ag 10.572644979699435 11.77678893737578 8.490461970046036
Ag 13.8011652596889 7.769366888357863 10.424099822039905
Ag 11.233335633136152 9.06022489994034 9.203389063403616
Ag 12.293548236852379 10.076857985034929 11.640715158279445
Ag 13.653768831365458 11.255267607869323 16.5894305397036
Ag 9.895941720518996 16.16187742314184 10.795363760495265
Ag 13.623390041018956 15.631671900829003 14.523849584076222
Ag 11.540479816510103 14.575893989887929 12.808600230907487
Ag 11.235873339804371 7.470013771151523 11.505012670297791
Ag 12.189717597319714 9.954706008833089 14.53886286278812
Ag 9.593913741052381 10.739921026019537 10.930467202242593
Ag 11.37149674394656 17.341169228502384 12.962123167070457
Ag 9.339875552182633 13.45896657504667 10.346912955050735
Ag 12.234697210031094 13.40617802122654 15.509943021643851
Ag 10.655332291208852 11.925957515352696 13.23793097572882
Ag 7.259035785617518 15.063803913176992 11.233842164402706
Ag 11.610838346443687 7.069311127315761 14.325889608618304
Ag 9.826117088207138 9.100040071686445 13.18775146215511
Ag 10.71745149079921 11.336670249585406 16.52104419703483
Ag 8.908373082125147 15.629041114326657 13.386200151778754
Ag 10.923439051173252 15.885007306264415 15.285947097014954
Ag 8.100591384566416 12.887951255822717 12.788905302146825
Ag 9.945940366384137 8.674963355915772 15.934432800200407
Ag 9.380610075680863 13.569766552855027 15.277476865032137
Ag 8.543304939400176 10.914145709721272 14.82216734890967
