24
Energy = -48.46409744 eV
Ag 11.414942522506925 13.418426509885167 8.034126112449787
Ag 14.203126547888827 13.322632156808345 8.73818613107513
Ag 11.419223288168267 8.590289131682004 8.353757234631344
Ag 12.771300875068585 10.97149146443284 8.573970510260644
Ag 9.945463388517112 11.051401026547918 7.839554782857091
Ag 10.754695079192278 10.460454282369996 10.534875236134983
Ag 9.364614692127693 12.991506831569431 9.92043679088081
Ag 12.284615208475852 12.952592228784999 10.665714308459204
Ag 14.586865015798393 11.32193757557452 10.747331327775232
Ag 10.16544626411931 6.208675681044213 8.007693497289585
Ag 13.190468725459377 8.923769952351151 10.611302400200884
Ag 8.688011735938119 8.583126445680982 7.603072970006234
Ag 11.771199181993794 6.55329594848965 10.298656733243288
Ag 7.593869920872545 12.252212765376468 11.956538023018988
Ag 12.670140203828785 10.828182616428244 12.737650696422389
Ag 7.9451800134294865 10.472238560472528 9.7392248269506
Ag 9.349384375905341 7.961724740839742 10.24862491784066
Ag 11.19080252144499 8.343711884720511 12.512756707621252
Ag 10.380292308230086 12.485950052231685 12.509503998161074
Ag 8.747850634403164 14.728513621228906 12.430485132313823
Ag 11.761253210416548 12.77531142658516 14.897848647838105
Ag 8.983734975542232 13.076668722586017 14.682128090305673
Ag 10.493778368499374 10.35387802106137 14.424496484776789
Ag 8.760250778870276 9.780153600024835 12.35300180380741
