13
Energy = -24.31310489 eV
Ag 9.172800992962085 10.748175734414703 9.397131281428711
Ag 10.957188638736 11.402182320359064 11.401354055014956
Ag 9.697130517868597 11.428479333927534 6.724380483409228
Ag 11.43307959648912 9.005730690634588 10.067152772122196
Ag 11.758147574519555 11.396339237203575 8.63382713344545
Ag 9.158726 9.158726 11.762733688551807
Ag 9.144651007037917 7.569276265585291 9.397131281428711
Ag 7.7352537170636815 9.392050893457727 7.426506430303495
Ag 10.582198282936316 8.925401106542267 7.426506430303495
Ag 6.5593044254804465 6.921112762796432 8.63382713344545
Ag 6.884372403510881 9.311721309365417 10.067152772122196
Ag 8.620321482131402 6.888972666072466 6.724380483409228
Ag 7.360263361264007 6.915269679640936 11.401354055014956
