39
Energy = -83.47205237 eV
Ag 13.958879106994711 8.569153102392233 16.593919396284885
Ag 15.350874044334745 10.506887492637292 15.258908734175158
Ag 17.190205567509555 12.051659305757434 13.759121236771186
Ag 14.590564432887092 12.940433119454593 14.189100049733636
Ag 12.693498351987778 11.100841290475518 16.223477597262878
Ag 13.43501355800329 15.48197736962493 13.683375767252208
Ag 11.71651557054222 13.27798962571337 14.576525368744477
Ag 15.403424744554872 10.483549585172607 12.392253290679282
Ag 14.267658885158427 8.279579119684827 13.788113168114403
Ag 11.70002125131674 8.555386856966837 14.992406480642734
Ag 15.799225658255427 13.06187220212713 11.45995263349748
Ag 15.358099636196902 10.856818980742794 9.587087949446607
Ag 12.740107646810234 10.798969353349687 13.495009288685042
Ag 10.801135304505143 15.264672634746582 12.651612124226077
Ag 10.128785670435374 10.93822071716259 14.917251425498677
Ag 14.565294790651299 15.510233790625088 11.056687278265114
Ag 12.510306605116666 17.318287318680042 11.711982374816735
Ag 14.437872412386893 8.465497107387852 10.81853876323145
Ag 12.963771590893154 13.34948731166585 11.972957441013524
Ag 9.936909127505343 17.083343562103284 10.599548729635323
Ag 10.552454500495461 13.07438534346273 10.699633618203853
Ag 11.96554533133684 8.265897534162848 12.154973364341132
Ag 8.339420873395554 14.860494299308641 11.171061771261936
Ag 7.708199854624268 10.659459580775808 13.448026535591326
Ag 12.063518526784126 15.335634731716418 9.789380593642008
Ag 9.398989304074338 8.41803322626182 13.396782146495525
Ag 12.754173422344483 10.854842803803328 10.688232198723806
Ag 9.1143876804599 13.126133288932119 13.375815111798616
Ag 13.946548622183991 13.282710849408152 9.259101514654938
Ag 10.243977238152633 10.66459775417986 12.0615600586267
Ag 12.98441972132106 10.907249253707406 7.927194308760078
Ag 9.503911945647738 15.110779495951533 8.637329370512987
Ag 12.147836428087919 8.505057881773169 9.232091391586435
Ag 11.365171820417295 13.113911214148006 8.044765115014405
Ag 9.673758468618612 8.232976458494502 10.544983610079317
Ag 6.822742780676361 12.623179402684885 11.672745266692635
Ag 10.262065297037205 10.61671916372749 9.040712104247989
Ag 8.263027252467529 12.660418003980606 9.225587435931047
Ag 7.814585097517492 10.257559168116726 10.60562144838532
