35
Energy = -109.82332453 eV
Al 14.944088694443696 9.110481468447816 13.186408449388649
Al 13.69382563814558 11.17202732570038 14.13183546109958
Al 12.15779175010684 13.265008096981749 14.639378969840076
Al 15.398329654719412 11.402844733686813 11.69720613886322
Al 16.36897443123881 8.826986218048248 10.974611827714604
Al 13.669325497240067 13.32789233652196 12.285795129440235
Al 8.976807341258837 14.795320803048188 13.099398547832038
Al 12.392104637389462 8.510036055068479 13.632994820319558
Al 11.007319647200907 10.688770473627178 14.095588991979069
Al 11.66829051975382 15.260312811877919 12.765127543232381
Al 9.53283959323823 12.76385135207781 14.762853719792352
Al 13.536176822892628 7.929387355555155 11.18674611277705
Al 9.610648813318907 8.314661738066556 13.704551577894431
Al 12.711762806408698 10.595567622002884 11.680306198661402
Al 10.874803001722107 12.71452632763781 12.22552696398727
Al 14.408227923586763 9.902854300734882 9.493864691608115
Al 13.879992924674104 12.51081991348254 9.68350590518851
Al 11.017532839077088 11.955738183688501 9.607942687434484
Al 8.166905684611455 10.55522520119573 13.84056058034565
Al 9.882559655976264 10.25572351007857 11.60850332703191
Al 12.444308894054283 13.621834490631752 7.661294271111647
Al 12.67329778712201 10.983180537205993 7.632522949161139
Al 11.791249243884716 9.242022828721078 9.519245765081497
Al 10.143887516973336 7.142061003689912 8.889957932313402
Al 10.794419505416219 7.600512896235566 11.425736563677427
Al 6.928934330552656 13.161175759742306 14.384162129830873
Al 12.15780420583644 14.479304963871073 10.230444295103412
Al 10.799173060453716 8.964480732280352 7.078615565962472
Al 8.015779169993374 12.54260505841775 11.985736088660806
Al 9.375919930190287 14.340052621973197 10.486379190283401
Al 9.754051713151282 13.909044360740443 7.939125692990424
Al 8.174086837503886 12.027189268593428 9.426336382682631
Al 9.681027050147009 11.34389432840937 7.297631347246254
Al 7.179134250419276 10.051596056692631 11.235057411739518
Al 8.909960093130747 9.454350731099522 9.22638823555773
