35
Energy = -109.03317435 eV
Al 14.608604183602086 11.480209626151408 8.666187722339608
Al 14.70983902826103 13.27699859858079 10.837594346021232
Al 14.410123090503056 10.312123795556039 11.129885409011546
Al 13.352195889466408 13.967100058231305 8.390539236174607
Al 12.737375677749153 9.460613457501589 9.025590244057142
Al 13.483148234038792 9.125143013861862 13.353782829046379
Al 13.176257237043933 12.186101598988694 12.876687233952854
Al 12.911641588738597 7.687774725683926 11.002881177424275
Al 12.009649458469884 11.554650849986098 7.334309494545937
Al 10.916749064612803 7.887744663676428 12.993775099481635
Al 12.442871268710446 12.09649789080851 10.104752510151686
Al 12.117152712336404 14.62740897665471 10.84747799226674
Al 11.400521194622037 10.38888684615625 14.436299035606051
Al 11.923548624852264 8.97400854852629 6.494598598177585
Al 11.549407424837097 10.238223838744297 11.711006062778774
Al 11.5941622899092 6.916598842674458 8.399227475466398
Al 10.582387861211071 12.824187868845277 12.124432938012852
Al 10.34947380542641 8.528087882873027 10.184806060190795
Al 10.187314834611913 10.988829984361374 9.441482217722296
Al 10.603754128175707 6.0153067962056594 11.000086268341574
Al 10.59304016705955 13.573377885185526 8.58058924845311
Al 11.561600759945993 13.066525905166461 14.816404261322809
Al 8.807577800436768 9.311887290106496 14.034987689298168
Al 9.528898626704436 9.009883347723324 7.602892167183313
Al 9.14896734916498 12.109369329746883 14.24909183445191
Al 8.782949038834147 10.688343469581312 11.710754336731618
Al 8.670075606167522 6.823865580527752 9.059688400724427
Al 9.401970912521055 14.784186793127633 10.686499005154845
Al 9.03726861189444 11.673836264557377 7.096797830826206
Al 8.287717576966536 7.891091230729177 11.71786892294797
Al 6.814834571552269 11.148483012170294 13.47461707500442
Al 7.682629327212263 9.500731036285094 9.500004198412405
Al 7.737104014244814 13.316100935058282 12.132347693686448
Al 8.013681383703064 12.606228953844562 9.422833294397636
Al 6.143486419127977 11.282328433341393 10.848309318219513
