35
Energy = -108.25307488 eV
Al 7.757167096826005 14.140935868459971 11.330830605493937
Al 8.084194866921417 11.538362633044088 12.000442098976837
Al 12.0783508709855 15.04546651076792 9.804184852355721
Al 14.040489237392508 10.480188620339757 15.16486261159268
Al 9.424876125203474 11.873067441769473 7.515567312967447
Al 9.94864610163492 9.836157684471747 12.446668754652702
Al 10.219071895364022 14.556777553929697 14.042110923393428
Al 13.67307932810476 6.9238702546213275 11.876232629693698
Al 7.693854569511744 13.57698423567205 13.974771435886433
Al 12.353529760522257 15.112427654892912 12.57072837759858
Al 15.214714889852306 11.736276786655731 13.181236326562344
Al 11.789942193780282 12.800519905642416 8.393680681277651
Al 12.892005036685132 10.691776623412276 9.31002513696497
Al 9.623648210856212 13.814413900170202 9.460718397696517
Al 14.705991753488812 9.099511697499118 12.867141146683664
Al 7.519275220900263 12.162671183590904 9.459420125785007
Al 11.05232090221337 6.210550187770462 11.495834269265004
Al 12.574686982097582 10.669385999933931 12.202584377986453
Al 11.399007671407128 10.167462195369046 14.834483515823258
Al 16.204602792049307 13.354343799168777 11.193265181540115
Al 9.60331105687131 11.910519139878783 14.414468864646935
Al 10.649482479192505 12.830067734040394 11.85586175017893
Al 14.792164881245313 14.350058320332417 13.342900759554436
Al 11.809468032020044 8.131261058823624 13.29374075611894
Al 11.570652109212082 8.683627960424042 10.490665099664053
Al 15.302577981910227 10.905901966993367 10.711208886938781
Al 8.099036231206268 16.168220430626874 13.271935183479247
Al 10.126760209174911 10.95383152439826 9.944108700174446
Al 12.790512400605103 6.4768133818413185 9.332851581444812
Al 14.759358180393804 12.970717195260507 15.563473204398544
Al 14.350558656731902 8.578199021468844 9.844602964374971
Al 12.445754005602744 12.744345593749859 14.058896739966102
Al 13.434764012343887 12.917281722775485 11.015002991267233
Al 9.987274265483864 15.623351028967532 11.397320133338035
Al 14.467378917542867 15.45165049608196 10.82390557289809
