12
Energy = -21.73030212 eV
Ag 9.769209451330255 8.467825391608143 10.698954133186316
Ag 12.695604224551959 11.8071018807396 11.9239635753349
Ag 7.944943563192833 9.635020871398565 8.791162325512628
Ag 10.352912008364681 8.56323217876145 7.996997898792762
Ag 10.246680731442856 11.3037660073323 7.632463891537187
Ag 11.87094604909405 10.106610551288883 9.707884140953588
Ag 11.217731663584107 12.772157415341761 9.683249242172712
Ag 8.609573098843798 9.693252224372621 6.126812676825862
Ag 11.918144460243132 9.191520114839777 12.394475430616204
Ag 10.020729382703465 11.17522771392179 11.672557644339907
Ag 7.541904650960589 9.914487225990321 11.455300308706017
Ag 9.388819976596492 9.172277991314973 13.502438470613797
