8
Energy = -13.50196520 eV
Ag 10.787290701346981 10.757212938246022 9.869708360467836
Ag 10.77358161123398 8.272962740386703 8.760626844540614
Ag 8.431507853392883 7.758863040417249 10.561255248533147
Ag 8.254411537771839 10.406265012039322 10.883862293170699
Ag 9.243810100495615 5.950363142435055 8.819978373707865
Ag 9.687509708781613 10.342968390949716 7.365259073474956
Ag 8.0727153273203 8.169131570639786 7.634055792256466
Ag 7.124559068271324 10.610280633396085 8.374828157264297
