15
Energy = -15.1619019 eV
Ca 9.156708535669326 9.156781925938398 9.156768053944122
Ca 12.80650709303882 8.78407603520774 9.169929242574113
Ca 5.506526875845434 9.529148952373946 9.143210384859898
Ca 10.726105610526979 12.472977012917985 9.13875461559557
Ca 7.072710634760985 12.850920461360078 9.12161731978169
Ca 11.240678015378831 5.462251118205227 9.191824190504915
Ca 7.587418099736864 5.8403984240402504 9.174360542776691
Ca 8.105222432604847 11.02569391742394 12.13473421996763
Ca 11.758823626496708 10.651833007217213 12.153870677373714
Ca 10.190156853370462 7.329467398509933 12.176895411503173
Ca 6.534807430331259 7.70543046983383 12.158276024025767
Ca 8.123282885319705 10.983696787733674 6.136366912170581
Ca 11.778574961244054 10.608035102798 6.1549595704468745
Ca 10.208049336010973 7.287826367385712 6.178909416198485
Ca 6.554275109664626 7.661311226769169 6.159370564419377
