11
Energy = -10.76935515 eV
Ca 12.760298782289572 7.8383984279731225 10.717644039830338
Ca 11.508945042352604 10.347956859325238 13.36108014059983
Ca 15.052443752456307 10.273050014241768 12.26621283020105
Ca 14.121075492304636 12.602016545257033 15.22297207922618
Ca 9.354565790156107 8.966384437866168 10.475122223757918
Ca 8.865961542993691 12.488253089923548 11.442381182969685
Ca 14.431600016262816 13.805398418630748 11.741052020185249
Ca 13.490437397081733 16.44884745618929 13.988679766903605
Ca 12.149954971174216 11.56926512881747 9.96839428521171
Ca 10.957635037389355 13.893042086582676 14.054215613063715
Ca 11.35413624201827 15.348992064841669 10.673668649131628
