13
Energy = -13.97617943 eV
Ca 17.42561716411075 14.07178937602073 14.025920885525256
Ca 17.413507631378206 11.686752893153953 10.991887774015517
Ca 14.995435597674339 14.456069933460242 11.279547606843238
Ca 13.794949873127774 14.95547487288611 14.855707346832515
Ca 14.741599246766578 11.547811378672428 13.568211569171108
Ca 13.777548439751728 11.10254295776785 9.955870083972341
Ca 11.696191724960753 13.096241211493941 12.361510653969518
Ca 11.541728319128147 9.49918174132167 12.741377760867346
Ca 11.55155642002072 11.881948055588998 15.766723298853595
Ca 9.822816637964793 15.1002796318268 14.752327688552553
Ca 9.808337844891097 11.246626445805301 9.857123422093705
Ca 8.727403856595165 14.737963701888294 11.07554101220189
Ca 8.546761734270607 11.74931754688346 13.430214046467572
