15
Energy = -16.23087329 eV
Ca 10.484098930265638 16.471263414684483 12.572260425138289
Ca 11.622002883574181 13.816177629279697 15.457454961034754
Ca 8.611138244307535 10.75461527840803 10.562935117620274
Ca 9.377411024202083 10.56202599605821 14.39418652720105
Ca 13.019638206731386 15.21973468292989 10.128529921944429
Ca 17.35402395855966 14.043041925305388 12.841255801316137
Ca 14.067310955651504 15.873433174407715 13.576270870685274
Ca 14.249408305971452 12.350580666587735 12.301684795839247
Ca 13.031634903179746 10.396397819193533 15.27483725059737
Ca 10.896485417068476 12.92513408884483 12.15426222375129
Ca 11.957645929839517 11.750719813995673 8.98540223133966
Ca 11.936004939941053 9.355419030601329 11.94266135582223
Ca 15.34565466976888 13.245810978668171 15.890533210431265
Ca 9.29903599750419 14.478909858228024 9.41699847866035
Ca 16.633787353908435 10.290139568346472 13.990179897905294
