11
Energy = -10.49991458 eV
Ca 14.314316934394917 11.755422478010226 12.423191973574548
Ca 12.784732419504916 12.889010050016267 9.234509356385578
Ca 14.712027878313773 15.296677012432733 12.008735445932361
Ca 12.496391530563281 9.437052052929849 10.568229067089273
Ca 13.165411632117577 8.65826093416947 14.147824364752069
Ca 13.096881628953202 13.350672713400787 15.360060401156403
Ca 10.551438351936898 11.105713943192193 13.650761268058663
Ca 10.449655396443465 9.845777186437875 7.651934523848477
Ca 9.204889761333828 8.368320219942913 11.385074864524965
Ca 9.2768660071846 11.983957606406687 10.360212950861973
Ca 11.185969874771972 14.425850746052296 12.309594847440398
