20
Energy = -24.10058971 eV
Ca 16.78757668120068 12.08769119992025 13.545293452247934
Ca 16.613683502910984 15.183344462361198 11.471048545487628
Ca 14.889757255299598 15.392671391539613 14.819560961124177
Ca 14.693116344920782 12.232184494677611 10.117788111155154
Ca 15.117048257995297 12.454110045696138 17.08600374311176
Ca 15.427922644476409 8.943449789490323 15.712728628796901
Ca 14.907016891908963 9.014804863242643 11.966842677992037
Ca 14.00027575594596 15.872534871726367 8.827304540481505
Ca 13.297104585157962 11.476849992200615 14.097909751993294
Ca 12.11255592503624 10.18517507792661 17.30727861803377
Ca 14.131244378930823 17.990749524307443 11.97564106086109
Ca 12.81002422845752 14.55904801054448 12.049763183678454
Ca 11.98336278997013 8.063807571645794 14.150858343242376
Ca 10.698384003608208 17.12675972038158 10.410398428168241
Ca 11.429318122736316 13.83999477030618 15.985974710901607
Ca 9.510622738925008 10.890085523603753 14.64948606048325
Ca 11.234097996404516 10.696234144719995 11.309623987994843
Ca 10.986659681122019 13.621872423478928 9.037813808290851
Ca 11.201000429918391 17.060893608465655 14.151514480617397
Ca 9.297359569200983 13.998461258422656 12.571598819404647
