28
Energy = -35.41243435 eV
Ca 16.762385514094934 14.20735493025059 10.704853426031113
Ca 18.9180959772818 12.69065309133385 13.770303438348805
Ca 16.057318386929918 10.795763561383405 12.439826967910912
Ca 13.147969408175689 16.03919994190695 10.175222516660238
Ca 13.153812730184127 12.410083458595702 10.892747377081072
Ca 16.00266162314109 17.89552355790597 11.625546342724833
Ca 18.708328255984778 16.41772331531132 13.603907704316683
Ca 16.409502313370417 11.002381363965238 16.152483775076067
Ca 21.21931878099648 14.925257680219287 16.075828927724764
Ca 19.915534616856263 11.746318926209574 17.495280901532702
Ca 15.057502268204107 14.574157163411527 13.83090386104265
Ca 17.577274707147957 14.494201163332308 16.670952756892728
Ca 9.780988070056756 13.898975258351857 9.826390091316243
Ca 15.841591931032625 17.97084182178745 15.464103171999565
Ca 12.710123997865733 18.150030941457125 13.270951997520038
Ca 11.261089864397407 14.718379816234998 13.090313913270043
Ca 16.971588542442394 12.451396934956929 19.708528022061827
Ca 19.720860771022974 14.97675425442526 19.60416093014031
Ca 12.963926959972595 11.541315146821258 14.599941270925802
Ca 19.081498644831136 17.811172364490268 17.20994243957216
Ca 13.823570742968919 13.164278766114283 17.80908458682662
Ca 12.681180369457818 16.26687038378748 16.52258160098514
Ca 9.568547999282432 17.361984193951265 11.204102702909385
Ca 9.713353847156696 11.453786623699791 12.702162544701405
Ca 15.815483843481152 16.29299133486526 19.076532355335505
Ca 7.597901573655996 14.52215208600721 12.952732822105782
Ca 9.328564752948516 17.15545607514846 14.982103122400929
Ca 10.04056336412402 13.463156021364583 16.189699457463234
