23
Energy = -27.98256942 eV
Ca 16.03993620725136 10.132456604751273 8.493252662157799
Ca 14.05651419851414 13.157087752404673 7.846455231392457
Ca 16.7810029959738 13.4965820746336 10.55473582794413
Ca 13.9230378148642 11.252636852793033 11.35417818218372
Ca 14.625125446817714 7.605613623853821 10.815327981014866
Ca 17.2868963411302 9.967581742005677 12.083066226331821
Ca 11.999657479300964 10.091051105197359 8.658478857586806
Ca 15.723772520392194 12.852441413744886 14.17811783595196
Ca 16.105485913763996 16.31610042357308 13.101811727770821
Ca 13.279124110074733 14.984025935897767 10.941078410264394
Ca 14.35811453219972 9.18904951692088 14.401840653586417
Ca 13.948715435897975 11.757872785573515 17.21013589322738
Ca 11.345799740069413 8.472587767942667 12.187956057357281
Ca 14.056356206978212 15.661699242076576 16.493353394956912
Ca 10.931824512417673 10.595523641545368 15.301008002752624
Ca 10.526626763106972 13.939547002542055 8.567200973744447
Ca 12.675940511271492 17.67118480573591 13.483511993854405
Ca 12.067607161334164 13.935446780168862 14.2797332526672
Ca 10.822980735928494 13.617593092038101 17.752568814643272
Ca 10.05270546801063 16.70463368980019 15.818207284072292
Ca 10.285476245218819 12.043166283944805 11.67466059990122
Ca 9.683086473019964 15.79344329336559 11.983356134302586
Ca 8.435974468674091 13.48028562443638 14.763468172207336
