22
Energy = -26.78178475 eV
Ca 11.151898675788223 14.041488360616905 16.32445764945814
Ca 13.042257978943939 15.756057980479673 13.679230642808324
Ca 10.9549649070822 16.15667857324852 10.609176075605296
Ca 16.5956744818774 11.070813521123952 15.037361934160815
Ca 10.465695248415116 12.272663239562528 9.488229876106436
Ca 12.982669192055095 10.397612589112834 16.914833380767973
Ca 9.24269171097006 10.918902681619484 15.718260593899247
Ca 13.487436561507264 13.49028899827006 10.823990940698303
Ca 8.910940732876295 10.025955149837499 12.10938989953726
Ca 13.064828518150309 14.866262004250686 7.60005660215979
Ca 10.932853759648632 7.9611681683949 14.395853163485848
Ca 13.897681878892028 11.156463253355952 8.066538312745728
Ca 9.523926270977077 13.62914915162427 12.960222906651293
Ca 12.520442907342131 11.50000630058371 13.61706976319343
Ca 16.54941304518305 13.770894633366066 8.963088133562627
Ca 14.513028463344874 8.278183220551464 13.894712149400199
Ca 14.7899823125508 16.83398441666877 10.382911443261778
Ca 12.306810030075503 9.028556439785271 10.831550979137955
Ca 9.683825664123757 17.059140762850358 14.264730435843518
Ca 15.820077132995404 10.728545733067175 11.341620229037579
Ca 14.870277798249507 13.973373320769662 16.391342833627927
Ca 16.422416087191344 14.172514089208002 12.901756612972088
