27
Energy = -34.36907705 eV
Ca 19.183304634366618 14.596684343954292 9.275248542634264
Ca 18.530105474908254 15.977715132814707 13.158841564381673
Ca 19.112402751156786 12.12128611816722 12.133967504393118
Ca 16.768552100860155 17.41760893290128 9.95274654915238
Ca 15.625208705578826 14.551220853438025 7.718521403712917
Ca 17.027262976570363 11.315786906966473 9.047490714871593
Ca 14.885156555060961 17.447018147011928 13.251946601405507
Ca 16.218312704400528 14.074882439480957 11.241383512642383
Ca 16.93995977337501 12.928941630365282 15.170818098643798
Ca 16.38565205155247 16.402005786437524 16.395622834576468
Ca 15.500848863672768 10.588877589658143 12.515318025051752
Ca 13.103960548358407 15.99387161901198 10.29810258598508
Ca 13.639750931952063 13.913475716362319 13.763464223322874
Ca 13.258116463011973 12.24321058147865 9.996942666740715
Ca 14.21683224746047 13.702540585847043 17.803213123964742
Ca 12.50348721266839 16.60217458790599 16.171931349020927
Ca 13.946359464362853 10.425755117766176 15.967458623309541
Ca 11.00096196987026 17.5186158011189 12.989285166491722
Ca 11.674594008980078 10.515452407684077 12.975796955140197
Ca 11.055834766896744 12.726315938030979 15.981939335992402
Ca 11.63541776197995 11.146334826302642 19.17068053334014
Ca 10.59692578459928 14.801192847292407 18.92069398264229
Ca 10.324953457486608 13.97264893337853 12.073559818812422
Ca 8.81770293761625 15.440575957057417 15.467525642309747
Ca 10.14613081400121 9.238491744590357 16.27913403829745
Ca 8.109569043944322 11.685002672664979 14.184131512324385
Ca 8.092912506414953 12.15208321937313 17.93927203744366
