28
Energy = -35.15895682 eV
Ca 13.684495868891322 16.500078074807863 10.039157222666253
Ca 14.939091574284149 13.186750390732596 8.83332448700128
Ca 10.364701545870833 16.81092044253984 11.735062232726348
Ca 17.573398549583736 11.635448849904282 10.866702235674289
Ca 12.564512828770553 19.789962759750296 11.804166281451904
Ca 17.275300545987434 15.539860624594546 11.143037395288756
Ca 16.27322664482012 19.166368653370633 11.471982239122408
Ca 14.181851134689214 16.96380415240271 13.541918849310012
Ca 11.537811761131799 13.331074915333565 10.572732363907837
Ca 14.759537874783438 13.360890837480257 12.528581087855365
Ca 11.386356288879078 18.233325962336327 15.250018526154507
Ca 15.029030003064134 14.393677391636801 16.20771294584636
Ca 14.81554544329954 20.385701104882774 14.711704424146069
Ca 14.584599929216658 17.84710291560284 17.319435529321733
Ca 18.110037145581742 13.369852332831881 14.240327132493396
Ca 17.489789335009622 17.273308737024625 14.707680939124721
Ca 16.894625532942797 11.435042321201397 17.345103741536875
Ca 11.823010620002146 15.356217445049369 17.860622890189024
Ca 16.403383257737367 9.891641584740794 13.96781262199006
Ca 11.540708136081244 14.395089826329484 14.249045178661964
Ca 13.338568370352927 11.179458310725101 15.24425603890803
Ca 13.23779440485663 11.799915833480512 18.68960408727837
Ca 13.797876142089573 10.197281310119156 11.103904665810436
Ca 14.755811238208313 8.418321791681933 17.213394527349532
Ca 9.94823882600366 12.293297672963757 16.77760345725122
Ca 13.06778077363842 7.754822807042058 13.888500785793966
Ca 10.491074778431846 10.608652046870866 13.242331406894436
Ca 11.065860439569706 8.820066754578532 16.890069080702915
