20
Energy = -24.07391234 eV
Ca 14.709297354413216 14.336560135854624 8.696059133424447
Ca 11.150192490883024 13.838742558579284 10.09810548990257
Ca 13.937743695448031 11.288975319191502 11.126432862819401
Ca 12.674383691821172 17.393616299599785 10.032946268862098
Ca 13.86087328025042 18.23983503357715 13.65725950557819
Ca 13.900522848921836 14.861069897395796 12.158575508055584
Ca 10.593649440728678 16.104094995739498 13.123202560276859
Ca 17.202310490011985 13.271178740744249 11.564267795787117
Ca 11.304885655879913 12.412480383029793 13.707177211408723
Ca 18.69855448221744 12.624314274668606 15.046588760274805
Ca 16.962655311293556 9.680047135249294 13.079960793753111
Ca 15.128353039249978 17.686154735433743 17.41281138725532
Ca 16.757654951605392 15.852277228405379 14.436141693709814
Ca 13.1560644149146 15.19729838596078 15.695270365144497
Ca 15.105129530657074 12.352479630397376 14.487384421487487
Ca 9.794002873355913 14.29532242305465 16.67732749941947
Ca 12.646441006392449 11.835436455495694 17.239433457857675
Ca 13.284047356349992 9.205737205993163 14.374618759760615
Ca 16.004362625661095 13.953227890554828 17.68408388320065
Ca 12.688328348336684 15.130604159467426 19.26180553041432
