26
Energy = -33.67978326 eV
Ca 10.514111398991968 14.642781949116838 17.21722767149957
Ca 11.348262208030508 11.144509687885078 18.900709698625636
Ca 9.52616735151678 14.067990473433873 13.59980424692831
Ca 8.476195865782527 11.488894591482076 16.286722801083148
Ca 14.356677664014246 13.404616339091966 17.702895813320154
Ca 13.093449581065265 15.082088387875517 14.614081970143786
Ca 10.613371985614918 17.678608430960633 14.504703702048033
Ca 9.768357093546085 10.23242266655048 12.762761089276193
Ca 11.970172643038778 11.686680972679472 15.477310566777081
Ca 10.84277966624436 8.378584374503436 16.100048694701005
Ca 9.810459668061025 12.904704448632467 9.840684937879166
Ca 14.375966568147286 9.5060191913455 17.070246743770564
Ca 12.597886723564033 12.481574047704461 12.020983477783789
Ca 11.739524412127743 16.08418797977149 11.158378340932229
Ca 12.207350995177542 9.97262583593636 9.594384323499272
Ca 13.473860473677327 9.072634580187168 13.239433601510102
Ca 14.363288788930975 18.136949269918325 12.982526047625644
Ca 15.690040559774939 11.990206310968237 14.417284550794728
Ca 15.360583110520258 14.771286143649125 11.731241616037297
Ca 16.772745588701312 15.590189585603984 15.037972334514665
Ca 14.863725339047397 17.309088460382622 9.237346370072764
Ca 13.50236502221777 13.638640269620643 8.63012198746869
Ca 15.813906781010903 11.205811096253289 10.645742255229242
Ca 17.95332652156747 17.145372627856627 11.602325669887477
Ca 18.64139731926552 13.381827708205867 12.344822745319123
Ca 17.391489146664274 14.347114366196276 8.84945449021554
