5
Energy = -3.23362344 eV
Ca 12.940261331203025 11.811864352185408 11.087008690219005
Ca 10.733493628671607 8.84463067994383 11.364839238290749
Ca 9.657292838363915 12.132240930066729 12.69515536138424
Ca 9.860270319907238 11.502471151781858 9.046713888497413
Ca 8.918829073203272 7.904450807741706 8.1231908435817
