5
Energy = -3.60746237 eV
Ca 12.030315463727495 10.130608017757183 13.176663257055816
Ca 12.095647294138326 9.596308338631923 9.472930832435573
Ca 10.535476683565328 12.59794160010711 10.81422540412872
Ca 8.93437589503845 9.353082406469971 11.258331711974803
Ca 8.998335569973834 10.913852014716301 7.870736861330792
