6
Energy = -4.19676445 eV
Ca 6.740862864084003 10.33594171218285 8.387624038287429
Ca 7.289420740081952 7.295286175631741 6.272527860180031
Ca 6.8322952297700805 6.920855792822537 9.925209412268764
Ca 9.968387067663894 9.879820779560738 6.87547509733035
Ca 10.059821844086448 6.464745310352997 8.413066323822282
Ca 9.511249356844711 9.505387537043493 10.528134370642716
