6
Energy = -4.6085103 eV
Ca 9.25946645447933 12.40130101917281 9.196763173564099
Ca 11.252609811339934 9.679156774695903 7.534263948065377
Ca 10.122917950142613 12.533891259042653 12.971799649305257
Ca 10.065437932003958 9.312817574218913 11.110534318412824
Ca 12.680807390794545 9.900004038385761 13.784125432229065
Ca 12.690961440207285 11.6530741716378 10.427219992631175
