6
Energy = -4.6067373 eV
Ca 10.47131145611478 8.755803091110163 8.172093749694533
Ca 12.231996241632318 12.060223932318545 13.168719103287936
Ca 13.148420099827488 9.200579650653477 10.756857389828848
Ca 8.9245355178921 13.55693930340108 12.253610618571328
Ca 11.259726842976143 12.194168908125587 9.571057245491762
Ca 9.59395338175465 9.8603179066043 11.70583308710516
