7
Energy = -6.24320725 eV
Ca 9.550517664085413 12.224990061684558 8.737767902380963
Ca 10.721353477291443 14.45682981882168 11.61199551818741
Ca 12.846274781888226 11.691256227208822 10.348398863764874
Ca 10.881333067215046 8.695012678134885 9.362609886896232
Ca 12.807972301255745 12.318130543165369 13.999356542190538
Ca 9.911879057344542 10.889528235986106 12.186918302093755
Ca 12.914757315377367 8.75371835552429 12.60302737865098
