8
Energy = -6.83001212 eV
Ca 9.381931054969371 13.649905601363741 14.498003753866673
Ca 12.01935125163899 12.5013361112267 8.792870566014678
Ca 10.487861692654882 10.107717130695583 14.355111194654143
Ca 12.094289359322229 9.47218887788232 10.810522990685532
Ca 12.520447108510766 12.702284430243177 12.614919250542368
Ca 9.15634110890922 11.710142415998504 11.26125159801032
Ca 9.492147488733067 9.826566793993395 8.032770980560896
Ca 15.287097562864577 11.524179849696687 10.372760937102832
