8
Energy = -6.996309 eV
Ca 13.98042083925692 11.448893683131772 14.318828803577066
Ca 14.024417385907125 10.932448873470586 10.74317402855379
Ca 11.676316807228128 8.974302342517273 13.120175671688711
Ca 10.703920842886172 9.631251953090475 9.560652981419132
Ca 11.785817520006477 12.934146476021619 8.323043408651445
Ca 10.902436470911434 12.375151653419298 11.956828896285744
Ca 8.074719620091471 9.907451658337825 12.167860331589472
Ca 8.2337534778183 12.160858683969149 9.177538671127662
