8
Energy = -6.77871725 eV
Ca 12.950002810096938 10.740700658914808 9.003163170899454
Ca 13.495745698743638 9.036948010060408 12.327484434658622
Ca 12.561004444416602 14.427865783686915 8.68057771292373
Ca 10.048356430062169 8.726346781825967 10.789663347795665
Ca 7.129820938602259 10.663473114411062 12.053701599007193
Ca 10.453456598097556 10.781670831564693 13.72535557402699
Ca 9.856420000797291 12.540918654732337 10.374801337661827
Ca 13.357211921878488 12.809311439925818 11.9374064013076
