9
Energy = -8.23826122 eV
Ca 8.136444784003011 9.577882174211235 10.691091053116466
Ca 14.656229992765336 9.339266981357168 11.774670745253578
Ca 9.186086295630357 12.517406792601165 13.259440081535487
Ca 11.159559493984407 9.403149586205926 12.687536990511479
Ca 12.94833641222549 12.378353957259286 13.56904136736308
Ca 11.491181890573081 15.179727949973117 11.65680089989313
Ca 10.090164236316728 12.47095233483772 9.711347421971068
Ca 11.839652311838163 9.217391166505589 9.104853069996095
Ca 13.66249342304901 12.394862786422008 9.96498853317517
