9
Energy = -8.25789868 eV
Ca 9.74125439725509 12.684146316171711 8.861680476883809
Ca 13.20164777209866 12.057537368087724 10.388655830190494
Ca 10.434743109905543 9.666852878738371 10.88640041309005
Ca 13.53933820578608 8.33338765633042 12.011235592936897
Ca 11.564692368576655 15.510800581045622 10.142218473793601
Ca 10.49837828106738 9.266860233623717 14.43142889929895
Ca 10.381569161325455 12.90676940924815 12.646401354228262
Ca 13.685221784487988 14.846727920728103 12.978416201958055
Ca 13.406706584372944 11.294176031446733 13.996629944394117
