9
Energy = -8.09115496 eV
Ca 12.435382671693999 11.262258440596252 14.194204803198065
Ca 14.338260258082178 13.427642760782307 11.907297551604364
Ca 15.330258305379552 9.726472337400166 12.719731969762794
Ca 10.902814921964959 14.518522094197266 13.180387890648637
Ca 7.992015855353069 14.377805800556239 10.90038514174681
Ca 11.844511046979818 8.030687726417678 12.597178718480967
Ca 9.738667794416072 11.21720324554733 11.73397631245924
Ca 12.949347297791865 10.508122166444306 10.149849340216946
Ca 11.377388487031439 13.83792659407171 9.52827634363154
