41
Energy = -88.01614534 eV
Ag 16.288067789001524 10.77095599504447 11.28609962036648
Ag 14.617674868128926 8.037228880652075 14.510604340210401
Ag 14.687446890863232 10.728513929956314 13.655170778890957
Ag 14.477930831856591 8.602509331955543 11.81913590316057
Ag 15.688142722607713 12.646122616885057 9.303567191859836
Ag 14.220709888905393 12.665022308732212 11.721378388489772
Ag 14.126559505781756 10.277164022745122 9.597132341902231
Ag 12.281310557633498 7.001766095819841 15.524030390741563
Ag 12.404570636213228 9.736419638619722 14.836065670985379
Ag 12.391667937112675 12.433239347690966 13.920363031356931
Ag 11.79603199055333 7.7369295830567255 12.854000429070446
Ag 14.986111537813631 14.452089391894258 7.329168382726572
Ag 12.186766748002947 10.438639427924045 11.868462855039137
Ag 12.41066191183152 8.047414934728442 10.08529836206988
Ag 13.63959217049729 12.030397991599921 7.355868136478183
Ag 13.852670393629081 14.772700094182538 9.87230740770033
Ag 11.970464378444996 14.376634034199311 11.974814783439713
Ag 12.039073605838826 12.336651362909128 9.723901508756938
Ag 12.216739404788697 9.645995469478647 7.642629069039073
Ag 9.914502165262942 8.370236692005358 15.091440787644695
Ag 10.039793971080016 11.23070468812026 14.813577240794803
Ag 10.556230486683354 7.416365002579188 8.143636164368761
Ag 10.221673539180973 10.039459028798712 9.742294772945808
Ag 9.958235723372491 12.203065686858926 11.663170116542403
Ag 9.979035394111209 13.907219290444136 13.979842932344736
Ag 12.131262499426363 14.428165019306507 7.642254407948332
Ag 9.755233700235685 7.3882923218642915 10.82990914972255
Ag 11.318442024116912 15.990847371289464 9.790907726068035
Ag 9.469809461493059 9.510155652013239 12.610760732742996
Ag 7.6774246509911555 9.961255253999209 15.496079444917351
Ag 9.525151032022999 9.638033684201396 6.7692432443039605
Ag 7.9993180932033585 8.536331421553658 8.83386084967596
Ag 10.73547071566318 12.053368456245448 7.169565361935684
Ag 9.630169287734425 13.829037331559936 9.051470412657658
Ag 7.445000471332802 10.28638513494112 10.82543169855731
Ag 7.584118805263487 11.60894328988929 13.211810240140201
Ag 9.267717470857427 15.13656847289378 11.526707151358178
Ag 7.907966616327917 12.868436106887264 15.643172224563036
Ag 8.138067597336665 11.504525144456 8.394772544205738
Ag 7.42146179167408 13.10585886549677 10.724893563643546
Ag 7.25214370128241 14.370357275879343 13.314491564580054
