48
Energy = -152.66306057 eV
Al 7.5602616201088955 11.10891785818072 7.948303104851457
Al 7.204223407560507 11.12578966677869 10.591081934114506
Al 9.069821430767078 12.83007643487569 9.460139714519688
Al 7.08837694002508 8.580266680441817 8.759283615487895
Al 10.09509055792198 11.453914108894132 7.06614225568366
Al 8.913580093853406 8.857050531759116 6.80032799879267
Al 11.05195070152617 13.806871666752865 7.866156972899693
Al 9.276342107290322 15.363283970062911 10.555855340412277
Al 9.523134480164158 9.941503695505979 9.638435044887371
Al 7.964549966610511 13.307500304478447 12.04452472316368
Al 11.802941217862372 16.19459081064445 9.015243496032568
Al 7.7962079969305424 8.465364209404793 11.336682763074403
Al 13.000852792580114 11.646448846938458 7.1092230133163445
Al 11.65134026634585 11.588169906861934 9.489615444581137
Al 9.468211521529966 7.243723952496597 9.137668070842633
Al 11.418974986072792 16.672865021487066 11.659753457126715
Al 11.51955136861067 9.168371287840966 7.776899194698891
Al 13.598538162077867 13.990932831899128 8.558713276577663
Al 10.397031604454522 14.512958261734683 12.957280591714605
Al 7.92262843219444 10.575331870000017 13.070244799569037
Al 11.70478660632058 14.017595387279199 10.663932572238657
Al 9.079984998088884 12.680264362066783 14.46006692266996
Al 10.188141213865098 11.844662824787756 11.797628192181742
Al 10.231107322480796 9.166062068341883 12.367121336113469
Al 13.97704885048252 15.664249216287088 10.690350389866696
Al 9.911127054795914 6.486832683445139 11.791307060415232
Al 13.152102381103845 15.445243335608252 13.36798153915951
Al 10.389952740797442 11.991109912773938 16.77759526745061
Al 11.314236386205506 10.99202814460952 14.19846611303715
Al 12.58492588114681 10.329019762893402 11.747006528133674
Al 8.489375948908696 7.8655877952417095 13.897545339036375
Al 12.777694823086774 12.8242160999712 12.845798513877034
Al 14.115983764117804 12.299499927229078 10.631957390008923
Al 11.78196733810801 13.735582211143234 15.201720645817948
Al 15.482874281345396 11.8473691886765 8.3734398792975
Al 11.728463642528231 8.19031074716654 10.308012938972148
Al 8.997224688899024 10.091630994773341 15.499493057301823
Al 13.699912451438166 9.788768977749733 9.25661734067816
Al 15.324047927751671 13.91396925340951 12.561817170523922
Al 12.255881541323275 7.190203605507854 12.815376392455292
Al 16.04155354606533 14.05738738247554 9.852616885474706
Al 12.262342522006124 10.011796084088713 16.578683564324965
Al 13.88215715615081 11.802671604539695 15.245755009040913
Al 13.549750684984746 9.194907301709339 14.213820496633065
Al 11.050607286465123 8.22037637921026 14.939241354466091
Al 14.429603256531946 8.41034795813858 11.638662160861777
Al 15.08408033627808 11.10110358972667 12.851588580026629
Al 16.051381198362893 10.215731627586528 10.488797839284885
