48
Energy = -152.99837998 eV
Al 14.3186799029106 8.195098867153419 10.990779513431836
Al 14.460255904414387 9.86264631299856 8.781396111708402
Al 16.441442868762405 11.667220461009343 9.054894990669588
Al 14.240516955102727 6.393360674556128 13.1670920729317
Al 12.233376787330164 10.683078094700013 7.568977191487775
Al 15.321608722784955 10.696191936005693 11.362719455113247
Al 14.274484162040672 12.814357994782814 7.952251024519097
Al 12.03363405504828 9.185096077063712 9.916184216811478
Al 15.216960123154827 8.937117506065167 13.449902914351847
Al 11.944784024818228 7.374651991233636 11.972039770717092
Al 9.799355938808853 9.906783129757763 8.620842325992
Al 11.62653605621011 13.287345045221661 8.09818031078801
Al 17.519636659322863 12.312228998860336 11.422600057446953
Al 15.203329832431555 13.543219814658233 10.598427907508409
Al 9.678059877879626 8.204776331582323 10.788449620582059
Al 12.968972628130505 11.828234312695228 10.22441972638484
Al 16.42574216842036 11.380910605243878 13.718897676095118
Al 13.773378483329056 12.759806699766852 12.855838847352052
Al 12.613913149089294 10.291886115854645 12.499246560970217
Al 12.702201946173437 8.288211799418885 14.470275061672329
Al 7.179568912450861 8.645401673886346 10.061705963836227
Al 13.181286995392345 14.993051036306241 9.40102050601812
Al 10.360765352201886 11.139662737578274 10.925638267032403
Al 13.942289615235744 10.74918183295073 14.946715375845951
Al 16.141742416658296 14.19783866681217 13.091064681427723
Al 15.324022557992503 13.007584547091085 15.508112416694331
Al 7.692271270378721 11.200064871944678 9.714842263292871
Al 14.10005691709712 15.58312424584318 11.955467042269131
Al 11.666576031134872 14.530903775943345 13.16871182269125
Al 11.220729859572817 13.702345536623575 10.819251525536027
Al 10.496499831893443 15.698670866523969 8.858955317327494
Al 13.837184216294224 15.050419951856973 14.775121508235767
Al 7.978271997837849 10.132494047677561 12.330197035841785
Al 10.259218829497403 9.015850056035699 13.33227326529237
Al 10.187747763374578 11.788230837969325 13.439574701758442
Al 11.254936968749977 10.27912167545928 15.599784020823938
Al 12.271750755949006 12.806806341344702 15.205158077287745
Al 9.143491126315043 13.283037033799738 9.13810601649658
Al 11.706970894252375 16.60565354519241 11.133115848235576
Al 12.753871404802268 17.227885508044405 13.637969189808194
Al 8.222649454743037 12.901222171805768 11.761526765411933
Al 10.893881429761473 15.102018308199415 15.754384415187648
Al 7.330201161083818 12.167235545486358 14.200703718397447
Al 9.153838330781754 15.396787842955199 11.31515324424969
Al 9.612396170903008 12.46538458130841 16.009493502019918
Al 8.576930144800414 10.002511916221724 15.108643571652959
Al 8.929092562834839 14.286898515727819 13.976993332113796
Al 10.045369118839483 16.68887189777422 13.577383585672033
