48
Energy = -153.65520211 eV
Al 12.594798107669492 9.954945689367113 16.424383380017048
Al 14.037970748703202 8.40959758938264 14.697214430785438
Al 9.788078970790279 10.258028083257615 15.947270824188346
Al 7.043201743164254 10.654480800529962 13.993048502277476
Al 8.62222381344973 8.529554491986243 14.24125552505828
Al 11.38734391896003 8.785537085914646 14.338109387108556
Al 12.895745385122998 7.609137535562875 12.38787231594282
Al 10.151140482268298 7.782887222543461 12.221136246947509
Al 14.323918092467252 11.762454562877226 15.184509090182774
Al 11.59416053930946 11.961434583998738 14.803603923150368
Al 8.86375505958677 12.516271934152122 14.66954166328155
Al 15.30829026673062 9.032536017440377 12.226248410553676
Al 7.959259406720385 12.27224515716797 11.90158102102742
Al 7.9202002180696836 9.461540768025593 11.685640662729003
Al 14.24487684984152 14.488291662372017 15.419312594035185
Al 11.608269694968909 14.714105747264073 14.97647118391546
Al 9.277209507960427 8.122863689002656 9.697665111488499
Al 10.129830110485077 10.645647015003025 12.809631414257467
Al 14.160184028383076 8.095659760512147 9.92052997636253
Al 11.611222097360034 6.688735286521583 10.228640028464953
Al 11.780916607260139 9.406835572738562 10.381153040408039
Al 16.249845042228422 9.89506453340902 14.622135844492947
Al 8.989044128787759 15.134721095756003 14.510780110199724
Al 13.006423642231745 10.470893940759352 12.866932109227946
Al 12.520244601878113 7.420062991599385 7.805648759463807
Al 9.507278604458293 10.84909028031108 10.016830417518516
Al 10.50591665733039 13.411704846739795 12.62291350998642
Al 15.735903356234573 14.392959726012707 13.117348474501199
Al 15.693634013527815 11.760877231471135 12.699276031189969
Al 8.248326065040944 14.962667586613529 11.8810531991184
Al 10.559545185861541 9.304295874283047 7.752138125504222
Al 13.229272580267105 13.204565307377075 13.025868443793472
Al 14.370711886714345 10.815497373432859 10.40858704579186
Al 11.986634994069117 12.047553459590642 10.638882096085938
Al 9.6494408447923 13.470448367177477 9.969199922677948
Al 13.221274357868449 10.040799078186131 8.084044953422193
Al 10.732409488917867 16.147204784164746 12.749693613155644
Al 13.380778795348705 15.959989131081345 13.325073707148201
Al 14.819899434607338 13.410312552700905 10.67058579041213
Al 12.341328261070672 14.771198114495045 10.701133430763205
Al 13.592586330127798 12.635439546497762 8.400381430613358
Al 10.001653062445586 16.115738141344952 10.056738676410554
Al 10.974005701513024 11.91921526157889 7.969352564741888
Al 11.331752631508285 14.523146124021762 8.12949435039656
Al 12.429093815633069 17.410347128076655 11.175853623466148
Al 14.150926034870384 15.196982342862848 8.577434164670526
Al 12.113899144972466 17.028908789679512 8.529217838211197
Al 14.838251172124727 16.030201618858285 11.021258518553175
