6
Energy = -12.78307069 eV
Al 8.803807 11.148732330241916 8.594120973806778
Al 11.03382083605088 9.5283999391922 8.594097373428975
Al 10.182131429681993 6.906732358002966 8.594116205849605
Al 8.803807 8.80384507536776 9.852293867635447
Al 7.425482570318009 6.906732358002966 8.594116205849605
Al 6.573793163949122 9.5283999391922 8.594097373428975
