6
Energy = -12.27935652 eV
Al 11.803541199277236 12.116474249321143 13.843538606897527
Al 11.053104871914481 13.6046119307715 11.872523380262736
Al 10.708434190548186 10.694725430153529 12.034733190936816
Al 10.90212762726241 12.124167499799013 9.796169498541236
Al 10.645965392776992 9.587087327474432 9.708407748358837
Al 10.342520550880637 7.4196089165673955 8.109704608919474
