49
Energy = -106.89164840 eV
Ag 8.613599210379153 12.940809296324305 8.539172268541396
Ag 9.314791012237297 15.637034031972208 9.776907571971691
Ag 7.209608990931283 13.90003356392546 10.77181531526764
Ag 6.487115114769028 11.423516088397728 9.60658771594061
Ag 10.910612200405131 13.9447125501079 7.312205498395377
Ag 7.858769475238244 10.811194020528102 6.904665170602521
Ag 10.765096495257865 11.085543793729075 7.4751770846939225
Ag 6.685739512750749 8.72192581393066 8.533137651605756
Ag 10.897764579630765 13.511860991891455 10.065769975632703
Ag 9.39777217782772 14.546340184504395 12.409294568331887
Ag 6.976704827479457 9.229850288460032 11.307269213980838
Ag 9.000521408732041 11.747202147610167 11.53812472777248
Ag 12.647865670638051 15.384803234458616 8.970979558963288
Ag 8.968357161192486 10.044143956892292 9.348817166515714
Ag 9.296123614905285 8.349714079118991 7.23704784915428
Ag 13.160973095232213 12.50005987518792 8.383932441132991
Ag 11.49606870779583 10.864481498881442 10.193989564988982
Ag 15.3017213174122 14.366072845500323 8.895667418006157
Ag 9.31474635551362 12.476812114245604 14.329914888836328
Ag 8.742252278482285 7.230701168063735 9.870308988433004
Ag 14.550539324839553 16.260127030845734 10.880372028206493
Ag 11.528533395907033 12.473056280777204 12.589894973656312
Ag 6.466688044218473 11.735753727455805 12.533144936608045
Ag 11.804403266720016 15.727236912316242 11.714478622426261
Ag 13.633376159355828 13.562894961920216 11.08472815958776
Ag 14.069180921475771 15.252658589036916 13.429238617415836
Ag 11.314519657222183 8.232323845774948 9.270758994765236
Ag 8.210126242981874 9.863346067937675 13.733062714736837
Ag 10.160519182256518 9.070487747035168 11.867499667847634
Ag 13.814154876470749 9.802243097439082 9.068905147709085
Ag 11.46839398043327 14.645201898963355 14.393607786839715
Ag 11.08922455421591 10.238685928376341 14.305265621617291
Ag 16.31211057782768 14.14454502611656 11.640040942865031
Ag 8.078944610263935 7.03527777774255 12.54944740674026
Ag 11.674492120250328 12.355190466177875 16.037224062557968
Ag 15.72398638863659 11.842116036337655 9.951331372768145
Ag 13.813278489019586 12.2964780706504 14.162996808124044
Ag 13.218815589200275 8.114815781682227 11.322631235552983
Ag 13.72116398127869 10.8335206188441 11.81620836978539
Ag 10.924229187999858 6.481673596679517 11.771249232559722
Ag 9.967557199097483 7.673189449450013 14.405384612241528
Ag 16.212494669185528 13.817010224538746 14.470552648337033
Ag 13.833707629760275 14.262165639259841 16.07004059406333
Ag 12.6361953694956 7.890345381698072 13.999701394448438
Ag 13.33228798940858 10.013649205220794 15.931088436944352
Ag 15.873141095591391 9.248506846800204 11.078084298459693
Ag 16.373442876743177 11.56002634218603 12.762393900425725
Ag 15.87972731199455 11.285323424010192 15.639656885233336
Ag 14.984962971004983 9.312352748190078 13.768971797480363
