45
Energy = -96.97391673 eV
Ag 13.477124093479949 12.45187267058539 5.951451764210003
Ag 14.554446098338037 13.951979339017777 8.040986698454835
Ag 11.835423572042805 12.915439832631462 8.12550116743479
Ag 11.9022739088546 10.3272671707329 7.0429052889357875
Ag 14.260411720452094 11.153400109756682 8.315461181887379
Ag 12.576777760410714 15.185686187320888 9.618227503778677
Ag 16.758825741875032 14.029519757142666 12.19354708080021
Ag 15.226748921545854 15.500815972719383 10.360110329067094
Ag 11.876978022381271 10.628723418683913 9.870733491420077
Ag 9.894477148358037 14.766274684251412 9.09710265955963
Ag 13.165784152939644 17.284106151344826 11.360913427253198
Ag 17.071795566016448 15.269139592546841 14.744294200856286
Ag 14.742823911794531 12.729671964367206 10.614186153030047
Ag 14.549264342882335 9.916742351960643 10.787180785245686
Ag 16.106120377107562 11.156185975696213 12.648621902463493
Ag 11.109997049963782 13.04026627242546 10.856546521263287
Ag 10.68495507754097 15.706142506647225 11.78258320694982
Ag 13.200759227276503 8.472126770993961 8.817719639882027
Ag 12.360028292905575 16.84585889920612 13.970813483759109
Ag 14.937477558783975 13.168068200294229 14.124397893083625
Ag 15.300567486682583 16.499143611636992 12.975643627553694
Ag 10.409774857464457 10.581694854474689 12.297310168152537
Ag 12.31969288741085 8.458015187401699 11.566554569118901
Ag 16.271221522697363 16.34531654733116 17.264332689825387
Ag 13.21811862191177 14.555197953357526 12.44016377339624
Ag 14.295818295795064 15.540143686718126 15.43875790740247
Ag 10.114168260316942 13.260046594266841 13.370071253649611
Ag 16.035017711298018 13.567891676883518 16.763285703861587
Ag 12.945556363074402 11.70433006718134 12.60984760740623
Ag 17.620761645263798 12.484746473518399 14.564893957355526
Ag 13.692938773873271 17.61811737461635 17.165624612901567
Ag 9.797830607869107 15.792600832248812 14.438430249182753
Ag 15.512545723427412 10.861179453205079 15.59162255029289
Ag 14.161692830880412 9.294202208130583 13.623218474357847
Ag 11.619635198955113 15.818167871726008 16.512116288565235
Ag 10.369712617723712 11.043449708146067 15.028587553164895
Ag 11.40776389909599 8.610702024325297 14.173394609432847
Ag 13.701053707217051 12.293211209194174 17.498501149567907
Ag 12.385461657087316 13.246155512473678 15.118986053910811
Ag 14.01482282787052 14.986931550621382 18.235586074777757
Ag 9.82933728687809 13.593525796423593 16.240243758032314
Ag 12.886016917743532 10.088981000882912 15.985681991268223
Ag 11.879569384940147 16.601233375979614 19.13878756824071
Ag 11.456433799346259 13.91199224235098 18.585624797888645
Ag 11.094946082487864 11.376686870840489 17.682400143618896
