48
Energy = -103.96912608 eV
Ag 15.70298871229101 11.72910655491124 6.766626844357892
Ag 15.034253127020005 10.302787035584362 9.066737513144233
Ag 13.053134799748332 10.61836933913159 7.089195885324424
Ag 16.06112323720048 12.89341682586775 9.302144462974507
Ag 12.583718024634882 8.77183667824785 9.153424306685245
Ag 13.705674393610082 13.30505603249061 7.692241778278995
Ag 14.495730224227422 8.736300782904294 11.321073537977359
Ag 10.431458566950857 9.738218369884125 7.589241203426671
Ag 12.512727790641126 6.553509114819323 11.017471430508417
Ag 15.63487506761698 11.37200182146548 11.735784140545155
Ag 12.916704528490612 11.381399664500783 10.601062113871352
Ag 11.15840598588103 12.35816614741487 8.370048723988399
Ag 10.027936777045838 7.653592596827376 10.078702199405019
Ag 13.8512520927959 14.431779947445014 10.243289630852653
Ag 15.836661494526794 9.270802255145655 13.875698332684683
Ag 11.67989125942394 9.028632571296704 11.834983144751916
Ag 8.369680644402433 11.87477114914577 8.576590594654457
Ag 13.291965586877275 7.637732525560607 13.71696948983243
Ag 11.752920086441398 15.088368454162513 8.490070064117972
Ag 13.475577445492132 10.478579244262356 13.376674821420073
Ag 10.01303144750947 10.582017753938574 10.265358323458987
Ag 8.02267546228415 9.008493343743174 8.739521455432977
Ag 16.177077362145905 14.178078465987804 11.733990883294018
Ag 10.47480515124903 6.9247494998316315 13.059611764916614
Ag 7.154128080992425 10.516823296982649 10.847740696804902
Ag 11.220797517638173 13.710277282222656 10.928457797269154
Ag 13.73836943768715 9.486871024536825 15.936655863812394
Ag 13.60349972314122 13.274358465994581 12.884428066161929
Ag 11.918208631698759 16.50491559293494 10.885618808856952
Ag 8.665500437721793 12.78819550356128 11.630422978121743
Ag 11.117392270038037 9.26335460452722 14.675600795322767
Ag 14.158351204657338 16.120422510057917 12.505806200555822
Ag 11.026826042867977 11.623159902437054 12.765266047772359
Ag 15.729248472761475 14.70503775166339 14.38875233611587
Ag 15.10154832418082 11.93514114771793 15.019958898190206
Ag 8.985746296223157 9.498685052960488 12.749338897686345
Ag 9.50833091473141 15.535053656320471 12.194411592171205
Ag 6.926460241873744 11.49484704986017 13.432568896596033
Ag 12.047713976824742 11.802470741620365 15.532224502237495
Ag 11.10604459422714 14.148275364530672 14.00380992533097
Ag 11.704974381540016 17.05140761728638 13.596718773552695
Ag 9.275199131559534 11.452694220800758 14.986206732851874
Ag 8.08403516103451 13.861015695871798 14.248786902046996
Ag 14.06354589982627 16.81793327666383 15.176994570744952
Ag 13.500560063363816 14.103850153338238 15.888959808858667
Ag 9.93463882764525 13.775022293055416 16.466503802084343
Ag 9.259805495746258 16.24896647797725 14.90296339522153
Ag 11.63520226598379 16.017719009305704 16.2542894705338
