10
Energy = -17.77372606 eV
Ag 8.986469623272582 8.217656362504009 7.528273701041167
Ag 6.346351720660334 6.383736616458781 10.159429523804535
Ag 10.65720903021575 10.471921423144481 7.226231763724872
Ag 9.036188251645429 10.424470820172724 9.601806148050532
Ag 7.634054797949875 10.710019347669279 7.33084592527859
Ag 6.722873227274085 8.864875621918593 9.2058864275996
Ag 11.209740916378726 8.473546695682467 9.094154953323448
Ag 11.674981731065378 11.267902627322401 9.650484586272091
Ag 8.885766354734134 7.437978588787383 10.239493887538202
Ag 10.493277523171598 9.394805072707905 11.610306259735248
