33
Energy = -68.99927472 eV
Ag 11.324974413559996 9.297721751698628 6.970468272315412
Ag 13.639625577928602 8.741614911204794 9.067805609106795
Ag 12.988821134602349 11.242948956630029 7.911177951761019
Ag 14.861083086964916 11.611610246510427 10.031009559748615
Ag 15.6369301692453 9.098859107409305 11.013842654794583
Ag 13.942361218467916 13.748320081132077 8.473939454809527
Ag 9.965653786881978 11.707914946365332 7.943002504607464
Ag 11.070993912612758 7.222327323583354 8.78737414928669
Ag 8.774334469059816 9.064535581673733 8.255707869769475
Ag 12.11535569779931 7.597553273105689 11.362793186908542
Ag 14.182560267605899 8.060594807792048 13.193804512509443
Ag 11.16868776624797 9.853125805518072 9.750224091401934
Ag 13.199937278195613 10.161694823834173 11.67276571858424
Ag 14.495633533406043 12.121583002972077 13.226705693126219
Ag 11.694141120145222 12.6824639089251 9.94057314865974
Ag 13.820032472645128 13.985715517658424 11.197324364053943
Ag 9.241452509931277 7.992324056048751 10.852977553398159
Ag 8.705445625640754 10.91045190118587 10.433557661019107
Ag 7.319252541073892 12.538305404077237 8.345039209855521
Ag 13.17718136510178 14.734339233661428 13.723785761874934
Ag 6.233519788406575 10.147566038844047 8.965497780218117
Ag 10.549009556262405 9.672295840699677 12.63873108029152
Ag 11.741427079338873 12.34758092806793 12.761543808900885
Ag 9.113563441404894 13.753543309799438 9.992700052110196
Ag 12.68618005018969 10.084541294816344 14.43795914070943
Ag 6.728832012470918 9.023915442713395 11.35615172528126
Ag 12.654821644720581 12.635913532549594 15.49396821687722
Ag 7.98869817499726 10.469646748410323 13.288691605681368
Ag 11.042019912879189 14.818352608421181 11.711398612915948
Ag 6.497725682575825 12.126573558400988 11.285986935529428
Ag 10.104659619733635 11.399138923975705 14.841266862937584
Ag 8.868018830581821 13.013534324062205 12.64833020714875
Ag 10.530340945955038 14.266122354137996 14.520814413188974
