29
Energy = -60.19692252 eV
Ag 13.55596021597144 13.645217066464015 13.372544188248545
Ag 12.861002500672804 15.751154443391329 11.61219126114322
Ag 11.879183649292772 12.563654418887552 15.275762928054252
Ag 14.478150333657624 12.083404127881701 11.262120674679002
Ag 10.83176688608978 14.57608192246251 13.584866393249296
Ag 13.557363864131844 13.90230067784464 9.245054959898427
Ag 12.32716916948034 10.936792475356032 12.657246055830052
Ag 10.108935787763922 15.562550732589836 10.98102191379258
Ag 11.3274789598349 9.80549071005423 14.983583868476478
Ag 11.792667821599 13.311706247577106 11.208567682174047
Ag 14.179350866075335 9.254212037752652 11.000688816413422
Ag 9.77619263028943 11.84584180289929 13.695251328927094
Ag 13.002252677950992 11.123608551237238 9.121606343646071
Ag 12.329171064355107 7.987357601735318 12.982945636308344
Ag 13.03208946723458 8.443524037301714 8.308909400689616
Ag 7.54448710686302 10.944054068482963 11.866592022564983
Ag 11.483556441899918 9.072217471958597 10.546657636819978
Ag 10.907141902125538 12.814518370580942 8.512723758971564
Ag 12.84506603592673 6.657917281082269 10.52648645812974
Ag 8.506410561331961 13.661961096152066 12.18974888414192
Ag 9.949719213521128 11.388448634802328 10.76723919257925
Ag 10.140050141374843 6.740018351059084 11.502354019833463
Ag 8.500053213250276 13.777651087388893 9.49261084511675
Ag 10.613894425110175 9.99150791179347 7.994954062166722
Ag 9.693606026253688 9.207808677089004 12.778816053822274
Ag 10.51489696485252 7.174462002217288 8.680487698135412
Ag 8.56400874186419 8.735500938104304 10.236327705495048
Ag 8.080319849842544 11.09420189724662 8.716722440315609
Ag 8.292834700859625 8.537426080335326 7.497058750764823
