46
Energy = -145.68648006 eV
Al 16.195519240401953 14.50681885896127 10.344271303569595
Al 15.59856184551956 15.009010898239199 13.067656520293562
Al 15.782499784161255 12.459438302596865 12.199472586752357
Al 15.169860243728177 12.213920384208443 9.461048353624134
Al 14.726440228900893 16.722059533801097 9.778871146517522
Al 13.901971718946992 14.52350750757013 8.535808159931031
Al 12.975324769562745 12.281548734340777 7.595726191469552
Al 14.123585265716715 9.92493297148276 8.620714405390931
Al 14.611785565972175 10.232280190866431 11.305326795286991
Al 12.129565077895247 9.905199006432046 6.6595392428090845
Al 15.17580705454852 10.418552452628596 13.892893523964078
Al 13.568931119003379 14.179720356295194 11.234222794314384
Al 14.94243325739838 13.128177075283565 14.85580099389371
Al 13.74816496251193 16.84939121912095 12.26721841844775
Al 12.100274716717637 16.31736408533452 9.974063432078122
Al 12.486193300273568 11.67434661678182 10.24660663467114
Al 11.90752433174993 6.531149935405799 11.269548807623844
Al 11.327217963333666 13.875523322765618 9.151172951636912
Al 13.695512947026991 7.793412656484817 13.180878815182568
Al 13.040720016793614 11.961609222577476 13.019305121597384
Al 14.576253796680398 8.558400973766279 15.640253895965976
Al 10.423234781749288 11.488933395649125 8.187720774939914
Al 14.05050107128751 7.796541036455266 10.409250630517585
Al 11.468497168243749 9.07351501535347 9.141594837319435
Al 11.963416322332654 9.500337519559077 11.920835076247986
Al 13.59772934215755 11.151071792236406 16.0089475006494
Al 9.615983648356837 15.463862566662181 10.55750056276291
Al 13.004162535360628 14.778172414881647 13.841127848534528
Al 10.982247727466325 13.465887133124612 12.108002134949592
Al 9.692373324430493 8.051395316434789 10.78012663346432
Al 12.142135692949866 9.300801318716246 14.834219246737632
Al 9.88508166904875 10.788286540055337 10.747252962970888
Al 11.164334737370245 16.27554742561852 12.6580970862128
Al 8.800839002856808 12.986116054987363 9.700668705203336
Al 11.864956956778034 13.041345677844198 15.362775308495232
Al 10.460916957926965 11.16996814525579 13.66888882538725
Al 7.088458006261733 14.5352483367541 11.107430166675933
Al 10.687656715145003 7.586855924827668 13.353552498772462
Al 8.465296038368272 9.420353238822148 12.6583714714541
Al 10.67138179975329 11.00511039193753 16.643322223991536
Al 8.814277616624105 14.958922668841339 13.152114388151135
Al 10.631482306157194 15.546352077176879 15.245397523569473
Al 8.31987354578486 12.334789279379903 12.361087011697848
Al 9.479217024907827 9.032099483847064 15.25652775267229
Al 9.145130818046947 13.119567025812696 15.179329695375486
Al 7.66964386762348 10.935531798653782 14.688434922057281
