46
Energy = -146.36370436 eV
Al 16.25481907110864 9.805919800102302 12.43519186924672
Al 16.224311609653686 11.905177344791657 10.897773055880174
Al 15.110262027192933 14.18935866222426 11.973819390542433
Al 14.942703787397397 16.35062973646078 10.169228481095763
Al 15.910913515837686 13.925681824051534 9.319645544834097
Al 14.684887721436043 9.681754945614916 14.58087797430778
Al 15.260183413435835 12.109020597668563 13.586665704998945
Al 14.795955249334257 7.68727852445604 11.934789715173384
Al 14.738908234296767 9.664521786378506 9.902965616328697
Al 14.729616259881684 11.678888822428037 8.010106518884122
Al 14.160691788104106 16.599967111797643 12.805786202817568
Al 14.094135799743599 14.376914510461592 14.520901083116012
Al 13.580994866708176 11.903150334238045 15.713270853003946
Al 13.556914659571564 12.525961933402474 10.320247185316134
Al 10.66672130385157 7.801082742608386 15.115633521654694
Al 12.562423663620912 15.189553979231182 10.985348364426512
Al 13.4315998235117 14.841685834322947 8.38155885903932
Al 13.446272043340183 10.34371282649793 12.130968261056687
Al 12.068395563759083 12.522128402642007 7.853578142372725
Al 12.456414423509854 7.89717000395964 10.646784489034186
Al 12.661043983337699 8.048147122078104 13.453156134718375
Al 12.556359740875914 12.912921360002255 12.71399125664785
Al 12.716503975286663 9.082430142483247 16.22443680344167
Al 10.739673600807908 14.632000546837526 9.044694059361165
Al 10.830217618365475 12.237685762362437 10.53633140643282
Al 11.366581693441866 13.215949681058753 15.054020306061073
Al 11.69924924498118 15.594411255537272 13.542855042313594
Al 12.20166848727323 10.271955310732379 9.371364206813178
Al 11.627319697863811 10.54015057943038 14.249434878851757
Al 10.240907752982078 7.101932963050077 12.269007230426748
Al 10.73986039362929 9.82561709890885 11.793399387587952
Al 10.072074426577576 14.437077221073263 11.71259957441517
Al 9.728449070028818 12.004601320231547 13.108023969281124
Al 9.76440667059247 11.173031500708637 8.115516694497188
Al 10.093506576320749 8.456498452644178 9.461834009255847
Al 9.000445868635126 9.329181314112086 13.867977369620183
Al 9.245405764716837 14.633080012299198 14.270201303021379
Al 8.49026604200561 10.895473597233952 10.468746869178084
Al 7.823549153257042 9.15203285608096 8.297197692676669
Al 7.116788122321427 10.762398141967454 12.802300178338214
Al 8.440293806622822 13.450050994150148 9.613015901147948
Al 8.121693766960435 8.431134208875532 11.388570827656968
Al 7.611754303798586 13.53577691084152 12.52257794121182
Al 6.796370871373523 11.61912595118873 8.222459053184037
Al 6.025771668233214 9.737885338624297 10.26231833496816
Al 6.039009508910463 12.346187268642947 10.775125370256456
