46
Energy = -146.18875705 eV
Al 15.704661267319631 9.402534937952916 13.438980806682158
Al 16.19637357750922 12.013523254085564 13.090725681722441
Al 14.840932615248963 10.593267467053773 11.131848689136834
Al 14.156622796637174 11.306615586502053 14.754301278742167
Al 13.533293448816444 8.64602789859679 14.775261256153229
Al 16.57278362954324 14.678592474938425 12.635832224396577
Al 14.048651555430517 7.998121135047941 11.862440668358465
Al 15.678460041266478 13.183751270963924 10.518405912948614
Al 14.745976453849595 13.991186186309667 14.524820707580485
Al 12.921173021620906 10.268232269454078 16.95816523886306
Al 14.27436550251385 11.463257750361024 8.669876375534637
Al 12.574977669132185 10.198027208146062 12.63752630472013
Al 12.959025795185113 9.24388624951991 9.684345348524365
Al 11.579281819499458 7.533685008428483 13.08169683855431
Al 12.80719930597172 13.077478596202354 16.284065956389327
Al 11.80609377461746 6.892411026895132 10.497714622885752
Al 14.023201424170338 15.407470912251787 11.991759588769515
Al 13.531189296580283 12.741382210590757 12.418194657070904
Al 11.138794430924387 8.263076927436138 16.065719204667467
Al 13.46779477032829 14.358204909008897 9.50243876869495
Al 12.032629438911034 11.718296070711519 10.424780913315931
Al 11.3946625445107 10.971790390814823 14.937273226186788
Al 15.457569000315699 13.706444058612792 7.7766926478345795
Al 12.829907863286213 13.125246920137975 7.086915551432914
Al 12.236458467525779 14.730814312027578 13.929644825283868
Al 11.702450213275812 10.709086669811729 7.884531557670903
Al 10.35707053431207 13.493732295181836 15.415456716707162
Al 10.465987380033264 8.318307380460428 8.692264639884467
Al 11.537657786700846 14.337860191143013 11.37334003517472
Al 9.69177783407138 9.137001473064258 13.850963708015605
Al 10.439278000233642 12.093601135851957 12.590822626161208
Al 10.872948142009104 13.817409349825816 8.885012230045854
Al 8.650038378669976 11.432224967347066 14.642325058860544
Al 10.479305158527572 9.372268785387615 11.147354054027563
Al 9.54291269615425 14.85708755906688 13.204604834911724
Al 10.077542023500696 12.5173892372158 6.673670673144318
Al 7.7088975575582515 13.936487838133823 15.185057345597933
Al 9.468237079851828 11.57342396349296 9.395239277385741
Al 9.177425791196859 9.928885260398388 7.076825956607482
Al 8.895541832020486 14.227879580015065 10.63359036506342
Al 8.198186934171229 10.414181837290666 11.987773643106395
Al 7.592764068731742 12.988564753726735 12.661622063980511
Al 8.223960606642532 13.908132965805164 8.089262794935374
Al 7.895354597925686 9.356781927764306 9.54970375601384
Al 7.1499799529219334 11.46440343371376 7.731114282930316
Al 6.9638274657785635 12.205187908255274 10.253260630326862
