38
Energy = -80.56892987 eV
Ag 10.203693042564968 13.372531832579945 18.04942080431959
Ag 11.703688147102342 15.334866310893398 16.710941302597092
Ag 12.437838981849216 12.634668330826555 16.567516714740485
Ag 14.861232057787467 9.10125225825089 14.329364475552717
Ag 13.80332771955785 14.579317913301782 14.916103740359901
Ag 14.617227389362123 11.869213260165637 14.845726602441866
Ag 15.803954597469314 13.614194482260565 13.01216503225695
Ag 9.91034577395093 11.498169008211816 15.797092770267103
Ag 16.205692467490337 10.796003903894814 12.566489186120261
Ag 9.460795614674051 14.19614165616585 15.496684492098614
Ag 11.324426485750786 15.744664126126388 13.96565865778972
Ag 12.370357234284857 10.266768994218166 15.076236289798123
Ag 11.704935577425823 12.857925204459717 13.833012976880772
Ag 13.327480249040407 14.930577943491276 12.213015794633666
Ag 17.30643746184891 12.45946815033655 10.66438183171473
Ag 14.188207385405148 9.01923237079376 11.63733832589953
Ag 13.647481247717394 11.909741976696186 12.112236825926958
Ag 9.9473548155663 9.107554488009816 14.353552732981917
Ag 15.157991955946311 14.128810482097872 10.383920744894246
Ag 12.42996799176283 7.948221607363256 13.612559953782362
Ag 10.728997577411189 14.347372367737307 11.551664323934398
Ag 8.980153183971881 12.484753542079034 13.219487833906928
Ag 8.64492177733674 15.420213607503648 13.210098521039006
Ag 15.056294834987266 11.112024779927754 9.74834478249734
Ag 12.68184485177893 15.201947530454522 9.444264053132981
Ag 11.357289479151314 10.215134188500553 12.124414977767639
Ag 12.453974357187338 12.48794903780152 9.712235339177393
Ag 14.77167803408729 13.368198999513261 7.8609579512471655
Ag 11.878357707806959 7.509441769752404 10.963516912609284
Ag 12.64114593988776 9.683402705866598 9.436776659553054
Ag 10.071742754056281 14.043715223199824 8.851532821436358
Ag 8.023296669585317 13.991926547643374 10.921838625143614
Ag 9.633875032496611 11.81025937303536 10.477819583207683
Ag 8.489285732890094 9.917729679987174 12.16704820689293
Ag 12.125095785762912 13.566863789041765 7.084651900032822
Ag 13.471319915648651 11.067426052830143 7.1821825311213505
Ag 9.922998025658313 9.135265852899208 9.810821277123184
Ag 10.668946845138304 11.207027398645614 7.931453477128245
