20
Energy = -39.76758737 eV
Ag 7.781495398598027 11.764418069195813 10.416850562105479
Ag 10.066725545049117 12.564621263199141 12.254568282989396
Ag 7.869351539569276 11.08360172148318 13.107597480483863
Ag 12.188553381185658 13.388460806310748 10.5576925646127
Ag 11.60237545843327 10.199870479539797 7.088629391800109
Ag 5.858848685127637 10.022720080279262 11.300712043661655
Ag 10.366747008842005 8.156266717895617 8.44942457064252
Ag 10.364180624019227 9.742100711378033 12.859510563995434
Ag 7.854750931796436 8.428815122800781 12.412960358149363
Ag 10.063600444411593 7.541020502006924 11.145557649533906
Ag 12.108814749672215 6.296474326846064 9.825779826270537
Ag 13.296536171858135 11.028362702694656 9.437666555041995
Ag 12.579386329461418 8.774928170576388 11.225559967183484
Ag 10.613492022615253 10.74187279264491 10.124370960136035
Ag 12.59927099408288 11.317561343116752 12.339568882482727
Ag 8.123069601553008 9.129163342119616 9.73377408354622
Ag 13.204742266384857 8.45700300892556 8.528224130974474
Ag 11.446016595935344 12.796274631666735 7.813015214761309
Ag 9.09400189325263 11.122994206998312 7.8523054845128
Ag 9.5785420150412 13.554287276875895 9.609442439106825
