33
Energy = -65.54727329 eV
Ag 12.471106826541195 9.757689893979904 7.681764061477941
Ag 12.681229631346516 12.284697993019245 15.877846933036617
Ag 9.371849963648293 12.84398801073606 13.686491391563449
Ag 11.019004320936874 8.267928984317702 12.616908025390952
Ag 16.56258861527533 12.561686346740089 13.26427266229602
Ag 16.31959655271718 12.364805805003138 10.488111500378542
Ag 9.892423203729177 10.78998553586161 11.842080979684916
Ag 11.255506032674273 9.097861466042582 9.980827572652455
Ag 15.669305916036151 14.798730962211927 11.760897904726026
Ag 15.562295733331373 10.063638370989716 11.962950809219043
Ag 13.63042931836511 13.575684676196142 10.273851771021071
Ag 11.400676395318744 13.133998796819867 11.871937387019074
Ag 8.847763026630115 15.295428749221314 15.019394096294784
Ag 14.225744765950877 10.798749941209982 9.53177972113167
Ag 9.210761027243235 17.734480629101416 13.536786098191875
Ag 15.803174657708228 14.574367640193609 8.912463536226447
Ag 14.561962149960952 10.734998185614629 14.421018303442985
Ag 11.68553471781738 11.793130064312907 9.494026900578634
Ag 7.160599163017058 17.378597259462417 15.253765613710787
Ag 11.28354069158266 17.718111585991963 11.67130148940869
Ag 9.931672596924985 15.410396858569587 12.325992079951003
Ag 12.2145403619886 6.194911961213782 13.817021759678306
Ag 13.899360928681222 13.304814300373799 13.484742916091063
Ag 10.01731189296165 13.217337156880376 16.448695312768347
Ag 14.028304621915638 16.465629916368552 10.043635008923316
Ag 16.751021788123047 9.770415456874472 9.507443281209818
Ag 11.531084865698041 14.463684188499235 14.483413141629127
Ag 12.771891050494755 10.74830391429892 12.128400633159316
Ag 15.43757165854892 12.866463544127667 15.821280006364665
Ag 12.853522714387564 15.569908910528552 12.273552232277945
Ag 11.398204185994807 11.710014603421083 18.190245187866317
Ag 8.821893066551029 8.292050349232436 10.97839557228528
Ag 13.686500245865055 8.37548063055051 13.306678798309978
