42
Energy = -133.08950494 eV
Al 11.994252890724573 14.161420776350308 6.836535182415954
Al 14.016260987162655 16.146148766530484 14.05691332629605
Al 13.254836671570041 15.464321235041835 11.640566260342954
Al 8.777588556409432 14.402055975846121 12.88164458488317
Al 9.759266639608072 13.800177382963888 8.347639645171272
Al 10.851258687258865 14.16095854246293 10.905256389713298
Al 13.096054695529375 15.11344518899511 9.058966945433049
Al 8.219499919813998 13.362088153740537 10.496032091148631
Al 6.4348722762850405 12.588686632022819 12.442572634906776
Al 11.30474480355611 15.298680845992244 13.425898490633351
Al 12.91934349552169 11.750260484986706 6.314159559373189
Al 12.94707841933206 13.96594473152665 15.18454781648452
Al 10.507396238274849 13.03908235288197 14.647530297300976
Al 12.14052217245438 12.498700919577434 9.11125972673098
Al 14.631980604405669 13.330490650469917 10.63474462128613
Al 14.649043753300925 13.082815956454665 7.972090364486218
Al 15.109746959437802 13.734242856731377 13.283493835703513
Al 10.35203918014122 11.664821233905554 6.930023512634866
Al 7.8860502731263376 12.562878690103876 14.691260209165693
Al 9.650559688241254 11.851049790836447 12.279202708784156
Al 12.517317234475454 12.880734412869156 12.631654390217214
Al 14.669545594944411 11.181443225315938 12.291715476418778
Al 14.33989707205435 11.655318356727653 14.861095998219202
Al 12.025287580070048 11.67167964647798 16.51268401816845
Al 14.44972289942067 10.847503860454367 9.65142218408114
Al 14.864755510502398 10.145116311653284 7.067887502285636
Al 11.69156555762177 10.605683333733896 13.84102747777008
Al 9.557905806677452 10.753396071978147 15.765347541055426
Al 12.023502711868113 10.611901674804427 11.093856606483202
Al 7.4936337738660095 10.661016218263933 10.800291123884294
Al 7.796453816656643 10.175435219677434 13.432311902438325
Al 12.037789726525693 9.89017919797661 8.193796980453143
Al 9.655255690071112 9.19753397401474 11.570994687453762
Al 14.015809449862058 9.7889223611036 16.761138732847648
Al 9.743060394435537 11.027624646509315 9.434439906351315
Al 14.077118783331256 8.266007835943485 8.793021236726608
Al 14.080259590473643 9.077852408883526 14.043908376496496
Al 14.136421969353894 8.692425375398829 11.393707325640316
Al 11.691377505774808 8.804890070449868 15.832204192801012
Al 11.804556146175745 8.010579730028619 12.852166366128515
Al 9.622762183943996 8.473776657287347 14.27141795329985
Al 11.616374246606666 8.01547839989322 10.176341974750084
