42
Energy = -132.66033817 eV
Al 8.31706602191179 16.18898045408472 11.429552690183597
Al 9.174491436675732 13.789781613416869 14.838255888369128
Al 7.366642799150838 14.109187109631513 12.874602312279391
Al 10.565544877866028 11.551813134777959 15.182664760480762
Al 12.300571868494186 10.350138342405224 16.863520716323396
Al 8.524395320843116 11.63659599900064 13.329294436006215
Al 6.662261232108763 11.883135176819673 11.365941796449961
Al 9.568883540531719 9.19910522605567 13.701460594236744
Al 9.995404321348321 15.907605074274942 13.508607902125872
Al 9.810594352228913 15.627792702952116 9.273418025678584
Al 12.784793071327478 16.32027001181254 13.803050252173202
Al 13.279684647700618 12.496623196113106 15.701398983779793
Al 7.6439811244493745 9.447577923820273 11.798404387276372
Al 11.828186863788995 13.718875515559839 13.623573977217259
Al 9.80749731537818 13.657417559375046 11.774748716533699
Al 7.8160144660825965 13.807477680408121 9.857820343792126
Al 12.141961129324976 9.514228941579852 14.26933641104071
Al 11.04413319661048 11.192516068242298 12.294900976142616
Al 9.089985888377186 11.31315936322801 10.394310192105923
Al 10.088523679059884 8.736153393926518 10.921308414955748
Al 14.458101638357256 14.216147696514986 14.154414769826936
Al 13.53483567916506 11.609542376730083 13.026036476785867
Al 11.658114670449335 15.646171383754636 11.393679580690282
Al 10.52658256524452 13.06722521623493 8.975796597848717
Al 11.357220930685195 7.241597767103742 12.957965079365081
Al 14.141763061602028 7.693191766462713 13.36709068965048
Al 14.25046213146666 15.224337422375617 11.703914285123568
Al 12.713807337220432 13.063153230000525 10.864771354788363
Al 14.531490732633038 9.92906286852855 15.217412481195485
Al 11.524935622847154 10.573602726756686 9.505361716702671
Al 16.04434777725891 11.979813250839412 14.37457232938877
Al 12.46639199468533 15.005435023791257 8.89955031119522
Al 12.696828947559714 9.035720656985506 11.473727039076978
Al 15.634633030127898 9.824102057666835 12.684784307644732
Al 14.917507127826822 14.246747401591339 9.364642845740352
Al 13.088899008613453 12.331523679273667 8.145169711478868
Al 15.59642255109338 12.764825599528988 11.61706777414912
Al 14.132914288843896 10.803473046493709 10.206510353212181
Al 17.780260099787697 11.36524206863633 12.502837091092877
Al 15.061680842167627 8.193655259258467 10.613178838214255
Al 15.7966650338412 11.975929632168176 8.45977157576998
Al 16.816441172320324 10.301988778874321 10.226496410963673
