42
Energy = -132.71932519 eV
Al 14.813798520465701 11.01863372127994 16.012337147515513
Al 12.48914499928388 12.208838592095935 15.5579341850475
Al 14.87646795693655 13.230343188097367 14.2715322527059
Al 10.23422235507787 15.834657190545002 13.762263930252264
Al 10.209775463964764 13.375539878088258 14.998933179752182
Al 12.36885822082818 14.090217144540219 13.604578216118975
Al 14.381310736076752 14.794006510453986 11.937689992394855
Al 11.778012045799867 15.751562415790627 11.542996394187291
Al 15.108749234833025 8.691445969064256 14.565497977676698
Al 12.465763053198893 9.433013062901818 15.163756623740106
Al 13.363743122053357 15.839547787682374 9.364922031630117
Al 16.438573556093957 10.973064946263623 13.711144005775894
Al 10.05336754673098 10.619359394937701 15.38977410718968
Al 8.057498144095273 14.298160692358563 13.752658530764869
Al 13.743458902569289 10.930438639866523 13.31127478247229
Al 7.745204488682928 11.866527731910976 14.893073343094551
Al 15.478171396000777 12.321522752078325 11.68514296492686
Al 11.25007139817481 11.598820129719378 13.127898847963133
Al 10.005483248244563 13.62669204102298 11.880206810369659
Al 12.675666063827274 12.828649963348234 10.999808459710726
Al 15.164890420239207 13.7911952078377 9.492585981481646
Al 10.667863768814739 8.982840470767236 13.021170856215232
Al 10.965163884829181 14.233854316580299 9.334389529338901
Al 12.453425964514475 10.04286944412836 10.980470583533812
Al 12.990262518592317 13.277762803006661 7.994476073752092
Al 8.089614251909286 9.874173950129027 13.0599761704948
Al 14.47290767867496 11.041932564168695 9.510991432009153
Al 15.36371811931784 12.31472162316223 7.22787318261219
Al 13.229115589354393 8.058055477684167 12.777768293580479
Al 7.552423579359246 12.404930936627876 11.970242933281009
Al 9.87680491208638 10.829550316100876 11.075598800144743
Al 15.24044182817979 9.49003273996979 11.563613498340102
Al 8.803083977193594 12.726317578626292 9.432588348334106
Al 9.009806968561202 8.12872259613417 11.017925831402541
Al 11.213768918263936 11.490611394477483 8.84799795419191
Al 11.9150936134252 8.841607867208452 8.467822984861526
Al 13.32773787458314 10.604044237129665 7.135190414883603
Al 7.3575798310425355 10.048353800276848 10.4006436825927
Al 11.603616924651543 7.415443003615053 10.753866269824771
Al 6.121036983020337 12.332720787614702 9.734953680530019
Al 7.386321792452405 11.017785113115732 7.836913657063677
Al 9.366204993967816 9.429656865564171 8.537740904213804
