42
Energy = -132.09651948 eV
Al 6.986472998422336 13.99565512596712 9.949805938489762
Al 6.636170176692353 11.255627262350202 10.52953569667665
Al 6.827885142905416 13.475065028533516 12.599436405413515
Al 8.3540028227511 11.951503557706499 8.47828518365088
Al 9.040355082889203 14.924734765630522 11.915375443693335
Al 9.6596430036449 14.104058124240025 9.285680932324398
Al 7.618996859171029 10.873858969653346 13.150292789816023
Al 6.9099034331056775 8.6464420532213 11.63560504961496
Al 8.56076558857368 9.539703280223108 9.52259553890964
Al 9.026586533500515 12.223456582005678 11.171361518568725
Al 9.306563789030422 12.90814973584852 13.809832213904777
Al 10.497873283745864 10.052020051766949 7.41053304273256
Al 11.40802086405395 15.632237044603423 10.690763170228571
Al 10.286815709102466 12.75933535719607 6.723553127556885
Al 8.800575107004827 7.033066356653466 10.441108468176674
Al 11.896664134744322 12.277818635698056 14.916717613477012
Al 8.141678781374482 8.453487072142996 14.172977202696686
Al 9.307055080044035 6.336773986846171 12.996738380206653
Al 9.865023619250543 9.109199880796686 11.981455132239036
Al 11.532197473493417 14.154917198452312 12.98751766080828
Al 10.987765539983135 11.061926275150462 9.806021999322947
Al 10.008937675808665 10.303572572226457 14.534397570174134
Al 11.333739076648904 11.446270634436837 12.382341932566215
Al 10.97997443039388 8.22698282230495 9.38078400103501
Al 12.053590919643892 14.38779002533581 8.129070298448436
Al 13.787814228696424 15.272483590446754 12.299160928905051
Al 12.677067443985294 13.177936151007147 10.519920749404928
Al 12.75079714915742 11.749727465753349 7.9181402163932955
Al 11.527811367596993 6.794850764796916 11.665209049158394
Al 13.940446396374771 15.669333123420866 9.632321007229462
Al 12.750551106582888 9.349992048448449 11.36166902411733
Al 13.897052633672056 12.364175603751027 12.848949053224851
Al 11.123253766454532 7.832517802584348 14.21426217347358
Al 12.85893272533466 9.854978475637129 14.121691872048455
Al 13.381310559555011 9.318659038123565 8.666972103966815
Al 14.721935807300486 13.396186222373188 8.464399005371959
Al 13.494163993950302 6.961000968654597 9.915554781046758
Al 14.648939721046496 11.167744829244826 10.25032204319369
Al 15.477088905453135 13.665431481586335 11.025648021123189
Al 14.079719575329614 7.505702130493712 12.889451328752852
Al 15.165598273194727 10.005949909110521 12.83550216597632
Al 15.48823532414674 8.5681899848135 10.576435064912939
