42
Energy = -131.84237403 eV
Al 11.85973162153408 14.150438665919452 7.3018613794261
Al 15.270387544179023 7.952160584511017 13.018740444946053
Al 11.266868403497178 10.181334457648948 12.477966657992523
Al 16.960870003235183 9.986722436753752 11.91982338480539
Al 12.573892494198091 11.620121613873424 10.52130808526191
Al 7.689081640140825 13.104120749893166 9.831887232962796
Al 7.927162532011328 11.94223778215691 7.470571948060119
Al 14.206735155363788 13.88313094866399 11.316099231088305
Al 11.892024333772072 14.808152387686823 12.741620241676674
Al 6.76868551367401 9.188152873853628 11.759280483086988
Al 14.552982888844674 12.139834547434495 15.550942739225599
Al 9.49693425195785 15.015696696835173 10.639649990437501
Al 13.976293153455366 13.063031671132517 8.562449461186938
Al 10.438031748409362 12.65963700204249 11.708548189917307
Al 10.139048258031451 10.121948386105323 15.147095089879043
Al 9.646289926836534 9.907539825588977 7.990919076057908
Al 9.015915536230583 14.47464009287291 7.856145291102654
Al 12.879852329498119 12.271585754143427 13.36770795437372
Al 10.348741398722762 12.427572444478283 9.08496835728751
Al 13.134158706981419 9.678313105064374 14.549671251298284
Al 8.250468249200999 13.751705713923792 12.764568897858553
Al 11.155136812348784 7.906216231788335 14.043244205283731
Al 13.954965132494333 9.447935017523635 9.546090221041522
Al 14.734203908600568 14.360723078425842 13.913974642202732
Al 12.865490553525222 7.897045327801083 11.868859458349812
Al 15.843399110203265 10.083078863201033 14.448908621545161
Al 8.644278211563192 8.12271897081651 9.6915555043926
Al 9.185965661137155 8.366625686509888 12.381654610596458
Al 9.042002526048 10.655236089163063 10.688710459042047
Al 15.514901781535155 11.643682824986382 10.248740515329539
Al 8.41384542942503 10.937665227814946 13.35451689363023
Al 12.011734172723662 14.562245607657436 9.990864722946958
Al 10.241034240292038 12.900050454040656 14.345848891353643
Al 6.464307922676506 11.82847286491605 11.690537063117267
Al 14.252527648789748 10.27998262292103 12.18360547390953
Al 12.481126427706593 14.198495868613728 15.32287304864542
Al 11.273623534118308 8.9064669274441 9.94202616156036
Al 11.982350240283512 11.747888392802853 16.227579118367384
Al 12.256258035779176 10.845138423157488 7.892568361899754
Al 16.05728222857911 12.337965421414658 12.880440984497424
Al 6.830108656596118 10.227107795865624 9.226901388779106
Al 10.274513626459399 12.185730364846819 6.300699456577205
