17
Energy = -45.62744947 eV
Cu 10.538921169512228 8.272408137141388 9.414807245517723
Cu 10.626712078292678 8.66983384672873 6.905504156766576
Cu 9.214335739439486 6.109833875085318 9.72856032788884
Cu 10.203224457647927 6.441290949539887 7.645422822471015
Cu 8.656574701679483 7.9726633428482385 11.075966296494022
Cu 8.904763488494996 7.373286011696695 5.858625096832699
Cu 10.06618663644516 10.498853096728924 8.197059544124853
Cu 6.920323907139918 6.681574910496498 10.035476315653426
Cu 8.388444022215936 8.387990728928362 8.295976544730504
Cu 9.06471017683974 10.155182670906788 10.344648259632034
Cu 7.6794286885558884 6.141482629323764 7.693404249684892
Cu 5.657445537561215 7.613867226583112 8.29728525308001
Cu 6.6883310431766105 7.972342104056719 6.169376710799776
Cu 6.763645038281269 9.227025679314293 9.892128220103286
Cu 8.39669144592032 9.85288949427563 6.367693993946935
Cu 7.792315705350105 11.089110909365152 8.528412460531424
Cu 6.1057744247243875 9.838868561301625 7.503660452369751
