15
Energy = -37.90063391 eV
Cu 12.704972672798448 9.84110234093931 10.698719978594477
Cu 11.046273236569933 8.118730114613882 10.468651523633392
Cu 10.965734128205188 10.297699936649897 9.181705280243369
Cu 11.295330944535491 6.164626791489283 9.146873067049416
Cu 9.15822295966484 10.206921233041639 7.607905599947822
Cu 10.383008746888958 10.24305489353627 11.502370155942122
Cu 10.498753941191556 8.199580639559688 8.089861011731855
Cu 9.020511127610607 6.71990758619123 9.428732466637321
Cu 8.78351995284297 9.025171402275488 10.067822796692692
Cu 8.028839433713632 8.039355184491821 7.622527848469503
Cu 8.82672279725904 11.381551141372302 9.90495757622119
Cu 6.957111274412684 10.003762276091143 8.656556566015963
Cu 7.19368394780764 9.821969124118587 6.252376812823213
Cu 6.775418756053707 7.727612340734699 9.634803302815941
Cu 6.563313514521795 12.023631090745784 9.752012735245923
