18
Energy = -48.47505109 eV
Cu 9.993282828339268 10.274106153457359 7.150033263448899
Cu 11.598233609991283 10.737238976785179 9.137219850367865
Cu 11.25065241433682 8.44219350167552 8.627347804847195
Cu 9.703676842958338 12.151876412881665 8.80171788241965
Cu 10.250715099614997 6.253711300509817 8.524917943651621
Cu 7.709950014755 11.309909308684691 7.760330402974757
Cu 9.795096068135615 7.8773401028154355 6.7856786919220555
Cu 7.7087375942308425 8.956359839896146 7.377613752925482
Cu 9.167229386816302 9.771265901034536 9.308471669414216
Cu 10.046474451992133 11.197535607757425 11.103480993301593
Cu 7.953314651472696 6.56974237128968 7.677465115199232
Cu 9.694654484503301 7.540079853933498 10.531990153936876
Cu 6.447857582912824 9.93186291353816 9.321454575125664
Cu 7.797931900228931 11.622461670968976 10.281656490362847
Cu 11.307284058689218 9.187695832289112 10.993786958303504
Cu 8.35175301473675 5.644348056469374 9.906484282337262
Cu 7.416468705801133 7.827764334869076 9.686843447454212
Cu 8.245068288776524 9.39865390773099 11.43299878047193
