17
Energy = -45.69155264 eV
Cu 10.81865238742716 8.099868592400815 10.462107814344924
Cu 9.127501982760085 9.833422945414156 9.792654725928951
Cu 7.295817867977439 11.292805207330264 9.235725410684866
Cu 9.715502512617594 12.012137717651061 8.961298716827221
Cu 8.666510392277294 10.265610346847076 7.434620450016198
Cu 8.673438621669046 11.73557843324036 11.262191700120328
Cu 7.173439736258491 8.799694656488953 8.813871674708054
Cu 10.993821879239894 10.02724658811542 8.04700299111735
Cu 9.467805833276802 7.944693945938436 8.314098296615958
Cu 11.927653192213274 7.829151462477218 8.355109900726092
Cu 11.94397151208034 9.31677597214855 12.195604156180726
Cu 9.476954769360157 9.42180723239121 12.14855218839687
Cu 10.998217079349317 11.147175456259905 10.965597490060427
Cu 7.177170708385155 9.725135557762872 11.213278191968689
Cu 12.159225206048406 11.902250562600136 9.002786851980007
Cu 8.419591518625017 7.672825731042612 10.625736782544008
Cu 12.648050172584217 9.657144964040247 9.853088285629777
