10
Energy = -24.1305315 eV
Cu 9.311171412530037 9.460694928132343 10.375495536367746
Cu 9.532449931893275 8.205729681947943 8.40328217790318
Cu 5.533641068169472 8.267273837635786 9.695073777190945
Cu 7.776119059285731 7.6202682944331945 10.05419508236638
Cu 10.702115888151965 8.765401577506548 6.276724370025371
Cu 8.425394119195358 6.012317511864346 8.328659298971704
Cu 6.929107539097577 7.817970904372287 7.726809853280757
Cu 7.345782171928259 9.781278113696354 8.980362762941246
Cu 8.852385208546286 7.293835635640674 6.304816751290672
Cu 8.44620023222971 9.630619053632294 6.831391842143695
