11
Energy = -26.53965504 eV
Cu 8.74074266322689 6.7154499583993 7.9903349555837
Cu 10.653417831718949 8.198173096180799 7.835035303495378
Cu 8.510072289119243 8.580957211528176 6.435735900301255
Cu 10.509006025164847 9.797105501029733 6.052772301755566
Cu 9.463413645877218 7.956192853912026 9.930946274134133
Cu 9.37022568526207 8.57395762571979 12.30013229764644
Cu 9.320686022285628 10.13044133462527 8.166756944466156
Cu 7.367144870249233 8.562913414750088 8.58407188149064
Cu 9.513815421770339 10.23238697644237 10.570423117785436
Cu 7.409689396052166 8.833657599949696 10.993716107644065
Cu 7.405630308449388 10.757790782594526 9.499481760528402
