10
Energy = -24.14605097 eV
Cu 9.255458637756947 9.187049628263072 7.933401541579474
Cu 10.244852189146988 10.051109601287894 10.000339692428055
Cu 8.649549399830637 11.321740322346242 8.66337241429134
Cu 7.827540804263004 9.458281959681822 10.025472675701272
Cu 7.870694613852875 8.128456399664394 6.276754233455517
Cu 11.1075700141699 8.626126886961313 11.63387393821193
Cu 6.850323236331928 9.697319604431268 7.786438465681156
Cu 7.524447343347802 7.526933988644779 8.657733866839992
Cu 9.59048880015663 7.718806795799672 9.996831054631674
Cu 9.593463625499044 6.8727111462953925 7.63337524106071
