13
Energy = -32.96517479 eV
Cu 9.41320950453537 7.250903477277546 7.342543759934582
Cu 7.407844095111171 8.653338335640614 7.686765951177908
Cu 10.484769879008544 6.735402258793259 9.472754435671664
Cu 9.260278662160433 8.779843891984072 9.35093887300877
Cu 7.742682829982654 7.7482695475788415 5.537709121044755
Cu 9.283118929141741 5.012703972397087 8.208530812479886
Cu 7.276788202809354 6.011191729115188 7.22682596531344
Cu 5.168696082510359 9.36571630857836 8.116057721173163
Cu 6.165879730383285 9.658526049506985 5.850220159351277
Cu 5.435083027752117 7.471870218196479 6.4496800556875
Cu 6.824162239949997 8.886364520918137 9.951421930699173
Cu 8.057479353363131 6.723901536661826 9.488038906389509
Cu 5.6980905394790655 7.057662494757231 8.779463291309348
