17
Energy = -45.43247726 eV
Cu 8.653124937377854 11.970319284791618 11.539721102510851
Cu 9.863129 7.015470500696679 9.565601690349592
Cu 7.829231675406581 9.863129 7.330099777888604
Cu 7.482392703756003 9.863129 11.398173325566587
Cu 9.863129 11.107144749104611 7.756091981520177
Cu 11.073133062622148 7.7559387152083845 11.539721102510851
Cu 9.863129 9.863129 11.911877027492533
Cu 9.863129 12.710787499303322 9.565601690349592
Cu 12.243865296243998 9.863129 11.398173325566587
Cu 11.073133062622148 11.970319284791618 11.539721102510851
Cu 11.897026324593423 9.863129 7.330099777888604
Cu 8.653124937377854 7.7559387152083845 11.539721102510851
Cu 9.863129 8.619113250895387 7.756091981520177
Cu 11.700237062276457 11.119468225023258 9.375624598841352
Cu 11.700237062276457 8.606789774976741 9.375624598841352
Cu 8.026020937723551 11.119468225023258 9.375624598841352
Cu 8.026020937723551 8.606789774976741 9.375624598841352
