18
Energy = -48.35326389 eV
Cu 13.096113938264944 11.947114340617109 11.874800357138152
Cu 11.927784800577033 10.700884 13.644116231644352
Cu 13.096113938264944 9.45465365938289 11.874800357138152
Cu 10.700884 9.421062760945984 11.922603673004673
Cu 10.700884 11.980705239054014 11.922603673004673
Cu 12.109203693294084 10.700884 10.001556121170854
Cu 11.968448856401647 13.142196552248436 10.088847811984925
Cu 9.473983199422975 10.700884 13.644116231644352
Cu 11.968448856401647 8.25957144775156 10.088847811984925
Cu 9.29256430670607 10.700884 10.001556121170854
Cu 10.700884 11.904637224153001 8.381243821008336
Cu 9.433319143598354 13.142196552248436 10.088847811984925
Cu 10.700884 9.497130775846994 8.381243821008336
Cu 8.305654061735053 11.947114340617109 11.874800357138152
Cu 9.433319143598354 8.25957144775156 10.088847811984925
Cu 8.305654061735053 9.45465365938289 11.874800357138152
Cu 10.700884 14.306731691191594 8.431139814925466
Cu 10.700884 7.095036308808401 8.431139814925466
