13
Energy = -31.91528163 eV
Cu 8.081829109011165 8.081829109011165 11.121990070244692
Cu 9.310656 11.700481934293421 9.310656
Cu 8.081829109011165 10.539482890988838 11.121990070244692
Cu 10.539482890988838 10.539482890988838 7.499321929755307
Cu 10.539482890988838 10.539482890988838 11.121990070244692
Cu 9.310656 9.310656 9.310656
Cu 11.700481934293421 9.310656 9.310656
Cu 10.539482890988838 8.081829109011165 11.121990070244692
Cu 8.081829109011165 10.539482890988838 7.499321929755307
Cu 6.920830065706578 9.310656 9.310656
Cu 8.081829109011165 8.081829109011165 7.499321929755307
Cu 9.310656 6.920830065706578 9.310656
Cu 10.539482890988838 8.081829109011165 7.499321929755307
