11
Energy = -26.8004912 eV
Cu 9.227216406172584 11.587172747197478 10.310994744702839
Cu 10.802842372545024 9.733678493754542 10.155156995291305
Cu 11.457018577578797 11.98466386132223 9.420038289389963
Cu 11.071313825736677 10.245614877355186 7.75947311285026
Cu 9.576125985392093 12.14732692904371 7.969929286489788
Cu 10.316657875271682 8.040049871895064 8.450270959294587
Cu 9.964756650325135 7.494737030978556 10.793049743693121
Cu 8.4673150680386 9.428418844271246 11.018966088637313
Cu 8.77243242075467 9.920900119885463 8.585121921002067
Cu 8.080943960061372 7.667385773930892 9.334563754025783
Cu 7.738384388221012 7.225058980463033 11.677442634720746
