17
Energy = -45.09858774 eV
Cu 11.710972187609128 9.917341158121154 10.115889847343832
Cu 12.432457613928795 8.272468034538328 8.49934506312816
Cu 11.008255546546936 6.466459646191907 7.90985034672293
Cu 10.113322922244938 8.174343374051691 9.42481128869471
Cu 9.664941286125549 10.971786375112856 9.473657501120927
Cu 10.747725884363023 9.721181281669528 7.6631062890212815
Cu 9.66463638275942 9.50248201627819 11.470107310235552
Cu 8.882150879774446 6.0635436722743945 8.968077046935635
Cu 8.343896271354605 10.061125148540839 7.642711418582373
Cu 8.436065490763953 11.60769779673902 11.435258947437145
Cu 8.307815686443531 7.513172772950527 10.893919380247016
Cu 7.388056317397633 11.77854967683817 9.150271731797597
Cu 9.207179333988359 7.826673252340466 7.093355390036142
Cu 7.325343708104376 7.860523753880936 8.705285516236678
Cu 7.496963266042284 9.695125421894794 10.33318314975585
Cu 6.051737734634255 9.903523497512856 8.28467837447311
Cu 6.922300182363833 8.48812015090175 6.444727428747884
