17
Energy = -44.85108384 eV
Cu 9.488150404489561 5.855582168443956 8.463507588187948
Cu 8.423590766719798 10.63340010572389 11.443655379531856
Cu 9.589189962403676 8.86746670632246 9.760071053590202
Cu 10.013923048903925 7.886358604079847 7.3346600440491425
Cu 8.541114199893128 6.69773507380651 10.492378981189972
Cu 12.288905742072405 8.59289675846558 7.469595306943974
Cu 8.994584741944246 8.381453854352301 12.134288958780425
Cu 11.904914512864382 9.780380489258192 9.518711991156
Cu 7.847906522290044 7.620647134770413 8.34625636013234
Cu 10.51578582411356 10.207476991904212 7.590625154069838
Cu 8.216048015349182 9.654723152047092 7.05827448499462
Cu 10.76798533786696 9.976051624083132 11.631109436958841
Cu 7.17151578574924 8.754023283315385 10.455300290394478
Cu 9.990073272348768 11.361752264962707 9.700610420178254
Cu 7.66796943973999 10.783720548576543 9.173800483893615
Cu 6.085984447591496 9.237343608140192 8.26082410507769
Cu 8.923656201751701 11.99577095151186 7.529014388645085
