18
Energy = -47.29947341 eV
Cu 10.240099691848377 13.242914776447616 8.085429051836478
Cu 11.128949933751079 7.679580218753441 11.149927647968083
Cu 11.468688170576607 7.473648437136116 8.784571521340132
Cu 10.690057700174663 11.404424066639471 9.629593306989248
Cu 8.430550043653302 10.817910845799718 10.598949034436
Cu 11.198184476061737 13.608253296382154 10.314081760961397
Cu 8.64952056934721 12.76704274431193 6.43018401443211
Cu 12.251223926056177 9.468907236418964 9.961790145922299
Cu 9.954811130325186 12.275674315574413 12.003726107551255
Cu 10.361594326060686 9.8770030218097 11.668562666942124
Cu 12.724551477883356 9.408321037651925 14.735244269004571
Cu 8.76633238839526 13.103406327264068 10.008295687496672
Cu 12.3031778146758 11.532663943498461 11.403368614854768
Cu 8.749579721381442 11.25130424837138 8.238996990873153
Cu 9.839798122196692 9.139329328228841 9.31717193011371
Cu 11.322893469846244 10.962451155848713 13.606572027133405
Cu 12.78226615308569 9.311446956148796 12.313898707395088
Cu 10.889170235982636 8.427167395016141 13.501085866051197
