18
Energy = -48.18629814 eV
Cu 9.247331487854098 10.457040805024157 7.306437064225652
Cu 8.719458006292324 9.01406313392385 9.156066816792968
Cu 8.500034559125828 6.494227411934844 7.960528726398021
Cu 8.800694623886027 10.534923960525964 11.314015861360376
Cu 6.453209890276315 7.812431660036618 8.471096002783618
Cu 12.450335467659952 10.83927733903943 10.051608238465576
Cu 10.869862229399706 9.242595728571287 10.85620579885222
Cu 7.8096481675676905 11.484594310850547 9.411204003505013
Cu 7.715073352989626 6.8279824575936425 10.184444331766835
Cu 6.6638109670725765 10.092165363152157 7.950384481385956
Cu 7.842168595913314 8.547776140864343 6.553977235534079
Cu 8.936680389185748 6.631667571243297 5.606752656696882
Cu 8.87396298996374 8.211159027248936 11.645793782393143
Cu 10.288626282101719 7.224521089158201 9.532069259368912
Cu 11.326680219415023 9.418752250826726 8.500527571626778
Cu 10.145538105143064 8.033659557505867 7.084371121221479
Cu 10.191574802062341 11.327286916487777 9.433113145400585
Cu 6.76415312629338 9.295849765697758 10.474510890744574
