12
Energy = -30.25561152 eV
Cu 7.522445217011131 7.857440572754743 4.9361084489591045
Cu 6.197666152071946 9.573467178134855 5.952866038665524
Cu 8.667151934016646 6.5575135041463275 6.565855044269896
Cu 8.586120734481552 9.029118975156448 6.763756423204572
Cu 10.305269670639165 7.727526505919814 7.901950406996277
Cu 6.63132065415294 7.643961754845448 7.342939663129742
Cu 6.857142292366769 9.966127341849795 8.199612330457864
Cu 8.832442690444056 9.064351703497104 9.31472430386592
Cu 6.562635291299274 8.130650945185634 9.728920882390128
Cu 8.360297619857139 6.664743907896489 8.984198374554346
Cu 8.31277034716139 7.7780508760177085 11.29676622094882
Cu 10.371749690788896 7.214059028886832 10.219314156849155
