17
Energy = -44.86780375 eV
Cu 10.538633 14.072974769967308 10.517054951327585
Cu 12.179755748348754 8.712485763347516 10.323027087093553
Cu 12.179755748348754 12.364780236652482 10.323027087093553
Cu 12.158079924342125 10.538633 11.975578869206165
Cu 10.538633 12.389377738718025 12.205666915850108
Cu 11.767207659413573 10.538633 8.68967626328961
Cu 8.89751025165125 12.364780236652482 10.323027087093553
Cu 8.89751025165125 8.712485763347516 10.323027087093553
Cu 8.919186075657882 10.538633 11.975578869206165
Cu 9.310058340586432 10.538633 8.68967626328961
Cu 10.538633 12.63516323645636 8.528074608706252
Cu 10.538633 8.442102763543643 8.528074608706252
Cu 10.538633 8.687888261281973 12.205666915850108
Cu 10.538633 10.538633 13.751061152415565
Cu 10.538633 7.004291230032698 10.517054951327585
Cu 7.365915216046054 10.538633 10.140744077299827
Cu 13.711350783953947 10.538633 10.140744077299827
