13
Energy = -31.99273727 eV
Cu 10.55271249309017 8.557624120518453 9.81348255364926
Cu 10.533468396734088 9.231792910684957 7.55456416560967
Cu 10.454722434774965 6.807652496700375 8.123083076733575
Cu 9.308448299167043 10.5791080542193 9.23720134967658
Cu 9.174607793819957 6.621400354565952 10.21473684793644
Cu 8.469631248015952 8.962622160166344 10.921189906030348
Cu 8.148624370706868 6.116603018104792 8.064789088013814
Cu 6.965031779742971 7.492668009585516 9.710079375173736
Cu 6.951235423515306 9.874247637224936 9.182570781723868
Cu 8.977604014759086 7.753679468176869 6.424350902276343
Cu 7.620692547707477 11.993077859997529 8.291675608758625
Cu 8.271810199058054 10.04203112526022 7.049010594655732
Cu 6.833997966894555 8.115293377165157 7.4322217331403415
