11
Energy = -27.12930264 eV
Cu 8.911722506622448 5.111015904089517 9.303031953181502
Cu 7.942237830188149 6.4218222592859595 7.578035398147429
Cu 10.222969508467239 6.9642057175205565 8.59070734550675
Cu 7.08194124538745 8.13899368841926 6.053775573951974
Cu 8.246044657239803 7.461846569618375 9.816104155830413
Cu 6.420792906182819 8.22691975360951 8.358640754402899
Cu 8.814801672218348 8.748098882416079 7.558367389707366
Cu 10.086009705621777 9.216435602615608 9.484635887427322
Cu 7.023567011238807 10.365555901790106 7.212427595140534
Cu 9.160178732266859 11.113571687764374 8.119911233704887
Cu 7.709512653958724 9.8513124622635 9.54414114239148
