16
Energy = -40.3645085 eV
Cu 10.53144 12.666772366039957 10.667523058769925
Cu 10.53144 8.396107633960039 10.667523058769925
Cu 10.53144 10.53144 11.70100973321032
Cu 8.79844676148939 9.250521172278718 12.52378693675959
Cu 8.79844676148939 11.812358827721278 12.52378693675959
Cu 12.264433238510609 9.250521172278718 12.52378693675959
Cu 12.264433238510609 11.812358827721278 12.52378693675959
Cu 9.250521172278718 12.264433238510609 8.539093063240411
Cu 11.812358827721278 8.79844676148939 8.539093063240411
Cu 10.53144 10.53144 9.361870266789982
Cu 9.250521172278718 8.79844676148939 8.539093063240411
Cu 8.396107633960039 10.53144 10.395356941230073
Cu 12.666772366039957 10.53144 10.395356941230073
Cu 11.812358827721278 12.264433238510609 8.539093063240411
Cu 10.53144 10.53144 13.97989412933259
Cu 10.53144 10.53144 7.082985870667408
