16
Energy = -41.7983283 eV
Cu 10.622607566278873 11.054674976935939 8.128741760911556
Cu 9.159522414662808 6.492286934851451 7.861481544684916
Cu 7.633679672207036 6.92455818610938 9.627310074542171
Cu 8.835135057779771 10.261917623743376 6.648871932403616
Cu 10.195064006623644 8.659341444248257 8.089316103925055
Cu 9.379842209522899 7.988620233400457 5.903159877896387
Cu 6.417720182162072 7.667546904032504 11.543882832215195
Cu 8.580183936870954 6.551234563474681 11.833940253345206
Cu 10.076284995604098 7.238578121761538 10.077368548758075
Cu 10.485745184479079 9.726173114278152 10.214459307450781
Cu 11.221957613550638 9.626254922492445 6.196607137166976
Cu 8.444332054419284 10.383918226584774 9.081787834110514
Cu 7.613524830989278 8.341177461423198 7.592677490598009
Cu 6.358185700587342 9.121040351981605 9.603144792056822
Cu 8.43693671610693 8.849072998525136 11.045073237571737
Cu 6.524503007017734 10.501925370453284 7.620614726504781
