10
Energy = -24.14175465 eV
Cu 9.606257305003133 7.735543393477454 7.869946310271553
Cu 8.069944148636953 8.396486467804108 5.815784630406549
Cu 10.742218068980803 7.479435959731605 10.23889181197789
Cu 9.249818155041986 8.879088162764695 11.481155054466825
Cu 8.376181565328226 7.275166784586797 9.928182439637132
Cu 10.078596967800006 9.60128184782422 9.35219861990526
Cu 6.524346644211553 9.780005782286999 7.014933844899542
Cu 7.19085007490558 7.674562946214818 7.934105828189837
Cu 8.877963038904113 10.016825651199342 7.387807388443689
Cu 7.654927953985542 9.539188029389077 9.439379113557962
