15
Energy = -39.33572817 eV
Cu 8.947816054033119 9.625015144423001 11.035783950509861
Cu 11.44648341555957 9.925202461282728 11.52753170223588
Cu 7.910409417095055 7.291397533145261 11.272466665044021
Cu 10.34752792921755 7.72268982258226 11.267082211158446
Cu 6.8782484828177255 9.01938606292112 9.886437967684415
Cu 8.968784146156864 7.762897724330903 9.178645413053074
Cu 10.895053891280156 9.193476375316774 9.316428523188014
Cu 8.502824636536333 10.443108947277771 8.763237658189315
Cu 12.461854337741158 10.94572601684714 9.43392068328296
Cu 10.216774533182182 11.504019408147295 10.127635115014945
Cu 10.620659380419413 11.123483185950134 7.720395521757357
Cu 8.472091499694336 10.720895287579733 6.378394793667501
Cu 7.351611155988103 8.69138453891073 7.483312977206471
Cu 9.764149814455244 8.89921470325514 7.2091427670739066
Cu 6.844216305822928 6.760607788030007 9.028089050934097
