11
Energy = -26.61170041 eV
Cu 10.07964418091385 10.503045642715895 9.945529019738036
Cu 10.542530325441675 8.08320628200877 10.335532083059483
Cu 6.907013318465597 7.245017021020456 9.207703917002187
Cu 7.5773470873515185 9.342068520057152 8.055247598995154
Cu 9.160017263392128 7.514389815734047 8.422283105909923
Cu 9.405437980825974 11.159031304190039 7.636965753179777
Cu 10.894608205659386 9.247581452374384 8.17828699890244
Cu 8.739183794942594 6.457568134363804 10.636239052181537
Cu 7.842939499720373 11.208584719075624 9.497131229564745
Cu 8.25899314230038 8.87648616859336 10.345631156756482
Cu 9.28366913709398 9.054404875973812 6.430833956924376
