18
Energy = -47.6198027 eV
Cu 9.091763266171142 11.335012 12.51718518284813
Cu 11.335012 12.544166695842605 12.523205281468147
Cu 11.335012 14.738451247895037 11.335012
Cu 11.335012 7.931572752104964 11.335012
Cu 9.33719714336383 9.173352848173137 11.335012
Cu 11.335012 10.125857304157398 10.146818718531856
Cu 13.578260733828856 11.335012 10.15283881715187
Cu 13.332826856636174 13.496671151826865 11.335012
Cu 9.091763266171142 11.335012 10.15283881715187
Cu 11.335012 12.544166695842605 10.146818718531856
Cu 11.335012 10.125857304157398 12.523205281468147
Cu 13.578260733828856 11.335012 12.51718518284813
Cu 7.1992569759300995 10.151329986697572 11.335012
Cu 15.470767024069907 12.51869401330243 11.335012
Cu 15.470767024069907 10.151329986697572 11.335012
Cu 7.1992569759300995 12.51869401330243 11.335012
Cu 13.332826856636174 9.173352848173137 11.335012
Cu 9.33719714336383 13.496671151826865 11.335012
