17
Energy = -45.29102937 eV
Cu 7.796068991480381 10.927237017949968 10.665305839358851
Cu 6.362492294831021 8.844278359697032 11.231717362549672
Cu 8.808104643035056 8.828047782410179 11.455824258082387
Cu 9.884729071667254 10.03399497956693 9.606539483274716
Cu 8.292048614684427 11.240101481137602 8.274955383269958
Cu 5.746941855768988 7.426216768980648 9.121641539579578
Cu 7.64570812509045 6.848112886680682 10.586667115172578
Cu 7.450737885072744 9.078908624050952 9.197971132415793
Cu 10.504934007114064 10.78566821889502 7.299407023285357
Cu 9.748065535458272 7.564229495376183 9.605694668141574
Cu 8.942167682008455 8.997631269544787 7.361610706037068
Cu 6.597119971513782 8.292951923653295 6.976034946735114
Cu 11.414661238880257 8.688214257137862 8.242244725214517
Cu 7.933101068272767 6.682271551189984 8.160261962545498
Cu 10.695808439106962 8.616181197195468 5.8915071007047874
Cu 10.261232058163177 6.702409773146859 7.3912247917564
Cu 8.48984875408379 7.267816412130585 5.77927785600222
