18
Energy = -47.84735584 eV
Cu 10.674726857480014 9.432582143923446 5.569756945479063
Cu 9.341830471904265 10.679562308810365 7.192034483535021
Cu 7.897079276829839 9.212880554337369 8.5509594148407
Cu 9.918979462650048 8.21303537281907 7.539042112100712
Cu 8.489132546850296 11.618811505486411 9.444325641986934
Cu 11.800816699442132 10.002019732314267 7.577471660250446
Cu 10.827291625195521 12.078083823668239 8.67605584625189
Cu 10.126607930070882 9.839109149779723 9.33238599391197
Cu 8.2419409967125 9.601894705015143 10.929569505678966
Cu 11.799701702523432 8.073053118055793 9.224032093552164
Cu 8.14565853243916 11.788266281475781 11.90205062720524
Cu 9.454904209789026 7.60335048764169 9.979832148546441
Cu 9.080930773073856 7.909854875142821 12.399834546050457
Cu 12.388354632045212 10.465368831432375 9.9245100184035
Cu 7.433047526494976 9.695506527268691 13.175233825821257
Cu 9.732641399733394 10.235337217626759 12.997868912546167
Cu 11.065125792912145 8.984306488655045 11.423122484545278
Cu 10.455633672475122 11.523378389141321 11.077836040249085
