15
Energy = -38.73454636 eV
Cu 10.615093232349722 8.997689238275573 8.830003749254411
Cu 9.167256904489353 8.194373854589625 10.638454417916423
Cu 8.741953111592588 9.301214662969175 7.1937717379227175
Cu 10.606325836912415 6.600796689462642 9.23701617818319
Cu 9.612925395979035 8.669533568423626 5.0447649853586425
Cu 10.358941288186593 7.442301888980997 6.965698055980218
Cu 11.039064593094082 9.79608074979504 6.599472753708126
Cu 8.757702061140344 5.8076395404575925 10.563727282671014
Cu 8.782674375922408 10.393385659414731 9.540314434280178
Cu 8.40963338355836 7.230021355476428 8.497897638199682
Cu 7.517550163688757 11.297571388963787 7.671588613512579
Cu 7.205556812774072 9.5330592566217 11.22824363683435
Cu 6.865252115244778 7.291287342042725 10.395031645152994
Cu 6.853035610938653 9.139919519523705 8.783560062520966
Cu 6.496120519105251 11.334210689979223 9.839540213480765
