19
Energy = -51.72732848 eV
Cu 8.449760083962017 10.301015327898698 6.683461799102012
Cu 9.232350530561632 7.995734208943334 5.861232561338884
Cu 6.939800325720053 8.39363240546603 6.393559920237888
Cu 8.039757604049345 6.276508056197941 7.180837771374666
Cu 10.66852160992397 9.404505598739913 7.1025955068771305
Cu 7.561249776786201 11.996221841057116 8.224950447942913
Cu 6.545402761032388 9.807989512994748 8.365391011633115
Cu 10.426648031863396 6.921256926492279 7.778170065820078
Cu 8.566374433478636 8.325141385371522 8.358737221383132
Cu 6.078323903295605 7.412442322059285 8.395279710790495
Cu 9.490740268166514 10.686585728422385 8.90988684387834
Cu 7.594430749920618 5.970533527855382 9.548712432312417
Cu 11.057819390140613 8.704234801464281 9.313793115759799
Cu 7.449598035232994 10.778560245618014 10.340769037459571
Cu 9.597685765463483 7.031028039177391 10.27492807010681
Cu 7.14649558768968 8.269852405535456 10.399793778737033
Cu 9.212307553439935 9.321987180515707 10.994200282618895
Cu 11.249129409269027 8.259989496882172 11.650291672571312
Cu 11.183286474334164 10.632463283639172 10.713091044385926
