14
Energy = -35.74994712 eV
Cu 9.411032 11.775329175235825 10.3508343560198
Cu 9.411032 9.411032 11.295364875708913
Cu 11.857734277895176 9.411032 8.250602444918696
Cu 9.411032 7.046734824764179 10.3508343560198
Cu 6.964329722104823 9.411032 8.250602444918696
Cu 9.411032 9.411032 8.857846083881649
Cu 10.63037876177583 11.527787420905126 8.2515947991286
Cu 7.359853907108977 8.22917437751843 10.347996060504581
Cu 8.19168523822417 7.2942765790951425 8.2515947991286
Cu 7.359853907108977 10.592889622481568 10.347996060504581
Cu 11.462210092891022 10.592889622481568 10.347996060504581
Cu 11.462210092891022 8.22917437751843 10.347996060504581
Cu 10.63037876177583 7.2942765790951425 8.2515947991286
Cu 8.19168523822417 11.527787420905126 8.2515947991286
