13
Energy = -32.75965724 eV
Cu 8.363432399421315 10.897324095280112 7.960509710228071
Cu 10.633728545724246 10.462952430085808 8.650890961842848
Cu 6.847064937058499 9.232514393711222 7.074391591354985
Cu 12.837745696935825 9.896163477371621 9.46978154859745
Cu 9.313369772255447 8.757976500057788 7.358420357965638
Cu 6.401683063508087 10.297902431052696 9.230853973629914
Cu 10.978973778218139 8.799085706276978 10.447155509410175
Cu 8.749510318340551 10.073028447638704 10.208767939416443
Cu 7.594086359150692 8.183109763976796 9.098293844893185
Cu 6.731638178150031 9.027094359319767 11.226097335204113
Cu 11.635726486896942 8.37291859632827 8.040106080805156
Cu 9.867395263376224 7.1486203050660615 9.08779329183459
Cu 8.882384670218379 7.866863748740709 11.193599348332608
