11
Energy = -27.13520598 eV
Cu 8.241350265254912 10.061714055745496 5.964063409341144
Cu 8.90842153002126 9.931836642349422 8.381965041201841
Cu 6.663695218670978 9.297131050596418 7.578567516349482
Cu 7.087720208777125 9.219318387325727 9.961464157420039
Cu 10.45555167159907 9.42782932428624 6.440642556879224
Cu 10.675427915653044 8.212558687900861 8.480176192026741
Cu 6.832115701152391 7.17939468036363 8.729561450584974
Cu 7.528294752738305 7.073432226418055 11.066288993386353
Cu 8.634921843305182 7.865362601601052 7.138894576050346
Cu 9.333863640063845 8.607098769675984 10.461114995582978
Cu 9.074943182942729 6.560629503916096 9.233567041355855
