11
Energy = -26.31106826 eV
Cu 7.115524243219974 8.035726912632201 7.442929350142837
Cu 9.495504099145698 8.655493265669511 7.790068974240517
Cu 9.089615942109296 8.245718768905792 10.307710304628275
Cu 7.970018742634705 10.203026487778926 6.74875623356381
Cu 11.060780967731404 9.53332452408184 9.50491149430718
Cu 10.880426554436134 7.154302871101039 9.06155863320202
Cu 8.585576354879786 6.499325126231697 8.609574985417401
Cu 9.28297966371582 10.666752291845903 10.717307736888039
Cu 7.608852377562853 9.801249563158603 9.125754307476528
Cu 9.597003049204915 11.070751986119808 8.335182654210765
Cu 6.769670061107596 7.590280202474566 9.812197437418872
