19
Energy = -52.15879579 eV
Cu 10.686717198056712 10.905976480514372 7.448106614133464
Cu 9.935330710349122 10.54542872641416 10.04736489873722
Cu 11.834819757542991 12.209462185783744 9.041305113460767
Cu 12.705335005548015 9.990756747613405 13.207273718329962
Cu 11.171822938936199 11.944944189276073 13.138516968636482
Cu 11.783203051136578 7.322808618051595 9.270558402404948
Cu 10.562471541820416 12.900006520050244 10.962534485204774
Cu 9.388758345283868 12.602730400161814 8.827937515769882
Cu 7.901743324757633 8.775042415723671 9.53444691624647
Cu 7.578787683778653 11.204528109436632 10.205100308705372
Cu 12.19755152669178 9.742408780033282 9.022187715436745
Cu 8.392820216496068 10.538016839618374 8.008423576352465
Cu 9.924001920817513 8.019930692632826 10.724253353167027
Cu 10.439866121928842 9.72044708896832 12.467169208485483
Cu 10.047237309913434 8.689563589554075 8.328702393627285
Cu 12.24209628921844 11.079146864521022 11.12298330667294
Cu 8.907875954398689 11.644180896758023 12.216694875489518
Cu 8.153441779781126 9.397739771349237 11.795140832980646
Cu 12.236501864292338 8.642169504818927 11.2151928104811
