19
Energy = -52.35503856 eV
Cu 10.499278446734367 7.709512051375224 12.085383250312939
Cu 10.34988626334432 11.889261068243531 7.877907905625417
Cu 9.679342958495473 13.197439891096247 9.946124
Cu 7.951541608312944 11.80373528932659 8.675358210235842
Cu 12.112808860442637 7.901157574626839 9.946124
Cu 7.951541608312944 11.80373528932659 11.216889789764158
Cu 9.726718180732496 10.839745228146084 9.946124
Cu 8.000542328204952 7.637658571616937 11.3033566327378
Cu 9.061585157797102 9.722713703043935 12.055783820647951
Cu 11.519359521562244 9.807438088230569 8.515378803394283
Cu 10.34988626334432 11.889261068243531 12.014340094374582
Cu 8.000542328204952 7.637658571616937 8.588891367262194
Cu 10.499278446734367 7.709512051375224 7.80686474968706
Cu 9.061585157797102 9.722713703043935 7.836464179352045
Cu 11.880524243875524 11.870485661465349 9.946124
Cu 7.5702874159193145 9.652582039732307 9.946124
Cu 13.458513863331046 9.978110255253974 9.946124
Cu 11.519359521562244 9.807438088230569 11.376869196605716
Cu 9.783774208843901 8.39619755030398 9.946124
