12
Energy = -29.23513196 eV
Cu 10.419117 10.419117 11.706451739379842
Cu 8.474707708441402 13.807915409264174 10.419117
Cu 12.363526291558601 7.030318590735825 10.419117
Cu 10.419117 10.419117 9.131782260620158
Cu 10.447548836437498 7.9230358260541225 9.237861052921456
Cu 8.723221594156653 9.086228846853622 10.419117
Cu 12.199665502489987 9.355029419145533 10.419117
Cu 10.447548836437498 7.9230358260541225 11.600372947078544
Cu 10.3906851635625 12.915198173945877 9.237861052921456
Cu 8.63856849751001 11.48320458085446 10.419117
Cu 12.115012405843348 11.75200515314638 10.419117
Cu 10.3906851635625 12.915198173945877 11.600372947078544
