13
Energy = -32.83864283 eV
Cu 12.52005864935214 11.539562032597741 11.268882353222708
Cu 8.161771350647857 9.142267967402255 11.268882353222708
Cu 10.340915 10.340915 11.486896034128701
Cu 8.188721748117368 11.609613275706435 11.373887239186697
Cu 10.350880311461522 12.670382921457861 10.961962382771857
Cu 10.330949688538489 8.011447078542137 10.961962382771857
Cu 12.493108251882637 9.072216724293568 11.373887239186697
Cu 11.310519037548925 11.148483027524287 9.21385478193943
Cu 9.371310962451082 9.533346972475718 9.21385478193943
Cu 7.11949900877599 10.452555035304846 9.530321354060591
Cu 8.954718455005159 11.935740717160604 9.123591371754367
Cu 11.727111544994838 8.746089282839396 9.123591371754367
Cu 13.562330991224009 10.22927496469516 9.530321354060591
