16
Energy = -42.43171154 eV
Cu 8.732476574480634 9.497869009343047 12.330103959628085
Cu 7.6985222984155435 11.206178110420478 10.751254711981272
Cu 8.41606285158913 10.630549498967468 8.43395353887227
Cu 9.448081112096867 12.459066635716292 9.501326198265316
Cu 6.10114962347239 10.27061638227402 9.100197458819277
Cu 11.605661670272648 8.352213408877235 7.378497584581201
Cu 7.3130124004551655 8.751651647884158 7.594403148785818
Cu 9.53270832798732 8.273977393157724 8.571718110511219
Cu 9.970691855409688 10.314690943754572 10.461542553241342
Cu 9.87511915399621 7.812858443406407 10.893841303331717
Cu 7.736790944855789 8.842584324395428 10.149763041707306
Cu 10.849150241343107 10.502250015330906 8.217926604585486
Cu 11.257061404501865 9.255216352221375 12.212593792197795
Cu 11.82113210831434 8.864538204407582 9.783055836912759
Cu 11.158684817261653 6.605753711869628 9.137650255763278
Cu 9.463126381789012 9.33941768421478 6.461603667057626
