19
Energy = -51.92461806 eV
Cu 7.160762191214055 6.281072280875091 7.824706505831204
Cu 9.51225113142971 6.7648703653545645 7.853210577109712
Cu 7.613476355742206 6.93838626319862 10.076358168595197
Cu 7.931553080050097 8.041294963994805 6.370542070236355
Cu 6.611233496568691 8.642850159921363 8.309865807507931
Cu 10.074521968430474 6.899810651095972 10.272034251313823
Cu 10.178590600892024 8.76675250043525 6.59972036888624
Cu 8.757186939115401 8.331321812527227 11.737610436901285
Cu 8.885607870820131 8.798315337855211 9.13445004524482
Cu 6.716711010286492 9.12019411288496 10.7336842329721
Cu 11.380541115859831 8.166926455384878 8.631000513490262
Cu 10.746034687236158 9.25670386643933 10.74353148024516
Cu 6.844899479215732 10.92481516084564 9.132055636383848
Cu 12.603666154475675 10.105991547412222 9.479913714845802
Cu 8.275999440698815 10.307128932212214 7.225538240529335
Cu 8.62417676847582 10.664008475996253 10.815340625472986
Cu 10.569058472329221 10.488455874064126 8.194983211007287
Cu 10.793667386853086 11.639871864844816 10.282700848141136
Cu 8.886269963196657 12.116482829167017 8.813015332403962
