15
Energy = -38.50991739 eV
Cu 10.239713699988439 11.658852406628894 7.972029112741188
Cu 12.514449429137787 11.431432560647917 8.908913345500297
Cu 11.048864137995302 9.497338363663408 8.794431995805882
Cu 8.879206752484542 10.408568728334624 9.551322216958576
Cu 9.520688945943386 12.708276303826036 10.124132788801559
Cu 11.39629559374831 13.544953305750113 8.868984131177228
Cu 9.2504350775357 8.014114940111757 9.547735401531169
Cu 11.529117692191837 7.8097253436861065 10.475586522559896
Cu 11.84552634425564 12.547049562019538 10.999193197896197
Cu 7.789809970541406 11.498750360297349 11.404833816393817
Cu 12.192246303413773 10.114744284760372 10.93681641416191
Cu 10.116302031727079 11.066398182279436 11.855721452764136
Cu 8.558493169251687 9.170926721797507 11.647526727515716
Cu 9.619970571527363 7.008852385619904 11.679172073546049
Cu 10.844121990926377 8.865258261246211 12.578842513315541
