10
Energy = -24.12377744 eV
Cu 11.793473964216403 9.164992263939606 10.248924410963843
Cu 11.421630009340202 10.756859802836525 8.505532293346363
Cu 10.703490419937022 8.481184017334192 8.21929479679456
Cu 9.82651437111504 10.54657118027507 10.296600421657367
Cu 9.378640629617669 8.162068885513127 10.223245062481856
Cu 7.599092503610346 9.821018235783114 10.083009519022282
Cu 8.923798031217835 10.140289490092144 8.079395273347458
Cu 8.475889706935703 7.755903318896297 8.006131599111368
Cu 6.509161124924237 9.137568089311037 8.053296118285678
Cu 6.880408983514243 7.545644716018642 9.79667050498909
