19
Energy = -50.50561622 eV
Cu 11.638626060043054 12.569329550764893 9.628266910072913
Cu 9.287587503721262 9.019509761748449 8.972821527342415
Cu 9.578119109521431 8.183997727720874 11.633983495679042
Cu 11.473954663969083 9.114536451351578 7.778295200913577
Cu 7.934257756028428 9.651002063175905 12.740214016494468
Cu 11.881336388684833 8.84232913043874 11.801336519235843
Cu 8.806899784320391 6.8287475262021005 9.841717930631027
Cu 11.118751217685665 7.613998852533468 9.79789139863558
Cu 7.2397236577279385 10.426658300288821 8.742077565020935
Cu 11.131623534706792 11.546411463944077 7.530858572478279
Cu 9.05602513335115 10.508518244277397 7.117568667561565
Cu 7.432287485347871 8.80728956567997 10.543368587844828
Cu 13.264958241008387 8.72288927390943 9.626223271119152
Cu 9.84884223241127 10.57931704258649 11.581407861930057
Cu 9.407106296043697 11.574449747995889 9.306784723970262
Cu 7.62897866713779 11.314829506430746 10.991998351950336
Cu 5.538799135822753 10.304718374578963 10.523303915533772
Cu 11.440663625024186 10.226149845210612 9.890270895821379
Cu 13.266916798986456 10.885316609784892 8.534212232924256
