13
Energy = -32.71098069 eV
Cu 7.100481315907305 8.320889704104829 6.535797002337304
Cu 7.7990343073606345 7.276709211799753 8.567530638941609
Cu 8.40030313372163 8.502221832883365 10.545612127817101
Cu 9.171185627426857 7.002685355190645 6.602530770715808
Cu 10.15070050810829 7.8624044646543805 8.78918344162349
Cu 10.43614140809672 7.499918480468244 11.22594102420805
Cu 7.36216808444008 10.69525260383047 6.485700659434991
Cu 7.370012078906992 9.69744170039282 8.672015228963787
Cu 7.997778355400106 10.844156077792391 10.876406392400526
Cu 9.237283807942108 9.336326196109313 7.097237128568043
Cu 9.717840795462292 10.307395007668903 9.285214652653949
Cu 10.041561998949419 9.88429612643117 11.71781990690885
Cu 11.701221966781082 9.256016682925868 10.084724525426871
