16
Energy = -41.72216413 eV
Cu 9.833870719023876 7.598109477246211 8.415427195858951
Cu 11.65952490077498 12.737749463209756 9.768841480486902
Cu 7.95545047456159 9.783485956428828 10.024721808447351
Cu 9.350412516292295 9.970947479139857 7.984931033005139
Cu 11.266171385336722 8.946428703587983 6.839690891258738
Cu 7.409298635586008 8.44535423235517 8.073531267786976
Cu 9.00405681458803 8.325216488997656 6.230919543989341
Cu 9.866898610208201 8.406789597796799 10.754939326512105
Cu 9.232525114830047 10.27096001809866 12.168254016650803
Cu 11.622153677231665 9.054844000482046 9.199501928295392
Cu 7.6843091698634955 8.387925414803957 11.978113124132785
Cu 11.45249946692609 11.179045341804954 7.9632086722687285
Cu 5.977878691150715 8.422845422103599 10.063891255812377
Cu 8.012184093775257 7.0850497022435635 9.983483807126376
Cu 10.17755308933129 10.917357280309433 10.041856801749766
Cu 10.9827030171568 11.955381798028048 11.996178223255736
