14
Energy = -35.1971009 eV
Cu 8.638482 8.638482 10.455366712704366
Cu 8.638482 10.455366712704366 8.638482
Cu 6.8215972872956305 8.638482 8.638482
Cu 8.638482 8.638482 6.8215972872956305
Cu 10.455366712704366 8.638482 8.638482
Cu 8.638482 6.8215972872956305 8.638482
Cu 6.946638020048918 6.946638020048918 10.330325979951082
Cu 10.330325979951082 10.330325979951082 6.946638020048918
Cu 10.330325979951082 6.946638020048918 6.946638020048918
Cu 10.330325979951082 10.330325979951082 10.330325979951082
Cu 6.946638020048918 10.330325979951082 10.330325979951082
Cu 6.946638020048918 10.330325979951082 6.946638020048918
Cu 6.946638020048918 6.946638020048918 6.946638020048918
Cu 10.330325979951082 6.946638020048918 10.330325979951082
