15
Energy = -38.97258895 eV
Cu 9.715291962879746 9.304527486272391 11.416322084358008
Cu 7.737129137221037 8.042812001229601 11.983265574282557
Cu 7.746022689386611 10.543066842705121 12.069422413504887
Cu 8.943247056388545 7.294929664924461 10.009092213640317
Cu 7.395976427823459 9.362043579601751 9.990723893914344
Cu 8.949646141072241 11.417754116809773 10.151104629195668
Cu 11.365056881454166 10.622502287263769 10.071901307731043
Cu 11.36142381376499 8.079401531294348 9.975610013228943
Cu 9.6389611497305 9.393403786955018 8.948710879117883
Cu 9.624606748604018 9.474557660352659 6.557693510080238
Cu 7.902032697121971 8.153542227614414 7.849117955735323
Cu 10.281923688838688 7.3634662094286405 7.820799117326967
Cu 7.904427130593091 10.699029437814456 7.936852642043009
Cu 10.292535485634174 11.48682217821764 7.970919814839506
Cu 11.773302114571969 9.420705787170222 7.873191481541985
