18
Energy = -48.99425595 eV
Cu 9.9228465 9.9228465 8.603648336919852
Cu 9.9228465 11.872586119363387 12.247839404893147
Cu 7.10896061102928 9.9228465 9.893549044737847
Cu 9.9228465 7.523891252446724 8.08027501630182
Cu 7.820421031921719 11.136966924197049 7.929279675172358
Cu 8.690382729869171 11.757718238100194 10.12725387557969
Cu 8.690382729869171 8.08797476189981 10.12725387557969
Cu 11.27797080528941 9.9228465 11.787753263934372
Cu 11.155310270130839 8.08797476189981 10.12725387557969
Cu 12.025271968078282 11.136966924197049 7.929279675172358
Cu 12.025271968078282 8.70872607580295 7.929279675172358
Cu 9.9228465 12.321801747553279 8.08027501630182
Cu 12.736732388970715 9.9228465 9.893549044737847
Cu 9.9228465 7.973106880636617 12.247839404893147
Cu 9.9228465 9.9228465 13.762621128188199
Cu 7.820421031921719 8.70872607580295 7.929279675172358
Cu 11.155310270130839 11.757718238100194 10.12725387557969
Cu 8.567722194710598 9.9228465 11.787753263934372
