11
Energy = -26.17030704 eV
Cu 8.098590625216497 10.648935581501092 8.7673271300019
Cu 6.139064723875674 9.14493485868815 8.502027521179686
Cu 10.146063887868506 9.278745936348434 8.954240519336253
Cu 6.998768918261609 6.7834465708141325 8.517285129234548
Cu 9.461824123254795 6.912796065823367 8.795492255250386
Cu 8.242622654229054 8.573093226661895 7.437972366418969
Cu 7.948687083936037 8.487939077220267 9.95695457955671
Cu 9.221327023283822 10.293945344554126 10.949879509689875
Cu 10.081438055588627 7.929576376501803 10.9670211481902
Cu 9.698225700872028 10.436005940153398 6.87206030627955
Cu 10.546479647482386 8.07326923945512 6.884995635266313
