19
Energy = -50.99430602 eV
Cu 11.931314508845961 7.1743758370714525 9.444885702108065
Cu 11.983501609261896 11.224274590927621 10.002286722943378
Cu 11.98918385579662 11.51650173204776 7.632782129930033
Cu 11.393826551136794 9.195617424523022 8.10714665382014
Cu 10.01070463357235 10.764607750040263 6.518400670320039
Cu 11.066039607758139 9.124021890430862 10.572242501971909
Cu 9.09838392789332 8.674686134031132 7.155228409539135
Cu 9.611647909304788 7.588101275739912 9.233362435861011
Cu 10.36507103026078 7.069939231776802 11.502379068103089
Cu 7.956723132665301 6.670382458159146 7.757644543175446
Cu 7.785481738413187 10.695132161142073 7.645421484096511
Cu 9.87196419706984 10.933894090547941 8.888482444062161
Cu 9.889914177615612 11.117627670874528 11.304834878656397
Cu 10.13944871344715 9.22176318527521 12.8625545518207
Cu 8.575826269026205 8.751700015970565 11.13099573019487
Cu 7.417916812302442 8.659530270134033 8.983576022784398
Cu 5.74024215862765 10.349647548970363 8.86214083833643
Cu 7.994202586898053 10.554465708392653 12.618411980998745
Cu 7.723982875536465 10.82880661854617 10.159357350104363
