11
Energy = -27.29862544 eV
Cu 9.038638909090952 9.112825909090994 7.704718090909033
Cu 10.343079909090893 8.433209909090873 9.721306090908977
Cu 8.916082909090955 9.180757909090948 11.628849090909114
Cu 6.781749909090998 9.872227909090846 8.434339090909154
Cu 11.444642909090875 8.481851909090961 7.574213090909157
Cu 6.675519909090904 9.873748909090873 10.86130409090911
Cu 10.894414909090967 10.470628909090918 10.887305090908992
Cu 7.936024909091031 8.171067909090999 9.669119090909081
Cu 10.806057909091065 10.609287909090876 8.478494090909058
Cu 12.613839909090865 9.35796090909102 9.513200090909084
Cu 8.710707909090903 10.597191909090974 9.68791209090911
