13
Energy = -32.1277514 eV
Cu 9.073092528099282 12.4967801948242 11.634396543670588
Cu 11.146175 9.891757190184604 10.108386614012732
Cu 9.09489637114587 11.146175 9.663338790811745
Cu 13.219257471900718 9.795569805175798 11.634396543670588
Cu 11.146175 12.4005928098154 10.108386614012732
Cu 13.19745362885413 11.146175 9.663338790811745
Cu 11.146175 11.146175 12.21948553391474
Cu 13.219257471900718 12.4967801948242 11.634396543670588
Cu 11.146175 13.569315071238492 12.202360209592046
Cu 11.146175 8.723034928761498 12.202360209592046
Cu 9.073092528099282 9.795569805175798 11.634396543670588
Cu 7.15775666262999 11.146175 11.097516031284608
Cu 15.134593337370005 11.146175 11.097516031284608
