10
Energy = -24.09388596 eV
Cu 8.394697123305447 7.069279163184673 7.512303132666275
Cu 10.748355487375115 6.58745560448759 7.247714940032782
Cu 7.41446407151733 9.178179206247837 8.09416097062398
Cu 9.909264566252498 8.898372620288582 7.648854242796198
Cu 8.973026580535011 10.927182655992295 8.516478892199297
Cu 7.651621754758174 7.473073515820366 9.808893918579193
Cu 9.991653195637165 7.1643544938421355 9.40135714968593
Cu 7.94444041008499 9.757372551333399 10.432771280202026
Cu 10.280103212411827 9.464197279718304 9.980808225983077
Cu 6.68043307607765 11.300463040943471 9.176587313160404
