17
Energy = -45.00903325 eV
Cu 12.48646991948273 10.943251201290602 10.937705331609804
Cu 11.068453456231017 11.640995051369812 9.087610583612804
Cu 11.772306421219124 9.088041542338015 9.669458003528305
Cu 9.406460861322664 11.620258604374943 7.143900781039209
Cu 9.669344656827198 9.772430081124869 8.551312475621822
Cu 11.78365319874398 6.733806753082157 9.728425412736106
Cu 10.140827738148067 10.341079883551721 11.004875512297463
Cu 10.417826283606592 7.5888471654822665 7.896465069408909
Cu 8.688850950101072 8.828664349524107 12.291363923752941
Cu 8.623340364181606 11.787664902348004 9.516619430317895
Cu 9.727331828605424 7.8822828783338075 10.270150290239629
Cu 8.001459351851363 7.968682247397786 8.385661945374112
Cu 7.727886958761693 9.61282958802698 10.200532838506629
Cu 8.980890332815925 9.117005716364378 6.412011589714687
Cu 8.15781845372434 11.257360513570566 11.927070837182677
Cu 7.389254790134109 10.354067349168904 7.83675966977417
Cu 7.482469793641337 7.263668306708539 10.724329116183977
