14
Energy = -36.09282858 eV
Cu 13.822131301399654 10.470467 10.470467
Cu 9.236420736736852 10.470467 11.672402824961035
Cu 11.704513263263145 10.470467 11.672402824961035
Cu 10.470467 12.578195136985512 11.64936721514348
Cu 12.574759652016724 12.542820699657534 10.470467
Cu 10.470467 8.362738863014483 11.64936721514348
Cu 11.704513263263145 10.470467 9.26853117503897
Cu 9.236420736736852 10.470467 9.26853117503897
Cu 10.470467 12.578195136985512 9.29156678485652
Cu 10.470467 8.362738863014483 9.29156678485652
Cu 12.574759652016724 8.398113300342466 10.470467
Cu 8.366174347983277 8.398113300342466 10.470467
Cu 8.366174347983277 12.542820699657534 10.470467
Cu 7.118802698600344 10.470467 10.470467
