16
Energy = -42.27040743 eV
Cu 7.634503553065567 11.595020751855724 10.17862904541509
Cu 8.24661468223606 9.855350840290054 8.474619953512255
Cu 8.637246732960241 10.281810353766447 11.892758522816214
Cu 9.08634207664312 8.120979136383673 10.816646633483375
Cu 10.773976299017635 9.21113773241273 12.297170840842531
Cu 6.93963282240701 9.27987543522438 10.420963920211975
Cu 7.743120965525369 7.498964068459044 8.929199366948396
Cu 12.611095364204163 10.101351903335198 10.894175550812237
Cu 11.598029882331515 7.919797978611992 10.441463747060222
Cu 11.783974695977058 11.715861655135978 9.152211991605625
Cu 9.360093671193521 12.023207787912266 8.600028452771433
Cu 10.10726501515748 8.030686656422642 8.499460663258294
Cu 12.303695052681485 9.297485533152877 8.595912291736399
Cu 10.482401774599918 10.288616299554253 7.435765131713176
Cu 10.325492132523122 10.065246193488921 9.987310635427495
Cu 9.919883279476457 12.267975673994249 10.937050996683793
