10
Energy = -22.91958593 eV
Cu 10.021653878473586 8.450288262415514 7.860079337523695
Cu 7.3301740780566185 6.406210564824189 7.111909515112607
Cu 9.592734523673148 6.067018135453882 7.849359878597043
Cu 9.145159962238065 7.328504048486908 9.7879116061223
Cu 10.190075024624313 10.818588034623945 8.223961970947027
Cu 7.5578611132722315 8.441885456186903 11.1915662584161
Cu 6.8626846180463374 7.697578159854639 9.025821380236497
Cu 7.6555480301296654 8.804369246162043 7.059436090292754
Cu 7.9481880872236434 11.158323589512737 7.448770227065494
Cu 8.381945450235326 9.618888217339949 9.255929479949161
