19
Energy = -51.60127698 eV
Cu 7.873580578917743 8.229877335652002 10.662101571734864
Cu 7.08189925847851 10.51826913647977 10.307096008033252
Cu 8.310547613012357 9.405198483493159 8.516533823270661
Cu 9.096836899531683 11.885876025680782 10.8017013920712
Cu 9.27720153719167 10.79006255068019 6.745532776513991
Cu 8.27293907035332 7.655344019756381 12.975208326755775
Cu 8.030065955335015 11.866151094528202 8.549447412763987
Cu 11.714404524656695 11.071258361634039 6.7322818845563
Cu 8.40243131928058 9.944480154464173 12.241860559945822
Cu 10.599268696053409 10.684114437711878 12.546103253397929
Cu 10.716707618833473 9.115985373429142 7.773728085235993
Cu 9.680969535511844 7.532631648238723 9.316620564855592
Cu 10.30382542440841 8.118952069372328 11.752916149668883
Cu 10.432622529980403 11.881127910855298 8.619728158744813
Cu 10.276197283324857 9.862605583851982 10.164171816254626
Cu 11.615156809465546 11.91138558565465 10.735288741914326
Cu 12.458710604323967 10.407050395502567 8.993337402530722
Cu 11.967043107052604 8.075751050570538 9.699043746643145
Cu 12.448348807123255 9.676078745424094 11.405034232707013
