19
Energy = -50.97352751 eV
Cu 13.064447070700803 10.546217328888691 10.169760944484578
Cu 12.486417340860248 8.40135920951819 9.198155831808341
Cu 11.042666055801247 10.39324690408499 8.759440140142853
Cu 11.105427026125522 11.6602691870483 10.998391638898854
Cu 10.542092441374015 9.894624999222387 6.400195236058146
Cu 10.546548023335276 8.003539593035901 7.8619824701317595
Cu 8.867077316697065 10.95424937893743 7.743961068912795
Cu 11.092478693042981 9.26756660865277 11.01402137686767
Cu 10.570618736584919 7.116638311711144 10.086538894931431
Cu 9.444542161933333 10.37286227552654 12.440862236390537
Cu 8.47067838151911 8.663169205737944 6.911509050792035
Cu 8.817828920990099 8.331575459439103 11.198771620958269
Cu 6.687123268599747 10.215289691360026 6.815124995319072
Cu 8.43478611349457 7.328477565116805 8.96393339237765
Cu 9.003489060481481 10.942314870320617 10.163109429008232
Cu 7.178727201139861 10.041704759149967 11.521872986912529
Cu 7.239496157472396 9.740609368380763 9.096836473520804
Cu 6.303352438517967 7.920474957880456 7.877422020295872
Cu 6.542931382599536 7.861013854005105 10.404634263718624
