12
Energy = -29.92471155 eV
Cu 10.294654 13.547716567845116 8.671715554324628
Cu 11.515832079644703 9.098937669054074 9.055660639249702
Cu 11.515832079644703 11.490370330945929 9.055660639249702
Cu 11.491136708804275 10.294654 11.176318021692481
Cu 10.294654 12.564003970419694 10.855710132297672
Cu 9.073475920355293 11.490370330945929 9.055660639249702
Cu 9.073475920355293 9.098937669054074 9.055660639249702
Cu 9.098171291195726 10.294654 11.176318021692481
Cu 10.294654 7.041591432154887 8.671715554324628
Cu 10.294654 9.058120861345722 12.952858885335397
Cu 10.294654 8.025304029580303 10.855710132297672
Cu 10.294654 11.531187138654277 12.952858885335397
