17
Energy = -38.61340901 eV
Cu 10.561781794583508 14.36914466774938 12.790466322806072
Cu 11.951101785516235 4.926694741586012 14.517620379712945
Cu 11.302889803146028 16.97715414244574 12.95154283531665
Cu 13.145839763479527 17.23228965471856 11.259363735764058
Cu 12.118669923967895 13.361753587686522 11.097830600676122
Cu 11.346262414069608 15.657962371365835 10.746614329738419
Cu 12.452332966244066 13.065201058619593 13.844676283088813
Cu 12.538575375244857 6.862904083499517 13.387572468972726
Cu 12.808734329589294 15.18036644552936 12.615329152426584
Cu 13.797850798572439 15.031207387044011 10.416286987012402
Cu 14.355529340758297 13.3822592445014 12.253866788336584
Cu 11.769568980007035 5.422618501338802 11.756395440280073
Cu 13.48207227433226 4.349673552640492 12.88383592812741
Cu 14.2546969325341 14.6199044045546 14.473619641738702
Cu 13.479767569272925 16.924052252104826 14.239854995401217
Cu 15.01433492367739 16.031399757829366 12.4601509530646
Cu 11.804511395530444 15.232772666764735 14.816579423159176
