14
Energy = -35.80671011 eV
Cu 6.574598275166925 10.08473910100708 7.798902076106221
Cu 8.936031851403193 9.86468488640308 7.753452281336117
Cu 10.692004709252119 11.445111797612737 7.463701705611815
Cu 7.517888392932134 7.884695680524781 7.7773349635654085
Cu 11.163418130314383 9.466779652457086 8.70489695981915
Cu 8.337342787015057 5.673736964883347 7.746771415698092
Cu 7.641686002747142 9.383176685861486 9.823157343387035
Cu 9.675872537509868 11.090160625005426 9.744026659398317
Cu 8.578907936204418 10.421812757198724 11.802904374684172
Cu 9.88335194979636 7.50093312534633 8.172062355632244
Cu 7.810437053197879 8.11344197568811 11.861447913547561
Cu 9.798653689224007 8.654138917673261 10.517576219437656
Cu 8.202676338344318 6.832252637645401 9.875813312971994
Cu 10.673741735629187 9.04123744222633 6.380345007947314
