14
Energy = -34.73667107 eV
Cu 6.607995304010859 11.437237756168294 8.359542636849277
Cu 9.024127230760456 11.586810660085453 8.373145924972281
Cu 11.435796688704865 11.496593247879819 8.456426311552304
Cu 6.524234297161525 9.024204212160246 8.28312493574468
Cu 9.060084885298048 9.05404466975921 8.126491905539222
Cu 11.589838899235636 9.078767596019436 8.382775573518815
Cu 6.667343745464233 6.610315320138768 8.283605311077727
Cu 9.082468129998519 6.5252346458087125 8.289479664110875
Cu 11.501596265331717 6.661497966727743 8.373689155631627
Cu 7.8307071167784335 7.8050411425301345 9.940280276855683
Cu 7.800734884355238 10.219011886004777 9.971454420452034
Cu 10.217752380399606 10.253834941247646 10.026864329994526
Cu 10.250604192805499 7.828884663676138 9.981207255441308
Cu 9.00275906839565 9.014564203093354 11.747955209558986
