14
Energy = -35.82739926 eV
Cu 8.77592037648504 10.026628 11.668374828243458
Cu 8.75255652930597 11.230215535425824 9.460698057745
Cu 10.026628 12.114581820066157 11.297641788716874
Cu 10.026628 8.803642800572106 7.401220794667845
Cu 10.026628 7.938674179933841 11.297641788716874
Cu 11.300699470694035 8.823040464574177 9.460698057745
Cu 12.096425548340653 10.026628 7.436941728896009
Cu 10.026628 11.249613199427898 7.401220794667845
Cu 11.277335623514961 10.026628 11.668374828243458
Cu 11.300699470694035 11.230215535425824 9.460698057745
Cu 8.75255652930597 8.823040464574177 9.460698057745
Cu 7.956830451659348 10.026628 7.436941728896009
Cu 10.026628 8.840403889740154 13.46082061613498
Cu 10.026628 11.212852110259849 13.46082061613498
