16
Energy = -41.85356543 eV
Cu 10.872757664429935 11.991241852950994 10.528900184837271
Cu 8.355580335570064 11.991241852950994 10.52890018483727
Cu 9.614169 10.841927453109534 12.260038935148502
Cu 8.2368909919499 9.614169 10.633548688974814
Cu 9.614169 10.991447008050097 8.594789311025181
Cu 10.991447008050097 9.614169 10.633548688974814
Cu 11.991241852950994 10.872757664429935 8.699437815162737
Cu 7.237096147049006 10.872757664429935 8.699437815162737
Cu 9.614169 8.386410546890463 12.260038935148502
Cu 9.614169 8.2368909919499 8.594789311025181
Cu 11.991241852950994 8.355580335570064 8.699437815162737
Cu 10.841927453109534 9.614169 6.968299064851495
Cu 10.872757664429935 7.237096147049006 10.528900184837271
Cu 8.386410546890463 9.614169 6.968299064851495
Cu 8.355580335570064 7.237096147049006 10.52890018483727
Cu 7.237096147049006 8.355580335570064 8.699437815162737
