15
Energy = -38.72812095 eV
Cu 9.623751387518562 10.120230102396365 7.214344013480744
Cu 11.230665100433326 11.809233647140333 7.93109189735534
Cu 11.685061352422041 9.459271873372261 8.2204694691151
Cu 8.853473288262414 12.048415604022114 8.422362724120582
Cu 9.606242711212236 8.676702196145536 9.242745809803779
Cu 7.608662189858226 9.931841099576921 8.60436403834695
Cu 12.401642072916884 11.028381653973657 9.933983152374235
Cu 10.474843295709487 12.508483269667018 10.113570865588299
Cu 7.664239281379929 8.652849929404946 10.73834679554598
Cu 11.662818781080466 8.784385263502035 10.588382395554378
Cu 8.74830683104266 10.841992762856451 10.581165767760831
Cu 9.74942284184332 7.539021279118252 11.388743700914105
Cu 10.872328748803655 10.783721151986752 11.826971208569507
Cu 8.974437066980103 9.517809588168689 12.609688194724775
Cu 11.216361889106743 8.669917417238718 12.956026805315588
