19
Energy = -52.13663385 eV
Cu 12.24102522406957 9.039377834113818 9.624412286496886
Cu 11.13965166946867 7.243657632493367 8.284575299194303
Cu 7.331993905225866 8.93224634328476 8.658643005613719
Cu 9.82023224032225 8.997604445287642 9.362800604527944
Cu 8.734246359657531 10.84121772476258 10.722638880790338
Cu 6.962814179794727 11.268544129404567 9.08811851681057
Cu 11.106324045925389 9.606434063838224 7.403341392653808
Cu 10.615125534533986 12.019705894429404 7.163042088571757
Cu 10.872615257648619 7.337331018062619 10.803239386569114
Cu 8.93221832567668 6.747194724633868 9.35692503897613
Cu 6.61434404966117 9.632868025349225 10.900034267934187
Cu 10.759715092946093 9.687928693565462 11.500469124757096
Cu 8.804745671752896 10.53382278599417 7.609474691909927
Cu 8.631475277595296 8.361410759507569 11.376662952575881
Cu 9.084795844355916 8.058810713329866 7.179997863778693
Cu 10.89948475982782 11.155705099580102 9.449256558652902
Cu 7.104824513471942 6.696993940634184 7.795948462816865
Cu 6.701998655589293 7.255445005423763 10.215729583435206
Cu 9.004319140954168 12.573207458696531 8.95846852981126
