18
Energy = -48.52709688 eV
Cu 9.96752820303935 6.604800523611316 9.0836176327371
Cu 10.601236250586577 9.153163495719712 12.185745667446117
Cu 10.93737445015545 8.544907042030506 9.862937483179683
Cu 8.641023724916163 8.213245810687571 11.13342035548648
Cu 7.644105802498904 6.399810907137556 9.464721118516255
Cu 12.0944099408315 10.45197122111178 10.676010376122015
Cu 10.500308472894998 8.45321698288804 7.3509805014841865
Cu 8.665783258578589 6.850237099286955 7.0605920264934285
Cu 6.517232312720538 7.706057247298601 7.7048903084270615
Cu 11.0866937162235 10.57942187782424 8.467505146727973
Cu 8.484318133592877 8.663622357984694 8.828707358892975
Cu 6.480775326451339 10.075897720084852 8.13916175890505
Cu 9.702945913675707 10.625529835779673 10.497075468145846
Cu 6.298692226227664 8.334541309949303 10.078674517581506
Cu 8.195298162781462 9.248856841587319 6.519039265106902
Cu 10.114506217907667 10.654124649106157 6.2918086827622295
Cu 8.68846251753094 11.118620823419345 8.24061412407888
Cu 7.400431297292597 10.413912248912975 10.366146477822658
