11
Energy = -27.14068122 eV
Cu 11.158147792375125 11.335750492555974 10.96014883203466
Cu 7.947023821658005 9.899663124836794 8.781241389274985
Cu 9.886636915084896 11.393055119041644 8.938149844069697
Cu 12.021104739366836 10.120221139955436 9.037300895054658
Cu 11.307478548814096 7.726223186901818 8.899664301420207
Cu 8.852884029694936 7.5723407152045485 8.874330510720029
Cu 10.062483550095548 9.367162200571618 7.667768208486458
Cu 10.083419538583646 9.245264554873525 10.238918982851974
Cu 8.658952790069888 10.930412344213993 11.02751587813442
Cu 7.698551182853638 8.699841076645058 10.818067781849422
Cu 6.501540844731223 7.894003901755407 8.911757127276177
