13
Energy = -33.09270644 eV
Cu 10.455884 12.800369252134843 12.644698555419957
Cu 9.262136587249962 9.2002218413227 10.690012359806996
Cu 9.262136587249962 11.711546158677296 10.690012359806996
Cu 9.232808341267278 10.455884 8.601370949784632
Cu 10.455884 12.51687195813747 8.580713274508545
Cu 11.649631412750038 11.711546158677296 10.690012359806996
Cu 11.649631412750038 9.2002218413227 10.690012359806996
Cu 11.678959658732719 10.455884 8.601370949784632
Cu 10.455884 10.455884 12.477997014394793
Cu 10.455884 8.39489604186253 8.580713274508545
Cu 10.455884 7.048360396759085 10.517439993475246
Cu 10.455884 13.863407603240917 10.517439993475246
Cu 10.455884 8.111398747865154 12.644698555419957
