15
Energy = -39.10005584 eV
Cu 8.268175622730968 6.126904426380713 9.749675281139801
Cu 7.148850367096285 8.342044216829533 9.597641928880309
Cu 10.721323608087339 6.36617717153691 9.537739699902772
Cu 9.227645005524058 7.4318594111725185 7.968350659178533
Cu 9.470650699322185 8.229282299484378 10.402231435954532
Cu 8.20436268408522 10.253241055982434 10.703791576976766
Cu 11.226329633257961 8.671866673054195 8.781028837705982
Cu 5.381922622770277 8.712697357763881 7.986866645990701
Cu 11.402049917545494 10.96999308386497 8.049902531674462
Cu 10.627492047761132 10.416875913034353 10.356833469535113
Cu 6.87999567981744 6.785729444993153 7.789570289690062
Cu 6.628430135053953 10.620902807126907 8.807120219641279
Cu 10.063520763550624 9.387985819993958 6.733199573123463
Cu 9.068462090772485 10.595999171523928 8.516164655312982
Cu 7.634583574647341 9.059697714599235 7.1715221405252825
