15
Energy = -38.64534281 eV
Cu 9.495805743788264 7.551735050791799 5.383531618321465
Cu 7.160361548569207 8.339544002479245 5.360849404296017
Cu 8.566596579594602 8.831346653695265 7.265783803062936
Cu 6.649799962938996 10.276656256264662 6.971460943468045
Cu 7.952153872443427 6.430113429702991 6.840408478915649
Cu 6.064584399382081 7.936226262844437 7.430822173083772
Cu 10.274550666769272 7.09536726972075 7.630667050904717
Cu 5.176599231152487 7.583429632578245 9.606987461196814
Cu 9.075743009899021 5.2636308438527335 8.639102292056522
Cu 10.355402925975774 9.141280314240005 8.891098085802659
Cu 8.44033171486686 10.755157267906403 8.741759537903867
Cu 7.587607310885299 7.118514369944564 9.243956012477277
Cu 6.553076430732368 9.451285201211263 9.276449757223428
Cu 9.926758305324617 7.054351743119345 10.049856791978007
Cu 8.577874531111613 9.02860793508261 10.524512822742413
