17
Energy = -45.06084192 eV
Cu 10.195663336850597 10.608514267360194 9.986403839149649
Cu 6.095187659444341 10.148924527852055 9.98778464089562
Cu 8.119668938113879 10.98509943589946 8.88558220836794
Cu 8.243907904104027 9.632680502971603 11.009695444129264
Cu 10.005085424990583 10.34740325890574 7.486785827514811
Cu 10.340800502065946 8.318782909157882 10.874251031438115
Cu 11.700443858148068 9.159622543216127 8.892263889493764
Cu 6.003533867847036 11.438801157682695 7.917587213750222
Cu 6.737719547311764 9.180220751258133 7.831245924654646
Cu 6.875290834428644 7.860259182130697 10.019062168425487
Cu 9.075948850773447 8.482998592101966 8.774976692820832
Cu 10.995444706288318 6.860005499369771 9.04223057998355
Cu 8.486021360365301 8.339543837565474 6.3718366147711505
Cu 8.728867063869972 6.241310935046888 9.725866348355982
Cu 10.864701048738237 8.126200883125723 6.881107478124217
Cu 7.196946342560966 6.8248150624230295 7.875542115986373
Cu 9.422189752173647 6.229042803628596 7.316311633321591
