22
Energy = -61.1073131 eV
Cu 8.638209664461057 9.643753765009086 10.717436
Cu 10.717488455223792 10.418523702675886 11.926896334092605
Cu 10.71721366828336 10.5253792050097 7.133724907799439
Cu 10.717253671029729 8.257343225753518 10.717436
Cu 9.460443982463191 8.70616541559018 8.507016734874712
Cu 9.460443982463191 8.70616541559018 12.927855265125284
Cu 11.973957230743828 8.705547346451446 8.507197118599521
Cu 11.973957230743828 8.705547346451446 12.927674881400474
Cu 12.84947855239828 11.097865735019743 12.785919268455919
Cu 10.717742913910268 12.64039971411085 12.82374317883855
Cu 8.585494759807782 11.098358497067172 12.785871395664966
Cu 11.992629622252094 12.23234640892516 10.717436
Cu 9.44265205504823 12.232374039069262 10.717436
Cu 10.717488455223792 10.418523702675886 9.507975665907392
Cu 8.585494759807782 11.098358497067172 8.64900060433504
Cu 12.796578966425928 9.643523967897924 10.717436
Cu 10.717742913910268 12.64039971411085 8.611128821161447
Cu 12.84947855239828 11.097865735019743 8.64895273154408
Cu 10.717524846979401 14.22728541133999 10.717436
Cu 14.24135315026156 11.581020629742932 10.717436
Cu 7.193751025731755 11.58146544826307 10.717436
Cu 10.71721366828336 10.5253792050097 14.30114709220056
