21
Energy = -56.6471802 eV
Cu 6.469453121901358 7.984426534090588 9.117735439001274
Cu 6.689025715696833 10.105844137915785 10.280994414925651
Cu 6.980930286594036 7.941409993182829 11.474278027956604
Cu 8.231483373679714 11.740370992084113 11.306270969234877
Cu 8.330232863089837 9.46892987138043 8.484930748651292
Cu 7.903946451050005 7.255729553590893 7.346246609689551
Cu 7.759245069924757 11.836066050835514 8.942258532890873
Cu 7.0959110709425275 10.062235693264327 12.705088533329786
Cu 9.088440435406921 9.107287883106135 6.271337379741603
Cu 9.254777234127548 11.379384273975447 7.136670010284958
Cu 9.255536331807043 5.477364384857054 8.43394016367657
Cu 8.753671800664709 7.331943278714969 9.856916529186831
Cu 8.880246338976837 9.411028084088306 11.24114401872225
Cu 11.03538196347815 9.773973329738794 7.685692922462005
Cu 11.411666405117474 12.101265320792995 8.113290698986708
Cu 9.971248150651354 11.032211448890068 9.691884097718686
Cu 10.302678236941693 7.539918971421813 7.796324590113582
Cu 10.823651400904275 8.712037637736056 10.128230171488845
Cu 11.12292826834227 6.356207650289456 9.78072108996701
Cu 12.43301052889026 10.407108118509324 9.587701924404792
Cu 12.571132816716966 8.083947022364166 8.672897333387914
