25
Energy = -69.07827183 eV
Cu 13.22047693284906 13.27688759212396 9.489187147290822
Cu 10.883503565435072 13.51153256664429 8.954386583395662
Cu 11.454910349710676 13.24689048277975 11.232784930859731
Cu 13.00364066168439 11.275591244932292 10.781263364166287
Cu 12.080376353730733 11.372096395918044 8.417532972027917
Cu 9.51858689357503 11.666429355120895 8.243315508748692
Cu 9.008932556384332 12.823404817081212 10.443944938439932
Cu 9.995796684454923 11.795475849694153 12.597695443769766
Cu 12.112418081054356 9.214819260232307 9.661517444831876
Cu 11.575907340362928 9.835133508851484 12.206747813939462
Cu 10.512812747297387 11.006028730847364 10.337831272273966
Cu 12.398187379704806 12.013511864417742 13.034176347591522
Cu 6.835490828185828 6.5730967883942 9.039398505107194
Cu 6.407004647198881 8.901525871982102 8.593281140283423
Cu 7.343287123136806 8.31554701075402 10.689834037975366
Cu 9.037260510022273 6.514551228042877 9.995588278038982
Cu 8.649381751392902 7.507451476737583 7.7550440570994015
Cu 8.22646428901772 9.885654778703785 7.463196986054727
Cu 7.81277706455867 10.717644131637359 9.86538744498183
Cu 9.092126176635261 9.66081901503882 11.881674199722628
Cu 11.000031618661753 7.293841117763712 8.687505250751878
Cu 10.847262744546203 7.7816395748703355 11.188738467645841
Cu 9.443463838240614 8.965180796741608 9.517241393169163
Cu 8.783037745182204 7.2881733826929915 12.320379290078066
Cu 10.720829963498899 9.52104100451839 7.566315028276582
