28
Energy = -78.74381838 eV
Cu 6.80929896948373 10.903083801853525 15.023303327843077
Cu 10.175698833583727 11.093116022261832 13.204639692292801
Cu 11.706005043252956 12.277460581842579 14.649521634121802
Cu 11.106087300181692 10.914929139361293 10.931030628400304
Cu 12.145230968773394 12.438833029891994 7.770261093137193
Cu 9.762506008262099 13.473772042345503 13.663922363292805
Cu 13.756819598391512 13.774308385251981 9.066841275861602
Cu 8.774758162411304 10.271627226683773 11.310659593066656
Cu 13.313538137755696 11.743427402563757 10.63640068750786
Cu 11.421981329836726 13.329339594844237 9.89889027073695
Cu 12.520682741031878 10.444275788471998 13.001798724338702
Cu 14.777267297131171 10.375621584212416 12.082363360889513
Cu 12.516119731428105 14.430623642288984 13.753563694458554
Cu 10.118206438728981 11.488332572508188 8.895798687217022
Cu 10.478366592357371 9.034396699980476 9.736632503946051
Cu 12.409026870844981 10.244180972277622 8.771653849125599
Cu 11.668776219564563 12.86972425287022 12.248347434504073
Cu 14.43038868182414 11.694029786983435 8.212082147636016
Cu 8.441526586899908 9.606189044120688 13.748672945745662
Cu 14.800349497874855 9.938414330113886 9.740313466538742
Cu 12.795994112973803 9.115088306790664 10.96777490524608
Cu 13.923542192691517 12.433754044635359 13.124531870482663
Cu 9.102226325526773 11.632192287913057 15.229318721069006
Cu 9.379744825824996 12.672717093737079 11.23944357615299
Cu 10.576278558339146 8.883503118172099 12.302050062855086
Cu 15.488936267223364 12.393727745486046 10.399109478171427
Cu 7.8698411116134155 11.943056952789984 13.085397749803608
Cu 13.55965888874078 14.122902619034152 11.421684610415618
