26
Energy = -72.81545689 eV
Cu 7.640982953390525 9.416506615326098 9.318387563887903
Cu 11.916215651394333 9.420428648636088 8.921045920989577
Cu 9.847562295255376 8.273693358862847 10.139724736928681
Cu 9.979554971870192 13.039792056081849 9.08116269647653
Cu 11.904235597113754 9.776315028714858 13.904740906416695
Cu 13.751798326910999 9.734575945736852 10.577334168644683
Cu 7.796790255775193 11.826770181696917 9.97412239298872
Cu 14.014025284733563 10.665577538068062 12.838739355280666
Cu 11.95250436138413 11.946909063612638 12.685132285484134
Cu 9.747931252732139 10.823077918969544 13.480750519091407
Cu 11.46146071854878 11.609641639665309 7.694473015924636
Cu 7.791629615423248 12.123870001122436 12.507395730296214
Cu 9.879073703701646 13.364909315429053 13.148193408153935
Cu 13.28983959829892 8.368898741125884 12.512122524434703
Cu 13.883135310823004 12.279546120765406 11.012913827930815
Cu 8.684916243111662 13.959294519336972 11.009978074612434
Cu 9.96702230622833 8.421762862243005 12.92141527015289
Cu 13.752351234988174 11.212685862682852 8.645149105553488
Cu 9.731095217627212 10.523864083012958 9.160147134999105
Cu 11.849288912574064 11.575901709132825 10.065125450409955
Cu 12.60226728226559 13.475568337148214 8.935337470252916
Cu 9.839930976094813 11.883766057350055 11.304730255332462
Cu 11.302234979124787 9.71244746990718 11.500684816903545
Cu 12.24722495292566 7.649955064173594 10.48586201512758
Cu 11.325801522197008 13.8059158643527 11.101201357188474
Cu 8.50678134455881 9.847474957230062 11.516434359128718
