21
Energy = -57.97941559 eV
Cu 10.704821 14.38289234381644 8.790300610743397
Cu 12.778909498770178 11.947854328010319 11.642494328299158
Cu 12.690230100662282 13.122922256015698 9.506441788924985
Cu 12.690230100662282 8.286719743984301 9.506441788924985
Cu 10.704821 11.931101284439546 8.692391569847445
Cu 8.719411899337722 8.286719743984301 9.506441788924985
Cu 10.704821 9.478540715560456 8.692391569847445
Cu 8.627656214395959 10.704821 9.473801485981534
Cu 10.704821 10.704821 10.868051664170247
Cu 12.781985785604041 10.704821 9.473801485981534
Cu 12.778909498770178 9.46178767198968 11.642494328299158
Cu 10.704821 13.207765554942196 10.927228294384122
Cu 8.720013720039699 10.704821 13.739080744227753
Cu 10.704821 9.466421498271886 13.04591966435669
Cu 8.63073250122983 11.947854328010319 11.642494328299158
Cu 10.704821 11.943220501728117 13.04591966435669
Cu 8.63073250122983 9.46178767198968 11.642494328299158
Cu 8.719411899337722 13.122922256015698 9.506441788924985
Cu 12.689628279960303 10.704821 13.739080744227753
Cu 10.704821 7.026749656183559 8.790300610743397
Cu 10.704821 8.201876445057808 10.927228294384122
