23
Energy = -63.21054697 eV
Cu 7.344927136607254 9.89740966372118 11.98826026266621
Cu 9.652775888288097 10.082224734350632 12.827746767705152
Cu 12.006726424780728 10.37686906122889 13.107154683937903
Cu 11.532956801690665 10.358709821666821 10.049010137764885
Cu 13.486252336098683 9.721516282460954 11.31025107233965
Cu 11.139937276315068 14.08133029746413 11.053483636553944
Cu 9.261176378453499 13.617040407444838 9.426836768826817
Cu 8.763915166884093 13.984047194229932 11.732174998992697
Cu 9.248217772934597 9.021747792849347 8.048194993783115
Cu 11.522743987443588 12.573462200875774 9.095286801774332
Cu 13.082377557418976 8.12726911058976 13.052630320521912
Cu 11.127335892634125 8.494664001495034 11.730513409000602
Cu 9.185812386082514 9.532365225923707 10.44635482999188
Cu 13.070523780717876 7.3671583501699125 10.712837711553604
Cu 10.016452675218384 11.936126475020714 11.063994989474685
Cu 10.673362528291499 12.464306279259443 13.240007432361772
Cu 8.216244456661364 11.978763476605284 12.891612434441068
Cu 7.73041081576476 11.811974435448093 10.439719122340653
Cu 9.435822802112089 11.310661371090486 8.686151906085145
Cu 13.253329471995002 9.045395685270082 8.919525962039241
Cu 11.072830185734137 8.082060781092258 9.305843711898673
Cu 12.512903767345145 12.093535597359432 11.451653566532379
Cu 11.400727739495684 10.214921201717642 7.697687529582577
