27
Energy = -76.41625641 eV
Cu 7.275983461708228 6.192746303253156 8.768731879245752
Cu 5.854112004888208 7.963856649014153 7.733238678522781
Cu 5.9976140510492275 7.930094684326423 10.153172429148976
Cu 8.310719161184394 7.503917606064299 10.55011125171152
Cu 7.267314809399833 9.729444908871816 11.355145470531042
Cu 7.022490785138686 9.743865180331605 6.517195241362697
Cu 9.786269918744855 6.496906095079636 8.865537624372116
Cu 8.23130765088252 8.19195468767296 7.87797680333423
Cu 9.37072985388237 11.25841106820605 11.985718301481205
Cu 6.7176235614750945 9.930365024371664 8.982680010777797
Cu 9.2695445452882 8.848268615129317 12.390908047608766
Cu 10.761771428956429 7.837835980833019 10.712633678807284
Cu 9.324865135779786 9.70997213984544 10.02311305894781
Cu 12.24635756440828 7.28102590575155 8.978746875427774
Cu 10.545529085557948 8.660244835257572 8.022285213280128
Cu 9.482698586912534 9.60519996043268 6.075782069385392
Cu 8.727730015350643 10.843960614598968 7.926025271263342
Cu 7.923798558544277 11.81454195444304 10.094614431371461
Cu 9.502989078580482 13.514786892031504 11.11581757063581
Cu 13.165295226783506 8.417146936727544 11.032057751000579
Cu 11.431532160494907 9.90364435648435 11.995973577435507
Cu 11.977619739317921 9.85416693824662 9.521219706308864
Cu 11.140984429757465 10.941209264709405 7.451657233684986
Cu 10.30417245827642 11.977947311639307 9.474194520324115
Cu 11.608568305763205 12.308985868003818 11.477372245252432
Cu 12.687615761226049 12.112522093419253 9.143358574353789
Cu 13.512627597895733 10.847264523964757 11.096300973748349
