27
Energy = -75.6855325 eV
Cu 11.358556303836432 6.073260665642371 8.523754287807737
Cu 12.512713936923584 7.732291187142885 10.042771258262265
Cu 12.025270281658191 9.930764020751141 9.050212938144714
Cu 10.323152455035197 8.182965864709274 8.832012673222247
Cu 10.757937514260687 8.87065134729 11.249055033546757
Cu 8.849720369726125 6.260492382183959 8.752121775681031
Cu 10.387639263774844 6.542727749175338 10.659992860918383
Cu 10.208509418268362 10.081511518793649 7.265192314774212
Cu 12.971693330791307 9.878524594929821 11.294123756036145
Cu 12.813624513649524 12.036654452490877 10.030380490855483
Cu 8.852721337954273 7.961382106788143 6.927614462798802
Cu 12.932443755137976 11.983836165725641 12.472119600394883
Cu 9.509493578130327 10.331338791626308 9.643375315995637
Cu 11.6239679039125 11.974090722207965 7.868214367402729
Cu 11.339276217685148 10.134013623782577 13.220083845450125
Cu 8.426509546105537 8.065192275517886 10.614930178217197
Cu 8.92814829797519 10.14674123738671 12.115740068876766
Cu 7.051833448842501 7.842728591325014 8.505786707957943
Cu 10.82464412026839 11.567290650717458 11.43485980220538
Cu 7.804598717962617 10.044708902524317 7.719447577637384
Cu 10.654428070912168 13.193835209271905 9.72226956508459
Cu 5.954497395199453 8.080899929430569 10.581996498757926
Cu 9.131352436179363 12.194778001056141 8.105390360703385
Cu 8.527213627124796 12.288448793946266 10.576838524213871
Cu 7.119973659517903 10.169065251608917 10.483047096024173
Cu 5.5646282079435565 9.756463086422457 8.683916249891245
Cu 6.780520778500699 11.91041136482893 8.859820876415784
