26
Energy = -72.25879873 eV
Cu 12.392170947339162 9.11686824546193 10.08024528569689
Cu 10.265411660535316 5.9961018523671985 11.748112746930833
Cu 10.211008396429222 8.167160222534301 10.613983419390298
Cu 11.859917818880946 6.5883481308453735 10.006023628659355
Cu 11.06346909728765 8.151220820548659 8.266867684526787
Cu 11.51774149576258 11.352113729216088 9.46072211644068
Cu 12.814939712812066 10.029194621535353 7.8681964512735325
Cu 8.137014749807271 7.066762886185549 11.553668712625711
Cu 9.912395416406977 8.215057546590268 12.925779959813037
Cu 11.958517203143987 12.237300522948471 7.206041523732609
Cu 10.079346578856264 8.207175653506976 6.044765372988591
Cu 10.789166990463528 10.27408302711351 11.62898308356905
Cu 9.399639916062371 6.380951044473709 9.319095480721765
Cu 10.52886402541416 10.29071387059912 7.158484978675597
Cu 9.378937801341957 10.127839863899105 9.374520904935832
Cu 9.702871685670031 12.402964794532217 8.183798807979644
Cu 8.623286100942178 8.304701937206639 7.908812338416678
Cu 8.371619556397146 9.567163919349571 11.569705554456176
Cu 7.0786793540271225 7.152023709833109 9.395290515002255
Cu 9.3720293559196 12.057535348766994 10.754238738779517
Cu 8.099216812620798 10.640073635175856 7.27595640667882
Cu 6.958183295231799 9.547490597974395 9.248113655364572
Cu 7.687390129436568 13.076255968665423 7.098533958559077
Cu 6.162683018011088 8.466081074070276 11.299944360241192
Cu 6.500004421642536 10.950095706611753 11.146254010403172
Cu 7.477150057435852 11.976376867866156 9.205515902016003
