26
Energy = -72.47813291 eV
Cu 11.436871137990419 5.218967793721905 11.42572874928265
Cu 6.544778661008191 10.724963777912059 8.053087798312676
Cu 9.207349278384905 10.75979419126286 7.545809388901561
Cu 6.156146867782712 8.37291909285413 8.914975398424355
Cu 12.43900781267751 8.245109833186387 7.938338425945773
Cu 7.9216409857724495 12.720178691843346 7.295705674341291
Cu 9.70045907155713 8.551966303765887 11.004829251576878
Cu 11.661210087318045 10.65449036399554 8.20657746941248
Cu 6.695711870788934 6.735076485926921 7.264171293875937
Cu 8.414477216331454 7.121730255552185 9.093993877508936
Cu 7.35133426838988 7.954712349492555 11.187638977329776
Cu 11.189833243304887 10.066178605416948 12.18503079080971
Cu 7.379923660295136 10.687551904066792 5.845727885418043
Cu 5.703066589865983 8.941977975964429 6.522836830999371
Cu 8.054350172324812 12.02639779991137 9.639118591860989
Cu 10.186774553387902 12.697078320174 8.494578593100814
Cu 12.027061230314036 9.123016855893155 10.130728485200779
Cu 11.59757139888337 7.540824892141239 12.01726764476168
Cu 10.1568274741514 10.903782045721721 10.121714247547661
Cu 9.289140640686748 6.227893520140787 11.215284802405973
Cu 8.00525340122844 8.70170980901899 7.175215138365555
Cu 11.034696598510411 6.875006849185741 9.652055399783649
Cu 10.1458378996295 8.709651358720532 8.370148325780562
Cu 8.478947096173139 10.523165295469157 11.817433906326123
Cu 8.058281948562106 9.627406718612722 9.606198812651524
Cu 12.397098426129485 11.522100501498063 10.509455831524795
