29
Energy = -81.87902166 eV
Cu 9.848304422855277 8.036099022530012 7.863378544460747
Cu 10.874536846044846 8.08912294410943 10.138665682641655
Cu 7.668303034922283 7.204066188688943 8.903046131219666
Cu 8.646175622387867 9.283004538036689 9.660192437039193
Cu 13.803597226967112 11.35250337514747 11.781653127947664
Cu 11.352246035899816 11.687688619685781 7.639337317779092
Cu 7.478559286530502 7.955207869759759 11.3451962023257
Cu 11.586065809549476 8.09322976245473 12.491626681252656
Cu 9.615326618186439 6.816009337609441 11.74737274904344
Cu 6.223008221488303 9.148942775426201 9.60026122582054
Cu 12.850105399573089 9.358315209831495 10.744668951510853
Cu 13.821111448254275 13.42805202407232 10.429373434110564
Cu 9.510050005058043 11.81443103747702 11.827976308687276
Cu 7.665761305438042 12.932011623850437 10.709965995373242
Cu 11.564136754178687 10.524257175960718 12.491055445556965
Cu 11.65147193113505 13.459216396783212 9.241941847078207
Cu 9.482972758704527 9.32098812625822 12.030044747906263
Cu 11.791873958139556 12.72882081715051 11.54627107546242
Cu 7.843309551848433 5.588126546020183 10.750804106788646
Cu 9.842475773684209 14.049851645434373 10.84710450047858
Cu 7.399538303974491 10.520803045329862 11.345034949228307
Cu 7.291581323898921 11.235022998048702 8.991985152948123
Cu 9.382413770448517 12.559260320267827 9.01035756364374
Cu 10.716537791760778 10.652736628622353 10.034807786400304
Cu 13.036395580710995 11.419561978769412 9.434934354033862
Cu 9.282822211551824 10.48093189166075 7.700607214359807
Cu 9.746527176505843 6.078161042607475 9.343579692340715
Cu 11.941908021604865 9.389044501750323 8.356572099945383
Cu 10.927235496368668 9.61625615901439 6.221856200104609
