28
Energy = -78.36543825 eV
Cu 10.868556158182352 12.489578503216274 14.25098707687763
Cu 8.65117376642579 9.32570431608322 12.782643936974875
Cu 13.87413104295125 12.448287642351591 9.904688822894942
Cu 13.337372174887992 12.722670562643145 14.100991248847768
Cu 14.414777513554121 11.42140459168769 12.07282423060297
Cu 12.382024773837882 10.68896438725927 13.317033463390363
Cu 12.98492033127662 14.710332913000645 10.506492262722512
Cu 9.60667527569035 12.279403742870741 10.200403940307533
Cu 10.17278688781242 11.165396085282005 12.348623086377781
Cu 9.5424336765384 9.768957877934675 10.44984816359652
Cu 13.419480690365994 9.08478072444916 11.827948480349002
Cu 11.022971969501139 8.86439152790283 12.263549155316122
Cu 10.842197856814947 10.76081982279536 8.673002897894426
Cu 13.321855848392635 14.884328607429447 12.905902565070713
Cu 15.661431549451516 12.960501977212635 13.586728537206909
Cu 14.24042093723994 10.094829820784177 9.83174954836328
Cu 11.662492117379164 13.043833341551485 9.310754642541026
Cu 7.841029617664206 11.33410797685289 11.611265535142548
Cu 11.858435228390881 13.053951140012392 12.0241484845557
Cu 8.462783072215107 11.63245433226999 13.983227464259928
Cu 12.111420681233803 10.935116091042511 10.754609981174113
Cu 10.332020575693978 9.983632493659288 14.47885110833885
Cu 11.782711276360335 8.739458209112037 9.910913804556955
Cu 9.2650796341156 13.385680411681824 12.432812940518367
Cu 14.547514209520717 14.599044679648419 15.0072250586609
Cu 15.63511454920673 15.464384268743098 13.063968005086899
Cu 10.496759991499015 14.599701537324483 10.742107145979679
Cu 15.045526578246967 13.805215670668723 11.466395504194635
