25
Energy = -69.84104486 eV
Cu 11.514632342414359 10.558087517131666 12.40517687616183
Cu 9.492388662386608 9.312821574318288 11.97046832080496
Cu 12.138914754346008 11.879140419374822 10.466216400696947
Cu 9.819943964260348 11.609648298467357 11.022898791536534
Cu 7.625914975388633 10.856097894902007 11.491479016801186
Cu 7.3523077034699025 8.3590345142908 11.030021354533213
Cu 9.643490942384519 7.482324896059531 10.354327866231909
Cu 11.24875222232259 9.573265538021632 10.147768696515465
Cu 7.654581962255257 6.21897241353677 9.885790476296904
Cu 8.777883753883723 9.67351587961487 9.56424566785399
Cu 10.53011461453491 11.601629306459651 8.715095914861076
Cu 6.231623480217942 10.148588616538147 9.675778732061843
Cu 11.475405585217679 7.481177508061265 8.85322869481261
Cu 8.044661281022714 11.827727645679527 8.990634834570862
Cu 10.47333270201432 9.40069206026463 7.725484807749647
Cu 9.647342866070812 5.737647007035757 8.394241052090955
Cu 9.155600820223162 11.204339482021373 6.755587486689094
Cu 8.521814635303224 7.739928752317316 7.995567245043269
Cu 6.223785416600536 7.8870269317838995 8.784644657337447
Cu 10.602663220713017 7.258922771147361 6.615191589508495
Cu 6.979924865613492 5.775794437329132 7.633692142272255
Cu 7.293519092223016 9.898784410118187 7.523961109362106
Cu 8.861625241068547 8.893915930946573 5.8618953208040505
Cu 8.525299475322935 6.346761351894652 5.865005348849137
Cu 6.649566663676188 7.829201268212522 6.316339852507676
