27
Energy = -75.68077369 eV
Cu 10.05723258937797 14.050016616907769 10.360040467654617
Cu 11.648587409422749 14.20282154027258 8.517693156975607
Cu 9.298388236685899 13.80518179501986 8.078568755628536
Cu 12.340613542710352 13.353192993923717 10.724169827225225
Cu 10.210266766974284 12.43065284550989 12.167510767017065
Cu 12.73058359460631 12.189536436467108 12.757062528192893
Cu 11.076194767036737 11.956003527445842 14.45881680762592
Cu 8.417136877161852 12.337598221640054 9.910496352683412
Cu 10.96006151327995 12.09442204731284 7.3841068718210945
Cu 13.062034970377402 12.27068268361413 8.614963227391899
Cu 8.4942179749549 11.639487059589193 7.559116309702028
Cu 13.257075322365736 11.026826024552586 10.674109258022574
Cu 13.500058586746794 11.320086288943173 14.824186233118422
Cu 11.267322760508115 10.190948405171966 11.992360894398516
Cu 10.082070215976769 9.87099418580629 7.755457816132994
Cu 11.782922382262436 9.642980356379814 14.583482164023378
Cu 8.15143243370912 9.902403258099596 9.206414952510293
Cu 12.318707863332879 9.951076413488034 8.65043695257553
Cu 13.533417579837073 9.776480018251315 12.855567133490098
Cu 9.535012538689879 10.258323799348952 13.743151890106049
Cu 8.890675590159022 10.506300799821531 11.387931659808924
Cu 10.796652270991865 11.567943275497688 9.835378240395489
Cu 10.392861672960972 9.008920295332953 9.997090202299596
Cu 12.80352359540364 8.654152947448894 10.698614073755893
Cu 10.057673043207563 7.949012015745722 14.47178409617784
Cu 11.86400163055731 7.92882912171964 12.825913972846195
Cu 9.487518404006039 8.281479161284253 12.16170216396483
