25
Energy = -69.81582107 eV
Cu 6.949947700082304 8.582944153263242 7.083426855335061
Cu 6.501849222581036 8.975063938138867 9.828835735906335
Cu 6.928885659528366 6.345100015160138 6.102410500709247
Cu 7.221983123910561 10.718011555638537 8.10986744599934
Cu 7.2875435314164285 6.567538053841992 8.473480404188347
Cu 7.344255876347241 13.067101601786705 8.921553671079659
Cu 9.293911319411778 9.769568171972828 6.989817822265808
Cu 7.560313687038996 11.196010806931008 10.442435879851622
Cu 8.602383015034178 8.554669842172828 8.969007438087624
Cu 8.580772461278674 4.910174058963553 7.279614945235414
Cu 9.05581352084176 7.278718067699716 6.838874172600979
Cu 8.021016725682369 6.954930118219009 10.742321955330462
Cu 12.203792244788866 9.318924570446423 9.940082720954962
Cu 10.970999511799956 9.669677647328355 12.046703651636319
Cu 12.156499381493642 6.72642136507962 9.524459090713055
Cu 11.595405086269794 11.66042770938629 10.752018460205372
Cu 10.352181882640163 7.81372444639844 10.65019602246658
Cu 9.439252656686085 12.866755281183746 10.142720167511246
Cu 11.384443796514795 10.74344351867754 7.994660840259293
Cu 9.406118330534245 11.458967875952624 12.075278658921112
Cu 9.898871498032129 10.376443518624614 9.816493097587385
Cu 9.785258265986593 6.171848882271015 8.96128828281086
Cu 10.923434130927715 8.291155696711845 8.15134573843739
Cu 8.49102072991921 9.205406652248763 11.517509810763032
Cu 9.273620878544536 12.006546689194096 7.875170868434967
