29
Energy = -81.4991772 eV
Cu 10.34203298729469 8.780909342267064 7.91617146560371
Cu 10.892609770161377 9.96524837198253 10.068378503005274
Cu 11.32481355218629 12.676612038647859 12.338848143272418
Cu 10.928636278723879 7.551790258837225 10.0342970356521
Cu 9.23067843557668 6.574040684809947 11.455051233918223
Cu 9.861078286613228 9.04310158233654 14.101026902086135
Cu 13.39474102228343 11.428425988791538 11.98519670105149
Cu 11.611129368970477 10.891269983119239 7.799286278121525
Cu 12.364454892521811 13.18862026020468 8.213161237639545
Cu 8.523203511903109 10.387063348929969 15.570382851494347
Cu 11.233486918042972 7.742644565455849 12.46370780745476
Cu 9.670371640035569 10.679147847289464 6.379975601319953
Cu 12.91798514654598 9.048724198649438 11.11914889846612
Cu 8.850696161793914 10.694366236133769 8.877307178211327
Cu 12.649674349789963 8.869176416942006 8.721853101403898
Cu 9.271804146453889 8.906514764950693 11.737106805145215
Cu 9.873382622209862 12.67659446678916 7.776041392435246
Cu 9.844740376896368 11.558658033125234 13.923569900017103
Cu 7.881511302457898 10.329164110178242 13.24028646248632
Cu 13.144297463625467 11.1484825451088 9.631469244668905
Cu 8.11130503672301 8.997890866307978 7.0997574048530065
Cu 11.391218270084309 10.219321338775226 12.609653472280568
Cu 12.94981494874424 13.42643041324983 10.604813681023753
Cu 10.853343553764136 12.414322255840386 9.938658363523185
Cu 6.545002161531016 9.63445643214791 8.734990434337536
Cu 7.368434511663677 10.10824118301526 10.874407276939275
Cu 11.450228566733802 12.493386001138337 6.018594608495951
Cu 9.328811331196968 11.391000167564693 11.511328199764728
Cu 8.511566974744849 8.247648037229531 9.516184153577187
