29
Energy = -81.67532322 eV
Cu 6.619439543175355 9.857302123093854 10.271559791424515
Cu 13.364017242029508 8.959414572915833 8.925065410800514
Cu 11.246818252674418 11.19564025382017 6.333853758839036
Cu 9.568219570720961 12.970863867040132 10.809479809695418
Cu 7.574259247257492 9.55213026772655 7.877719010866505
Cu 9.122937523532807 12.599454745191819 13.2648567373161
Cu 11.04807363416028 8.367793438638735 9.347564320179194
Cu 12.884383877584865 10.521733092935452 10.92638719604982
Cu 10.233818892647998 8.173065362599662 11.626100980809827
Cu 10.375216035028513 12.569227587661956 8.376685679346059
Cu 9.884630683680976 10.163920835106191 8.06999321853291
Cu 11.254708164436309 11.878482357488743 12.384996314270266
Cu 7.897321778352051 8.70566892556287 12.234314323248949
Cu 8.217501724624261 11.53973580260298 9.258014181824164
Cu 12.253443247413351 11.050460590516792 8.540598168585728
Cu 9.426524483229713 9.406988666193865 5.958488886107843
Cu 11.648464582808629 7.202905699776148 13.287599029144141
Cu 8.74530976089696 8.989693104431645 9.937790028784795
Cu 10.531449845769448 10.656418115681241 10.392101436702278
Cu 11.656044168655235 8.872654207118844 7.020379514787624
Cu 8.158773434408761 10.445905128610072 13.964118778994697
Cu 11.851524668911205 9.598857886518196 12.992697218537096
Cu 9.769650202322891 8.642263899327503 13.957310351601484
Cu 12.649541143661095 8.104410223549696 11.195798770128782
Cu 13.59930143940067 10.243726580466657 6.769079329380867
Cu 8.36518497594965 10.977510812879181 11.636278038494522
Cu 10.469149120186316 10.959868268560621 14.473268800695392
Cu 11.978260841744772 12.774449097509896 10.244401296648627
Cu 8.531902289047887 13.945324860786235 8.84936999251581
