20
Energy = -55.06677986 eV
Cu 10.28410406463155 9.910138715198173 6.968279845928283
Cu 7.783045465858295 9.797824235373197 6.896147369193978
Cu 8.953675833694287 11.89385185859448 7.646567583466497
Cu 12.684499792194812 10.152090514034345 7.801050860912231
Cu 9.002819576331534 7.812061931758895 7.890475516033528
Cu 10.967847114896262 11.333314343985945 8.945008414427658
Cu 6.894619038644308 11.237901132998031 8.809356474512205
Cu 11.098747860730004 8.698315005418449 8.905158470399467
Cu 8.862308136358205 9.911259411999843 8.996994527640396
Cu 10.17951083412202 6.569501910225603 9.659393615609659
Cu 8.31114254602976 7.998969118292012 10.346780780619019
Cu 7.527313467574148 10.306410457909724 10.980419711867054
Cu 12.56361095681048 10.14307434779295 10.28878468828327
Cu 11.19520377963453 11.943672532031982 11.27986543326721
Cu 8.979712616802844 12.079231691963312 10.168652390079357
Cu 11.925982879904701 7.845300058838478 10.957067497810591
Cu 9.841335759605235 7.181134250841112 11.967727958879161
Cu 8.48273961875963 8.994298308908306 12.710699493291012
Cu 10.222649880339935 9.66703366534297 11.139079434680443
Cu 9.111050192839631 11.396535924254781 12.514409348860463
