22
Energy = -59.79793788 eV
Cu 10.888435 10.888435 8.724287812453799
Cu 12.202403911835807 10.888435 10.892230619200154
Cu 10.888435 12.994983809178146 10.238362994003204
Cu 8.834744448021857 12.256645812192483 9.097103269967715
Cu 12.94212555197814 12.256645812192483 9.097103269967715
Cu 8.840578315290385 13.077625752366616 11.56432768568494
Cu 12.936291684709614 13.077625752366616 11.56432768568494
Cu 12.93962213512879 10.888435 13.138416356968849
Cu 12.936291684709614 8.699244247633382 11.56432768568494
Cu 12.94212555197814 9.520224187807516 9.097103269967715
Cu 10.888435 9.53940551856119 12.627103783466739
Cu 10.888435 8.781886190821849 10.238362994003204
Cu 9.574466088164197 10.888435 10.892230619200154
Cu 8.834744448021857 9.520224187807516 9.097103269967715
Cu 10.888435 12.237464481438815 12.627103783466739
Cu 8.840578315290385 8.699244247633382 11.56432768568494
Cu 8.837247864871209 10.888435 13.138416356968849
Cu 10.888435 13.149620740621858 7.865522159169789
Cu 10.888435 8.627249259378138 7.865522159169789
Cu 10.888435 7.158776398483476 12.035279514742754
Cu 10.888435 10.888435 14.58172725413131
Cu 10.888435 14.618093601516527 12.035279514742754
