27
Energy = -76.33990243 eV
Cu 6.580123207883924 10.877084910204339 13.026698476663324
Cu 8.377665382957936 11.608633812578743 11.565049560622228
Cu 10.204021298108728 12.31824129106593 10.050052530319151
Cu 12.36689052988326 12.721839312080615 10.936009708063523
Cu 8.86334727293713 10.205462822658232 13.512077555378532
Cu 10.786558365045511 11.144355180717607 12.203919838445685
Cu 11.069167131578684 9.418176137759662 13.967343902779952
Cu 6.219684236990993 10.890096807496771 10.597346132597295
Cu 12.14397538342866 12.374690410372382 8.461245899342776
Cu 8.033861457415824 11.575221267588944 9.092486664514112
Cu 12.04862112588507 10.55478591530356 10.04319417183685
Cu 7.606174507095708 9.173686145615457 11.634722751835552
Cu 9.654896190763619 9.917057681071165 10.17770976955184
Cu 11.62705629959747 8.8499790711856 11.71686940873422
Cu 10.051432424208254 11.331362878605024 7.77022584739506
Cu 9.53721335842218 8.024087652463953 12.602174233697255
Cu 11.782923404307628 11.757492012839586 6.100275724631641
Cu 7.393420080425398 9.264759725132519 9.136711847283278
Cu 12.11487060343673 9.95992520085439 7.637479954948205
Cu 8.023210337101814 10.302974226637627 6.947736527999997
Cu 8.891492662483229 7.6050666990226015 10.219291190990113
Cu 11.542608578574454 8.2741560984566 9.343189807690072
Cu 10.89058021374543 6.603266188104397 11.065146703110816
Cu 9.461240171210402 8.619193758286 7.943507033114859
Cu 10.321656556608035 9.748493289340718 5.927580951656689
Cu 10.3003251637245 6.383966387180185 8.634519436926315
Cu 11.458212563006722 7.747066760180305 6.897749521290258
