27
Energy = -76.01831786 eV
Cu 12.681908523099196 7.595676888173734 8.885677594328795
Cu 13.015834429936755 9.2358125882504 7.203815562861212
Cu 11.38477302659853 10.738863958812479 6.364926264302928
Cu 10.21094173177637 11.507266037648968 8.343275554555742
Cu 12.267434920002435 10.080569852586516 9.454010764084066
Cu 9.687684095721544 12.513330660133166 6.179381116465003
Cu 11.050205307421171 12.078989022175175 10.58783244418713
Cu 11.504088053255504 8.098674101074444 10.919201527481507
Cu 10.691956763553213 8.942235261972089 7.960980274295042
Cu 10.376099066471669 6.731674646325188 9.110874095333557
Cu 12.183770182066285 5.812067627704439 10.484883019083846
Cu 9.029548559728125 10.180647125166832 6.568428817451381
Cu 11.60994825084323 10.221915908422899 12.04585164247505
Cu 10.006192043394261 6.3598811016252155 11.548103044129684
Cu 9.98791106057026 9.924838017101665 10.280426184797546
Cu 8.509783907999825 7.849680089655331 7.824854503004153
Cu 9.38034202049031 11.254991766825762 12.327122515436093
Cu 8.101635452867676 10.018427913504068 8.738142808933882
Cu 7.878921379556299 12.236553081607202 7.77389768602946
Cu 8.58818018557449 12.100525362708623 10.144945081721662
Cu 9.484254127341876 8.73359772419154 12.389607584507536
Cu 8.553324613144072 7.829468193989405 10.241873633982065
Cu 6.396621831572514 8.531980197008481 9.376609482659106
Cu 7.521054921451156 9.844887076717175 11.160099963174222
Cu 6.328950042421252 11.404095385162298 9.655394111035902
Cu 7.633957384580704 10.114455141019493 13.517830035010206
Cu 6.92284646184135 11.981283616112645 12.00816405703997
