24
Energy = -66.43756328 eV
Cu 10.162615724543915 11.911350952762522 7.249797679092572
Cu 12.529456572561298 11.88312339073307 7.950400559688973
Cu 10.100286519147412 7.656847263531507 7.43197191819847
Cu 11.31262835778136 9.791824289459111 7.712842462960662
Cu 8.873247940567827 9.837197318850889 7.005613959966062
Cu 9.53678739654242 9.20235256482216 9.306918062201966
Cu 8.352518715072046 11.490329676671442 8.804659977002851
Cu 10.837699526007919 11.478501477184345 9.585290147522798
Cu 12.855415319292566 10.062299949915657 9.59662038889074
Cu 8.925850503268151 5.608293983661212 7.154600502210148
Cu 11.6550734305788 7.93873698962876 9.44375702432367
Cu 7.713730825128618 7.710831077754099 6.796473368551682
Cu 10.391164581167207 5.881578305648593 9.118108008524288
Cu 6.764608937800133 10.943094556982732 10.559967768637893
Cu 11.212702912027542 9.551415844110677 11.315896818004864
Cu 7.099215502635794 9.325843016194607 8.64771502742814
Cu 8.267084257333007 7.074509030048659 9.085646899980288
Cu 9.870146950253961 7.432096577981287 11.069893411622507
Cu 9.12937080584006 10.81530472083727 11.0387442505055
Cu 8.166028901139251 12.96605229962798 10.88069596554194
Cu 10.434263182851458 11.395538400140564 12.920242088261144
Cu 7.955002012915436 11.503190911913439 12.872966534614893
Cu 9.324513135247214 9.18489813522473 12.808929346948313
Cu 7.764788070380614 8.701545418773343 10.93824243323797
