21
Energy = -57.13865774 eV
Cu 11.652337278391203 10.164292347564439 8.076075633921729
Cu 10.679248289757618 7.927761113963868 8.278053597169293
Cu 9.506930824742483 9.732485335134173 6.816821037944119
Cu 11.542799324390938 9.046153216423647 10.385976091665961
Cu 9.780997486683747 11.878700442737964 7.989095214998565
Cu 11.08873557719525 11.52447374272163 10.129928855126245
Cu 9.049277157526783 7.403380419204245 6.332390620243343
Cu 12.042018546655294 10.675421917001739 12.138717529441584
Cu 9.574831298457768 5.8198838787106855 8.055625731665332
Cu 9.537996281434392 9.84577356062525 9.260983395696849
Cu 9.683801642427046 10.172449542946799 11.689529033641534
Cu 8.354663265233238 5.82907523440155 10.09507538307316
Cu 7.536283673473521 10.754370984372555 8.148333289097986
Cu 8.199800681409641 7.847668448505908 8.591602229429018
Cu 6.661126751106403 6.802992055670778 7.129383518766194
Cu 8.561986769791165 11.886885202105395 10.165178225670235
Cu 9.293322374428584 7.918415339813403 10.77025516750513
Cu 7.196618603642127 9.025219312265468 6.489412958298388
Cu 6.733038304997887 7.510542298936274 10.6103167016032
Cu 7.4278836286650956 9.763068781731132 10.477218602621846
Cu 6.001816703227079 8.859193057123882 8.656157017028923
