20
Energy = -54.50531167 eV
Cu 8.920771691138754 9.520443963678122 12.353095066596769
Cu 9.080049340770783 12.325331142059607 9.275886461404658
Cu 9.245336842154092 9.17532306248583 7.871522651656291
Cu 7.81094168449754 11.384767466422058 11.168213593370586
Cu 9.739987702667127 10.153630641211773 10.137444284357079
Cu 8.764481600685022 11.408672439379165 7.058282693113821
Cu 6.552202442304461 9.453276723012754 11.666654994198044
Cu 12.462887806895097 12.084130008848502 12.003394138356214
Cu 10.093768895945969 11.933775355239538 11.722039463219485
Cu 11.132750076180539 7.743011752084778 7.239343793541559
Cu 10.267706953686561 7.775930221186041 11.189462555903859
Cu 11.342112435059912 12.879378346682847 9.829717036130814
Cu 12.471536642330252 10.81580580940493 9.99557843675086
Cu 7.445774024532402 10.4559189190262 8.96634891330179
Cu 8.053613749694268 8.400616541041826 10.185214568965948
Cu 11.401336137980604 9.829107271712996 11.930708890059796
Cu 9.607746411756207 7.058210469099352 8.960055177431524
Cu 10.933506634713728 11.001663470456569 8.097288252169545
Cu 11.783906896484146 6.46571623542107 9.685236268558572
Cu 11.532799696191095 8.778507827215275 9.307730426581996
