26
Energy = -73.06454173 eV
Cu 12.811769661378312 10.808691866403052 14.69823001135802
Cu 9.83613650603238 14.009929681948055 13.602128777956151
Cu 10.608052221152185 12.517366395467995 11.537508596560759
Cu 10.087332437824854 11.827985784198184 14.57917281367605
Cu 14.957478828402454 9.665037678203536 13.78889846802719
Cu 13.768871305996104 11.334402429710172 12.56504660325581
Cu 9.024284987435275 14.436469263744225 11.388512206879621
Cu 11.402643598524653 14.809016668386139 11.891718868072763
Cu 10.485501829920375 11.39590936338523 9.02757609556018
Cu 12.810603937597671 7.922163148684231 10.626011242085813
Cu 11.195477941940187 10.590147819300473 12.94250898475064
Cu 12.220119571696104 10.60400563437759 10.75156677138525
Cu 8.61132513893795 12.529769458550355 10.027679754503437
Cu 9.47536679693283 10.371773200447695 10.956017815104962
Cu 10.91540976667811 13.778594786192174 9.577614694021579
Cu 14.628678801577188 11.501151262200162 10.24745136503548
Cu 12.90550498387533 8.904924749153698 12.892632601370515
Cu 10.717834333589924 8.498536551876711 11.816594415515576
Cu 12.953098858994316 13.117461402288765 11.071613056206179
Cu 12.754588687137689 12.10692042993319 8.842688126439972
Cu 13.544587229985504 9.629637462926842 9.032968073608732
Cu 8.969575899488458 9.847682472831291 13.260079631574591
Cu 11.028918445051506 9.024797123542259 9.384292653780511
Cu 8.482494587842414 12.185605552183954 12.588439504940046
Cu 14.683977325125056 9.318128976588437 11.304134196397655
Cu 12.091026639996365 12.91095428929373 13.49462226083365
