24
Energy = -66.12202592 eV
Cu 9.315066942636554 9.355970603455235 13.26599541884677
Cu 8.30357689886999 11.077510548388474 11.872392910526658
Cu 9.66119837769497 12.862114281160187 11.031658030361541
Cu 10.723294127747291 10.829249965790646 11.878719173880574
Cu 7.473194257116719 8.775042318635297 11.791724093513034
Cu 12.278591247879916 9.793996004101466 10.313734168011257
Cu 6.124914028064769 10.681503861303092 10.953309483797186
Cu 10.842573988262544 8.370756421925913 11.721788436834272
Cu 9.016411821669939 7.0191054807295234 12.44150343003014
Cu 7.730280577728494 12.113969780919675 9.692380745075704
Cu 11.654253135604398 12.043380112781211 9.95099839145567
Cu 9.798506695063816 12.719925612133462 8.590431102940627
Cu 8.512921286718585 10.959662364770082 7.587439908567051
Cu 10.47119905838632 6.093199116627884 10.649479992673031
Cu 10.859797040353008 10.337407713440356 8.253059614790399
Cu 10.39135323503983 11.931443962651011 6.408927384620939
Cu 7.829979173030927 9.725982951591734 9.582205642183077
Cu 11.012955944338866 8.065769842928281 9.330547185253634
Cu 9.913092069761715 6.283602875350361 8.14891731308994
Cu 8.66844719042174 7.478900025298397 10.044167277255484
Cu 9.006780809070486 8.535538810966226 7.856494797835379
Cu 9.786786712375378 9.679996288014626 5.85854059199958
Cu 11.295605453120672 8.177055991142284 6.991202378241666
Cu 9.432066709689897 7.191761846541547 5.887229308864361
