27
Energy = -76.22574965 eV
Cu 12.270555437746195 11.392650319257474 11.467731557920514
Cu 12.844333841102136 10.707962916242126 9.174325281364935
Cu 7.965096642811747 10.947717763627969 7.372459034438076
Cu 9.8461923821183 6.912893487474827 8.524265564266312
Cu 7.393091111431896 6.326846649544819 8.68111362628615
Cu 6.803635815211319 10.31765809555334 9.385468941349544
Cu 8.713634533046946 11.894756714343403 9.54851349096669
Cu 11.243765130870479 12.663036711007384 9.669617391383646
Cu 6.7024129485521104 6.690666739012314 11.0128790734733
Cu 9.951224579660229 12.05917325598988 11.67879969547794
Cu 8.256216794128623 8.344131049236426 9.820454597295804
Cu 10.512455960445855 9.603069406593645 12.33178514335365
Cu 8.930993869273527 5.961415777930992 10.582988233033044
Cu 11.828223897384603 8.412225261871782 8.705818609110791
Cu 8.569694517456389 7.95305942622416 12.198888049598551
Cu 12.532971047956995 12.471363440474969 7.571021003044445
Cu 6.291413805242711 9.007406989250585 11.408302805311667
Cu 7.361877768521714 8.581354524040156 7.528398723866781
Cu 10.504400357966189 10.22646683693985 10.007051912761302
Cu 9.759955382423271 10.410369900362658 5.753473597368422
Cu 11.899865231115683 10.155241254811925 6.993875474482121
Cu 10.226560289820927 11.786043332590857 7.654177450206464
Cu 10.586932358113213 7.728268382781401 10.727421368211122
Cu 5.7178820691536405 8.052633307879614 9.23538101813985
Cu 12.576558458183667 9.055213755393682 10.960665560199576
Cu 9.680208321195916 9.283485212511852 7.880848379443428
Cu 8.306154749683147 10.331196789670068 11.400581718264505
