29
Energy = -81.92030595 eV
Cu 10.09405463732831 9.594573216293712 11.598020832473818
Cu 9.861184210779653 10.687742402437511 14.017539113688152
Cu 8.531426476889457 8.709408598231938 9.833826869010869
Cu 13.50290660176654 11.47386350082589 11.855883980554704
Cu 7.253500116949356 10.625265185024526 10.727310664624197
Cu 11.446675360580656 11.356517001301695 10.644465844743229
Cu 14.727926882497886 10.217761338412988 10.172855185357431
Cu 10.034574060172412 13.481777916564024 10.870588130108056
Cu 12.610248373610041 9.20239427791537 10.8172542620291
Cu 11.244902542260672 13.010549534981102 8.84919712053
Cu 7.667409827432624 12.996763378722619 10.462335278867501
Cu 11.374770816508635 9.459222273395369 15.40535681326063
Cu 8.943476961872381 11.759226257981389 12.089186361414459
Cu 7.965000774928758 9.576274107775934 12.85920140103698
Cu 12.056218247615673 9.98280555559382 13.14516642830206
Cu 6.568936023740588 8.369374033591143 11.238707501948506
Cu 8.858219324849784 9.813451638867365 7.6717959483474205
Cu 10.789817389559301 7.510439347040456 10.692290337556821
Cu 12.451993423803762 13.669813850259223 11.026057394078753
Cu 12.96542757548261 12.467542793471717 7.271163576362261
Cu 13.060439198565764 14.519162746878614 8.778422552252453
Cu 9.293214310895186 11.408184401599131 9.474683811676853
Cu 12.885204180891295 10.391488890484949 8.604643770509021
Cu 10.872972975020021 11.106778636071823 7.4001611122869155
Cu 10.147598999176543 8.3132227445493 13.669951253398239
Cu 11.298832800955939 12.362647949683142 12.838205662261391
Cu 10.765834644672303 9.351938151360429 9.11616222952122
Cu 13.869866327880153 12.385976986890595 9.54267427569202
Cu 8.713012253401843 7.439270292864647 11.920355592977828
