28
Energy = -79.66654621 eV
Cu 9.162202354645634 12.277016589326234 12.60085138024818
Cu 7.96139442100068 10.121994538541589 12.788893422805875
Cu 8.28153327692224 11.236805198936803 10.591173813052306
Cu 10.199601630845923 10.250133146488514 11.77723275466996
Cu 10.427944489327531 12.488278512602662 10.537230197321588
Cu 6.787530142781943 7.987110271105331 12.875347218303245
Cu 6.9749906352465345 9.102990853904274 10.753795306400068
Cu 7.3553135847969875 10.18255467601979 8.549333652069745
Cu 9.46013294079271 11.530643969002675 8.471590668216493
Cu 11.501296111453225 10.459122614683897 9.761952075641373
Cu 11.693174959036968 12.495261958643479 8.358015012056075
Cu 9.017433194392575 8.066540481120995 11.868638560772936
Cu 9.294081915252937 9.092952920602096 9.57670057021651
Cu 7.243906729940676 6.643580018985223 10.88106656733862
Cu 6.861133422647136 7.758449231748993 8.746180903499974
Cu 8.139653051405366 11.126755237132114 6.4361022684509805
Cu 11.268979381111919 8.182407013151565 10.786322741269798
Cu 10.560969713609293 11.687237590213847 6.336754211805263
Cu 13.678869163221009 11.209152165467902 8.952042935955982
Cu 7.712292994587788 5.447467372599893 8.821339342379899
Cu 7.401890530755051 8.769059627525484 6.56612766524448
Cu 9.741776975870394 9.442316204103646 7.05960533307713
Cu 9.595967911838159 6.59687452208867 9.889023123325844
Cu 12.088062925214162 10.135468116839375 7.447976500795105
Cu 13.190896377537422 8.82087545090795 9.33179075934324
Cu 6.8118304317452285 6.395581960348217 6.7677179606778735
Cu 8.990026520535942 7.129920122768495 7.567433417884727
Cu 11.160678575593316 7.919298162015116 8.39166789542649
