20
Energy = -55.2044668 eV
Cu 9.286542420909017 8.841742917403595 5.592059688433402
Cu 9.84069041622333 6.66519640382705 6.279044484444992
Cu 7.349940627126676 7.303156505998083 6.279428023370449
Cu 9.442007481200159 10.669303816670656 7.249813759519592
Cu 7.25722717738357 9.961274430372688 6.040574673560573
Cu 10.922542201940287 8.637849951582746 7.439875835921725
Cu 8.447527977754827 5.657802941299779 7.881375834663022
Cu 5.940309667489827 8.874529000335423 7.7165648108784
Cu 7.25150413823586 10.910756534447257 8.248543485776088
Cu 8.532052691100011 8.459521044500555 7.9681681910733335
Cu 11.339014904882578 10.636564692580828 8.846667098931844
Cu 4.922114648592558 8.168018201610929 9.901756368025552
Cu 10.666459132672086 6.447510584644312 8.536342741148276
Cu 9.138447766820784 10.420676683282258 9.71761559981347
Cu 7.091159921054794 9.159154031795099 9.911902736393367
Cu 6.64791131577 6.877754217655996 8.819676427126916
Cu 8.789789906216807 6.910111473642318 9.985532069681884
Cu 10.64308088049108 8.514074362538462 9.8744839129285
Cu 6.782549047421662 7.2422790156806425 11.29901631656145
Cu 8.838772339592325 8.772367853009857 11.541202604624592
