27
Energy = -76.12478028 eV
Cu 12.793253661837525 9.664988433836697 9.926304668597446
Cu 11.28602030823247 8.80426339993033 13.520524960331734
Cu 10.75835022579624 6.81905911246156 12.033333735865082
Cu 11.684427790680429 11.163725122111513 8.085819876306102
Cu 12.203400571428773 7.216537253592304 9.906730371058059
Cu 9.014516578843017 8.400857873420964 13.206706427138254
Cu 10.951132446939 11.20128213438936 10.36977005404698
Cu 9.860225227980065 10.661861443177827 12.538533499624585
Cu 8.37715813031564 7.145032595774994 11.298385311425037
Cu 8.148913824940927 8.518552505333252 9.348297918883656
Cu 7.884683934395316 9.659895986358826 11.433779138890658
Cu 10.339946892709417 8.862530183685339 10.919120142810943
Cu 12.910186026146262 8.152621209759786 11.928643897273634
Cu 10.206356362570405 12.932044920853059 8.87450525545312
Cu 9.88263669035668 6.864282117925054 9.381878232699535
Cu 6.921711467966298 10.667581384697536 9.31819955892509
Cu 11.06019782871298 8.822354551700018 8.484931291356798
Cu 7.853222232365488 12.865658937940857 8.570735824745228
Cu 9.209063195852368 10.564432941386908 8.403101880055768
Cu 12.359919633954004 10.490336530018412 12.1894897894443
Cu 8.663277237889371 11.83948785483617 10.635587000110375
Cu 9.175679326252034 8.079943141569569 7.174481936578519
Cu 6.9202689986281305 9.064695458026721 7.3538882410769
Cu 10.697810872598605 9.860896695758285 6.316812933774593
Cu 7.064090604397471 11.428293041163684 6.917027198217813
Cu 9.485925879823252 12.093947299419172 6.614345844477688
Cu 8.442515040506262 9.952452562857998 5.6908706342953375
