27
Energy = -75.50056219 eV
Cu 13.754266038384879 7.7369019367882235 9.995605077941674
Cu 13.010559205305356 9.686937655817216 8.74820972342545
Cu 11.223071504275959 9.996419953411428 6.898832016197697
Cu 11.616212028276248 7.815754698078022 8.284586226369342
Cu 9.32551487843054 8.336536127789559 7.525732080333729
Cu 10.388636089665221 9.96378112563525 9.096992590279964
Cu 11.974625840116557 11.831987242816906 8.511028789703502
Cu 11.68367583262316 8.584840383272095 10.598190309625252
Cu 8.855567452522932 10.248022067532245 6.133832243239149
Cu 7.052135880081787 8.74493894989961 6.902428507627636
Cu 9.619724961071261 7.4767650998438855 9.788400816451375
Cu 12.586980643770595 10.899723069142599 10.849804484170063
Cu 12.954432779128584 8.142240457679478 12.455993797595339
Cu 9.369542031692541 9.468020329397111 11.212370234379176
Cu 9.585460152760005 11.849651792040886 7.846679080569964
Cu 10.368709187657952 7.571988194509158 12.319272332415933
Cu 11.240594982857806 9.939204706240037 12.667414195182182
Cu 7.233356009071682 10.975329988529985 7.731574584472222
Cu 10.5140358952936 12.078961720550422 10.399848392722198
Cu 7.919832987458931 7.615887802594663 11.488586293061482
Cu 7.606470672399077 9.006121327161571 9.31392083476685
Cu 8.266150357788659 11.403885578706083 9.919185983084972
Cu 11.486547034731183 12.315395921392078 12.578715139133084
Cu 5.907689655670258 10.975746510024594 9.733377434577086
Cu 9.100677558803882 11.608728317072238 12.329544508796028
Cu 6.831374905531605 12.330718491334064 11.62224613888857
Cu 7.085830905135413 9.95718602324597 11.609303655495435
