20
Energy = -53.88456159 eV
Cu 6.83843635137912 8.054449710883894 7.920970606580497
Cu 5.571572490565985 9.066032703541378 9.707669838397678
Cu 8.853332506113585 9.048050075535027 6.971316725384224
Cu 8.92127874049514 6.970214575359238 8.388686441713881
Cu 7.564535326129604 10.285425718237589 8.728216243737457
Cu 7.681031794784183 8.085479094158957 10.24256898330744
Cu 7.048922067833929 10.307594123367165 11.150695820043529
Cu 11.103508707610617 6.14589092345527 8.842997518252442
Cu 8.178313582733834 11.317068494408376 6.503426225813707
Cu 9.863316417282276 7.138176661572614 10.783261055063392
Cu 8.264119565763114 12.690047077453244 8.490182984573412
Cu 9.065207321957233 11.427785147346018 10.386013607712487
Cu 11.02392097547596 8.121195671572515 7.46046413224742
Cu 11.368001467813468 8.623352479410265 12.166454419255784
Cu 9.981413804369211 11.111538910659652 8.055208528922035
Cu 11.968531235950257 8.172492662317033 9.862616260097573
Cu 9.790660061269604 9.103407211503388 9.34900714428088
Cu 12.086030978530298 10.123455900458023 8.381842653367258
Cu 9.16917050956148 9.384726015527097 11.775389867681692
Cu 11.274948694668684 10.529167583060353 10.664608833760152
