27
Energy = -75.38404722 eV
Cu 9.536133972831369 9.11306389068813 14.059783279434809
Cu 10.844260664263588 8.838662359293062 11.99770313733423
Cu 10.536905984829916 15.156081398172565 9.71829641727226
Cu 10.232037184131716 12.905587796191607 8.898383949161786
Cu 10.72618073369288 7.980341940938516 7.976350196909642
Cu 12.809932787441792 10.52899527321659 12.216765001130286
Cu 12.248696145642858 15.29572588090115 11.438279396791161
Cu 12.22820423649901 9.660774437102548 8.874779144521538
Cu 10.00396833082078 14.68388201444475 11.989131613588969
Cu 8.503040192772573 11.386485421562403 9.736642656792416
Cu 12.99063877670635 7.8518991506496265 12.378455804501677
Cu 12.203038428978756 11.923430705326963 8.00217076024096
Cu 10.984167109723776 7.124362035708457 13.672456960047404
Cu 12.524374418460528 13.775443302594713 9.543920366916634
Cu 10.865940684533818 11.017006706403572 10.556279730270273
Cu 11.85397922457567 7.616388899462469 10.157058459243524
Cu 10.134864140134157 10.560071095064481 8.045365638023641
Cu 9.125340176271479 12.491408791053814 11.868106687404481
Cu 11.999915962297226 9.2658042136081 14.130329538598467
Cu 13.332890089551148 11.548544020108118 10.104906321852834
Cu 10.681995758067057 11.164581824158121 13.168279495478686
Cu 8.752662988417027 10.070480445216521 11.82441093687224
Cu 11.837736050809427 12.913953228933696 11.76342675712793
Cu 13.856703678210543 9.152838187591518 10.562177584691415
Cu 8.378537193694715 11.273002144640795 13.863910343245388
Cu 9.693262408033755 8.983462243317339 9.838582670886229
Cu 8.451306298714249 13.961127431424998 10.114409727278746
