29
Energy = -82.56561379 eV
Cu 7.631363305604203 11.874745097303428 11.555692846141612
Cu 6.155683612502812 9.685495010987204 11.541479814546253
Cu 5.990293565522793 11.399228586520216 9.745128485551309
Cu 8.538076645130804 9.686050414366024 12.5037098022802
Cu 10.005690743064923 11.228572271651664 11.061196632044167
Cu 8.38779008998639 12.165085527635163 9.136882151061535
Cu 7.675884863109517 7.746903128369742 11.059485134754322
Cu 6.192471963945987 8.899623455991147 9.120591683185422
Cu 8.00791653010466 10.03689486468097 10.11904965965139
Cu 10.589512450690593 10.961474056328841 8.675413612616707
Cu 11.086469780831532 9.564756952317806 12.596098425251352
Cu 6.623338295478019 11.036028662323876 7.403839097456862
Cu 9.930517645941284 8.760974677526562 10.684020936885677
Cu 9.636309428436162 7.382064090990451 12.584313695600656
Cu 11.878810827159606 7.463748213955045 11.522109108821315
Cu 6.805846242914136 8.417521038603452 6.824204787001338
Cu 8.547398824425152 9.757789320994766 7.845226493459503
Cu 9.109935960382899 11.881457827438624 6.835352568475457
Cu 10.488636487045742 8.455238931760887 8.419648862284696
Cu 9.932309035621454 6.4259070406339065 10.245820526037159
Cu 8.21180506574999 7.4112215319767305 8.6697704295317
Cu 8.119393308651269 10.037945143135573 5.539516315718917
Cu 12.08495368569347 9.6796801569296 10.261139911531838
Cu 12.32761383984143 7.182064719978818 9.122269813446486
Cu 12.557666646188352 9.5772438310673 7.880135584674241
Cu 9.199034210532908 7.817599205439801 6.343399187401416
Cu 10.595535123880138 9.916856518935928 6.354244864785619
Cu 10.245598117735746 6.115830089274598 7.8567217286591
Cu 11.768323097340774 7.612791870708832 6.624483241056396
