28
Energy = -79.3015456 eV
Cu 15.060881162460921 14.871865880606085 10.053956440249928
Cu 12.0285721499572 11.309368706248488 8.958240776945647
Cu 11.550626229712178 9.25527640014303 12.192237865620902
Cu 10.148284008354798 9.685426192152464 9.388176266506143
Cu 13.978919313140766 8.823542621228649 11.589689088846349
Cu 9.581924783771449 9.864019591050774 13.81433693094402
Cu 9.144188417960876 13.417331460868757 10.89838216293307
Cu 10.805346816162572 7.606220741120325 10.581870846769265
Cu 13.75070267696047 12.923898432356864 9.418683012759928
Cu 12.503642423680052 9.107031290902698 9.759559858588164
Cu 15.252834257198188 12.794802052612477 11.256006214924328
Cu 12.969973590136597 11.294612812097872 11.41774942282894
Cu 11.19812634186097 13.452826536957009 12.382492827073406
Cu 8.163235852793703 11.014155099838586 10.431349622851801
Cu 7.416725265416807 12.977579740134827 9.282137450355254
Cu 10.559663502331643 11.368354139345234 11.116996652883193
Cu 9.0925586096344 12.1517436938809 13.003344339366489
Cu 9.184850258930776 9.109112724203882 11.577034668305261
Cu 11.40541335649618 11.377071148489692 13.521678116562834
Cu 9.676935054992173 12.06870134526908 8.8211768820053
Cu 13.404360714182102 10.071539593175057 13.63976295362768
Cu 13.256710560446798 14.205515125413484 11.473788517886705
Cu 6.998044403499081 12.652202862291224 11.758204808340938
Cu 15.26604467291741 10.720568041071346 12.31133458154846
Cu 13.612238265512735 12.579327368187657 13.304311659739561
Cu 14.541843663451244 10.555156391357325 9.846137360059732
Cu 7.446427562884128 10.417590926656274 12.72110023821196
Cu 11.42727237362764 13.463855140734985 9.936292004233346
