27
Energy = -76.09247913 eV
Cu 9.022387748211187 10.574320684901098 10.50426211549177
Cu 6.792986552110966 9.750939936278293 10.562222614305435
Cu 8.466598981158478 9.194107029185059 8.538142698376735
Cu 7.155679314736821 12.198596242518166 11.061069090368184
Cu 9.403525577479181 12.501168875120065 12.143796740263118
Cu 7.425342294250123 11.433955518582401 8.761571841164836
Cu 11.087238246838787 11.797401156662314 10.391652352284105
Cu 7.871362335128157 10.63201953621877 12.72885835891286
Cu 12.050815193220199 12.117159371628405 12.48936678945542
Cu 10.343645135573025 10.217548005451292 12.586765608182375
Cu 8.695326380723758 8.479276425419275 11.848061002620977
Cu 7.404032166660069 7.46287808542208 10.002292942654273
Cu 9.771080938981063 7.644976327143203 9.852481512763557
Cu 10.995786829050061 8.98354182202286 8.071031287130277
Cu 9.006808993508542 13.087345543958168 9.739145332821876
Cu 9.88394206218321 11.212387969902533 8.24720737644775
Cu 12.419169740450997 11.142102282352623 8.483113653240629
Cu 11.496985416467483 9.4713373752644 10.372206093142657
Cu 11.031140936299842 14.044182715735685 11.025144616433355
Cu 13.123786015043752 13.06987416250109 10.201070124681692
Cu 13.58956043664458 10.750542607522686 10.724986441072852
Cu 13.527572202514035 9.05288390516906 8.808692270494545
Cu 11.101525383983896 7.843405272731139 12.028706079716732
Cu 12.684367050237116 9.744794445534065 12.819926789062688
Cu 12.10841563766104 7.254477981352503 9.616344888020544
Cu 13.64426470492784 8.335532714971643 11.160290070211317
Cu 11.231011109507065 13.337601134301613 8.565948310679879
