20
Energy = -53.86536341 eV
Cu 11.536850850688985 11.221019558040304 9.371603632272835
Cu 9.493391666612746 12.21609051790299 9.814687821279467
Cu 7.883815023055128 11.48613343152902 8.148811620827484
Cu 11.380419261280887 9.787809308871818 7.41496567273891
Cu 11.762151726502085 7.587031736623567 8.18076032254999
Cu 6.206633860904398 10.277199657680738 9.304303588048835
Cu 10.057972661821077 10.139690254189206 11.174125469516872
Cu 9.47742250677157 9.842040070926716 8.857586206264616
Cu 9.165166266232921 10.259902006853117 6.444822198457277
Cu 12.02068470799576 9.015722616586993 10.066113908401016
Cu 7.724483597539952 11.127587962421968 10.94383363737376
Cu 9.581933556474894 7.937732976568629 7.096838463432952
Cu 7.949435756043745 8.764198661484286 10.651609091559353
Cu 7.376908779321772 9.023494733888832 7.561112181344542
Cu 12.00614083899997 6.49151400696393 10.332495716660405
Cu 10.015545500665722 7.7240198189364895 10.258571116997972
Cu 5.906582792815116 9.471131044906073 11.562150630584064
Cu 10.190888995892836 5.904241759140039 8.662340959005522
Cu 8.11788172051419 7.1115483118410605 8.856280045851317
Cu 5.960713182228389 7.940175620670055 9.531199309656992
