21
Energy = -56.96268997 eV
Cu 6.815226727260385 9.39718629002711 7.2511421123547795
Cu 9.182500146154602 11.528368498242465 12.627255387414257
Cu 11.460581664790782 11.39847064490407 13.406869377251946
Cu 8.482651582562617 11.019915686654905 7.934720335115611
Cu 11.198743399186785 8.088907252563736 8.890744731350248
Cu 8.65943436533112 11.881804531440373 10.254439556843247
Cu 10.319773489457486 9.71426926592392 7.196616354982024
Cu 7.124977837796156 7.843681453758236 10.278567833665825
Cu 8.17516837759214 9.68044000789512 11.51505660870288
Cu 10.514650783241013 9.470288495714458 12.247984433740035
Cu 10.101988340505716 10.0053092279111 9.76158126036159
Cu 12.41217682148235 9.633261861769148 10.608502491508437
Cu 12.960131434884355 11.936747507161193 9.606054370183179
Cu 13.361113997983116 11.525110473273417 11.925765743759452
Cu 11.034789957933056 11.969927124892843 11.063210824866612
Cu 9.547239281384437 7.817313707390196 10.711698639328292
Cu 10.705864197856586 11.94773840721387 8.520654523708002
Cu 8.639949750005282 8.456808903449923 8.476841886453345
Cu 6.94641843167799 10.136115617756746 9.53479762414982
Cu 12.403005314609318 10.104974788512635 8.204088892354296
Cu 12.81826993502472 9.435605072519383 13.023499714811487
