23
Energy = -62.63610593 eV
Cu 7.273661728812947 8.998512652506932 8.905180992522741
Cu 11.187723070017737 6.321796422269522 8.311600237874336
Cu 9.701766173931048 6.178469093120395 10.345104968343634
Cu 9.227625991572591 7.651437707466242 8.468588461743824
Cu 9.317915949765645 10.072069871074746 8.03541574635191
Cu 9.319919551648082 12.511965647700533 7.687187140572213
Cu 11.376763438819651 8.741691671627327 7.697047408169099
Cu 11.217656213473386 11.924550886844552 11.465625191715494
Cu 11.360588562724349 7.935420315756284 10.044046366929443
Cu 9.172438970606786 9.021419198126654 10.482551685518995
Cu 11.115613496103178 10.990498198998623 13.702972941280526
Cu 11.434996718018924 10.351158211557603 9.541305230280804
Cu 10.022922456289425 7.591115901434178 12.264417452139499
Cu 5.331353703096206 10.293090382805753 9.443444359400162
Cu 7.239276577183568 10.508909366823795 10.87696418558186
Cu 11.353582818515648 11.180163595081726 7.222995888361168
Cu 11.369355194444376 9.531967891485994 11.84640209578541
Cu 11.353596293177139 13.599615806947192 6.9188294494445275
Cu 9.206357330434441 10.61726035551431 12.311075674077383
Cu 9.689399689834827 5.273153217186694 12.542419796251151
Cu 7.302000997321867 11.421893697869601 8.552904972353412
Cu 11.294191773568715 12.745911489547842 9.153095340881091
Cu 9.242189603088429 11.654908442473747 10.036435477776868
