24
Energy = -66.53893598 eV
Cu 7.152833891291539 6.038567078487626 9.295628017573662
Cu 8.532503942639806 6.702863127336999 11.177404684065372
Cu 5.97428129706016 8.823265695573513 7.954453489573255
Cu 6.776839200948161 8.240130434060882 10.304392896795965
Cu 8.15115362023051 7.721890406598254 7.934046873354847
Cu 9.6348076811413 6.231243596483785 9.090976052282025
Cu 5.49886491808871 10.467062848891192 9.69418562001683
Cu 9.063312330983823 9.017630112230835 11.17803039971876
Cu 10.321947904723 7.365940169104838 6.90384882795993
Cu 7.930341167968219 9.663862110816963 6.4934427863208395
Cu 6.421845484615348 11.237420609473633 7.56245895641596
Cu 7.909180304958105 9.917367947117654 9.027366030057516
Cu 10.953790979129124 7.404402533304829 10.891082910232585
Cu 11.967492666097419 6.716715116293885 8.693263048335409
Cu 7.289004707606817 12.232370737866718 9.57630912853053
Cu 10.271380881316396 8.740365132200816 8.967639745985439
Cu 7.257386310604493 10.556783844494523 11.361814342389529
Cu 10.300879670325667 9.814006228474794 6.693780133412563
Cu 11.29857808425399 9.932520014737387 11.10309898144665
Cu 9.093870358546681 11.592543756692786 7.81491360574996
Cu 12.33830402167284 8.757832381883041 7.426158151235212
Cu 12.814940840410678 8.673677431064887 9.769129312492806
Cu 9.501479863143214 11.289872710930648 10.258755766785185
Cu 11.389888676045333 10.826458484593573 8.692295546442717
