23
Energy = -63.83850759 eV
Cu 6.451339401210969 10.820955106448384 8.876713108418999
Cu 5.777280321740965 9.66320828506643 6.793391258523818
Cu 6.6941757584009896 9.353116112727541 10.746322222743448
Cu 6.796742816852114 8.392108342691108 8.521503707869572
Cu 8.632765627855072 11.810527806167238 8.9522152229205
Cu 8.414015810163292 8.839659131607382 12.301757927510112
Cu 8.148697016878588 10.12671358016268 7.242285088639728
Cu 7.941142237847011 7.264140152166953 10.402221081730254
Cu 8.332251121083152 11.127008603824773 11.282181925898941
Cu 7.500256207619317 8.043275350311236 6.191102795169089
Cu 8.568628886529092 6.82401021058856 8.016244409322153
Cu 9.031055667276254 9.423895141263191 9.690609768597708
Cu 9.65496021842847 5.656648321961134 9.877526101811407
Cu 10.498126663929817 10.013649418605198 12.05136887438737
Cu 9.89938024817428 8.513790078408379 6.717440025672447
Cu 10.636581695367942 11.58061136727684 10.259349013496665
Cu 10.233434154437347 7.676554434775893 11.15106133072798
Cu 10.463593351744155 10.565067040229954 7.969904686146666
Cu 10.7406739436379 7.521070559865998 8.772787996973438
Cu 11.715456171224027 9.302770954412876 10.056588470647617
Cu 12.67972159996498 11.022514439544201 11.461035013357918
Cu 12.217639950254371 9.051930218162845 7.609911863624647
Cu 12.704479852182999 11.134756949014552 8.952195376377388
