20
Energy = -54.66489387 eV
Cu 9.047891558055586 7.946413800415147 6.196651054589893
Cu 9.034694999130481 5.682784704758892 7.12190500130881
Cu 10.558542451873317 9.669776278399544 7.227630212562991
Cu 8.077451342861497 9.79699117738452 7.478662436986738
Cu 10.648388399638806 7.332737859031279 7.86606363734154
Cu 7.908898553816983 7.480369849261856 8.333861121998929
Cu 11.880943669263644 8.82330352718347 9.365364929550017
Cu 11.403167895257573 11.166007254939709 8.915667813211273
Cu 9.429102914382213 11.808521557889229 7.5641403141414685
Cu 9.536694449162868 6.168974368775777 9.606584773108834
Cu 10.496458226217905 7.8298820982304225 11.269207129221888
Cu 8.029364233020027 7.551655440177447 10.870358832288007
Cu 7.116849596486703 9.489004337729218 9.735634657253232
Cu 7.199867420455191 11.707691092312569 8.70532022384211
Cu 9.522918484889855 8.955813428404923 9.41670064770135
Cu 9.259211272745743 11.545613588190104 9.968151181553106
Cu 8.731819184092668 9.6291703922191 11.788575677668966
Cu 11.00312437850687 10.267528110786147 11.183159923234722
Cu 7.199768548364294 11.417848856362625 11.202289821529742
Cu 9.408455506760577 11.900656202691446 12.306039975755478
