28
Energy = -79.41482927 eV
Cu 7.0632872509426585 10.902309243017141 12.70765315209605
Cu 8.878038224259052 9.271694961707054 12.951023071039552
Cu 10.635010046152559 7.56627411239271 13.114454413953172
Cu 9.275437240328456 7.629008366269508 11.12985523578058
Cu 7.404121386040205 9.266961039712315 10.944015173048275
Cu 5.664094853450581 10.936721849677362 10.656665359450463
Cu 7.868273095619818 7.614321076910334 9.107917251681327
Cu 6.053391584921574 9.317364113848543 8.862024456526903
Cu 6.537068149340788 7.702184851091855 7.097000393737734
Cu 7.278482610312504 12.778417768314842 11.05794261579963
Cu 11.714838157924286 7.203232176519464 10.953951033300049
Cu 9.087901707988516 11.181837927303006 11.353617594425405
Cu 10.922320211276999 9.484766554079377 11.557881283713927
Cu 10.327148028232726 7.14964768728083 8.905921900062017
Cu 12.735035629930833 6.811845482441187 8.759342662779714
Cu 9.27933800979447 12.991898347165197 9.636412821704067
Cu 7.618097356242727 11.211360643728916 9.227683262239665
Cu 8.083358204867231 9.529352797693695 7.4074296454587785
Cu 8.923437116522663 7.2339023536112155 6.8669702905169245
Cu 9.505632926339377 9.501812041685646 9.493355509007424
Cu 12.007323582821364 9.069963563404942 9.319111529939375
Cu 11.337551537659696 6.82853133507773 6.714603103310817
Cu 10.547395687252457 9.079649106478584 7.184323788796324
Cu 11.127350419708836 11.359811027362543 9.87905193537825
Cu 11.234377969107914 13.15583947063984 8.148193305532992
Cu 12.94664325488104 8.676813183427761 7.097081505560667
Cu 9.690516582128497 11.34853865675144 7.814332132788505
Cu 12.136448930246189 10.925729879309397 7.652767102723795
