29
Energy = -82.58922432 eV
Cu 10.236277862769501 10.768287518914496 7.100311085462819
Cu 10.622048800845587 8.423325796684317 7.353437009358343
Cu 8.301468591817555 9.316542120782417 7.06009512476776
Cu 8.302341538989127 11.515631722742572 8.365645331655847
Cu 12.1861669906876 10.182231574420726 8.471245111843194
Cu 10.59263830000741 12.176838125746462 9.008589507260432
Cu 6.359318519824153 7.821407015881832 7.2763402382720095
Cu 11.00666125530753 6.020450268846166 7.662966199955258
Cu 8.682021339101395 6.8791701751148535 7.33869492337139
Cu 6.290216582541198 10.081799430830394 8.363189179804793
Cu 12.749020920485496 7.74935321504569 8.218898538240428
Cu 6.398406034373183 12.253416402465811 9.650453981068143
Cu 9.838119016029397 9.755209253242665 9.445585339816537
Cu 12.94856953209325 12.488347182572827 9.380926775926381
Cu 7.724099459279222 8.23809572115447 9.15841341358945
Cu 8.666875846122887 13.290876686893712 10.076143200014116
Cu 9.91610385006815 7.117709933373376 9.484588114182793
Cu 7.5207907423149285 10.321205742378048 10.514529294048078
Cu 12.058409526583779 6.124044500763189 9.923385796506693
Cu 11.151633254450635 13.40515165402945 10.952286045223175
Cu 11.97721826428195 8.548262618841216 10.343045010461003
Cu 11.886362167042645 10.974944350065403 10.807923468561903
Cu 9.617232573782662 11.565299111307514 11.403368092652325
Cu 8.727114062209202 8.298510004113671 11.314120478066267
Cu 7.348176689328941 12.263795804230174 11.944271237704605
Cu 10.648016019483256 9.477615530806279 12.225555564106289
Cu 10.750641316276946 6.9960884482874315 11.81686500650474
Cu 8.287543879476523 10.150433780246235 12.869815222927997
Cu 9.338512673659583 8.018714826150505 13.604909377069985
