26
Energy = -72.67231219 eV
Cu 11.89012256400985 10.435586314186295 6.305736074777486
Cu 14.02276101246275 9.008452748513298 10.421355736427595
Cu 12.834490995765528 9.522748125415934 8.343447434306153
Cu 12.346487798718334 10.834806953298513 10.51817900471859
Cu 11.344963716154805 11.45536565270615 8.447368119616161
Cu 10.337596921007355 12.458134112389647 10.373709384298857
Cu 9.750341070666233 11.51624157310439 6.708585712235344
Cu 12.45779766611836 9.216675861946118 12.322052168838516
Cu 8.38648117925916 11.543771449593837 8.830035210487091
Cu 10.64962663367308 10.929073783448223 12.338263685967071
Cu 10.338428610207526 9.281261607619001 7.842724251808466
Cu 11.682754136389962 8.45793847696988 10.161326547604897
Cu 8.309928567791005 11.62495397341982 11.47702388990518
Cu 9.82981530286693 10.13432903142963 10.158904328630666
Cu 8.081644355483327 9.854713434001727 6.855922435957029
Cu 10.835200748535778 6.972024998028014 8.486063655012984
Cu 6.3125064146420655 10.721564046532752 12.675933082656005
Cu 8.573823399331234 10.165203892917248 13.430657051235931
Cu 10.758865285536801 6.3947988034781895 10.951701600252095
Cu 6.184543185131718 10.953486147372988 7.850290064988997
Cu 8.574089219809041 7.544551775914641 7.616039675668417
Cu 7.70025077896542 9.19887100693219 11.419754756684375
Cu 6.293986778138645 10.982535775322289 10.267568933926508
Cu 7.39493903294965 9.207165681511935 9.024078570693614
Cu 10.038972416833598 8.550586544958596 12.116834559299356
Cu 9.10051494395208 7.779112779345323 9.958172799010166
