23
Energy = -62.83807835 eV
Cu 8.454772711031422 12.090603983347389 10.712723014059126
Cu 10.127279683812205 10.734860548377524 11.921931058820176
Cu 9.994176700585777 10.244217261772373 9.480571977163905
Cu 11.93374328470773 9.414410369235284 10.99823300828918
Cu 6.081884139830684 11.160923873065823 10.988917727008058
Cu 9.130463843402906 12.293259145401693 8.391111055466581
Cu 10.859604976818671 11.147333684647103 7.114539119563135
Cu 12.315686060836049 9.881400796399008 8.650777782683615
Cu 7.319921247460699 10.731555074807762 9.029620737677764
Cu 9.804965710937637 8.31845888734927 11.424293773649339
Cu 7.968767469324928 9.74670959819652 11.212051607977024
Cu 11.682070443571623 6.877582621423137 11.475970587422308
Cu 8.594891739072976 10.232874871671115 7.118357809019439
Cu 11.188800742877225 7.779087894750548 9.348265922039513
Cu 10.55751418538201 8.732902735641563 7.310897463586885
Cu 9.896455423159688 9.677940730933937 5.238377661532091
Cu 8.488931966362394 8.22555766448979 9.000186376181404
Cu 6.078041079578407 8.841597052111885 9.937367669801528
Cu 7.568435304747332 7.291487453061702 11.129041261648613
Cu 9.539877730731579 6.209166311443316 10.22396987041398
Cu 6.5725212279794185 8.875807595711889 7.561449454599877
Cu 8.448581805187562 7.907230702774397 6.366429166853044
Cu 9.770959022822627 6.425873186202222 7.824371808511955
