21
Energy = -56.95530979 eV
Cu 9.3522088079676 12.91046045363157 10.59420682799682
Cu 9.473292226050964 9.062641652512372 7.688161174325616
Cu 8.375861191865985 10.888741939884795 11.405328299413934
Cu 9.975268542745074 12.079425097834669 12.849182641709326
Cu 8.295307644951128 8.797325408058915 5.590978531786322
Cu 11.001031931854104 11.068435953310084 10.906904043759802
Cu 9.094543041865615 6.837962617406144 6.882274515298343
Cu 12.765175766514787 8.07581103139826 9.918167222522639
Cu 11.510928226351005 9.7821697818256 8.78080401623097
Cu 9.517275573083612 11.170663615449476 8.896633110532273
Cu 13.300485812042169 10.4396441661017 10.211919191391116
Cu 7.58984131038669 10.559123157534872 7.337690715484862
Cu 10.973547405550264 7.336601486220417 8.457934214267857
Cu 9.958340620221755 9.636707531392803 12.711958920188989
Cu 12.222004489468768 9.249604007239066 12.030828657050654
Cu 8.180300701798389 8.43404240047734 11.53563859835467
Cu 7.155665117886872 8.158521971197459 7.602509766421134
Cu 10.431438903652579 8.398189358459476 10.628164841410456
Cu 7.3661641561065325 11.999323700615317 9.395993666751492
Cu 8.643543620100708 7.318945715972707 9.345086100354372
Cu 7.536656023082494 9.560876660657078 9.547064079290532
