21
Energy = -56.45509161 eV
Cu 11.342572772182676 10.054291090450098 6.616358178025466
Cu 9.247190023562418 10.820704581210155 5.753475140210229
Cu 9.42436985069415 8.77734425549788 7.404194897045542
Cu 7.5420836631632335 10.495262539279727 7.395326847397267
Cu 8.132909009275684 6.74153590312775 8.308597465961105
Cu 11.402999906540822 9.529554516837868 8.944716197835136
Cu 9.85901024539677 7.587959335645725 9.645090314241363
Cu 13.62273344232851 8.902287769201376 9.78810189081835
Cu 9.744179365939148 11.200086363486252 8.069954575286499
Cu 12.128974213199006 7.173237186324744 9.173401339351551
Cu 7.768448740705961 8.94103722017269 9.172996960670986
Cu 11.558523222730289 8.544516900260765 11.172533211387144
Cu 7.734982479191093 7.215283673598933 10.784149443883813
Cu 7.900592539042945 11.328781719314849 9.707495304884702
Cu 10.257681103132583 11.255652846566603 10.375815008922093
Cu 9.177467432443748 9.089009153540884 11.426831808912654
Cu 12.563677356046423 10.755363593503024 10.85964784164219
Cu 6.851729807657346 9.680755138565779 11.299255566500987
Cu 10.793126335179721 10.487881868488957 12.572919371173407
Cu 6.352898400848133 12.07122752343476 11.381850329039795
Cu 8.525467592090026 11.354269838448392 12.105459734939028
