24
Energy = -66.78125348 eV
Cu 9.868381834110492 6.607634940748722 5.716407830585345
Cu 7.846568711459608 6.46792341605471 6.846153390431772
Cu 6.405520014781187 8.394394828575008 6.858309800188521
Cu 9.03103827152033 8.730718290712867 6.874045006411569
Cu 9.943032255051799 6.852832006757894 8.251373344263067
Cu 11.439795811741416 8.064376022711569 6.634637415201385
Cu 5.425751737446161 8.734679149591425 9.106715693263194
Cu 7.677806927691197 7.82180341066734 8.826244063033482
Cu 7.1694843367554295 10.16357636030867 8.333306664094232
Cu 9.155376535622075 7.354461791507287 10.607685667092827
Cu 6.762066837059042 7.940783467075301 11.050585540592463
Cu 11.326170807830335 6.455026123690057 10.442201502983023
Cu 11.278771403763244 10.270680815866843 7.566403701633296
Cu 6.432768035702533 10.349016237744834 10.71390373208459
Cu 9.613563125089522 9.591436774415975 9.253544756545262
Cu 9.0603120124551 11.22403363836511 7.3691257339213445
Cu 11.791677090846223 8.30050293126997 9.014196620634124
Cu 10.953218882531143 8.79564503178133 11.327856564567844
Cu 8.30826042555383 11.667351156583068 9.842785780610514
Cu 8.540739667153844 9.492581876863268 11.612242898071887
Cu 11.996230927939921 10.484481311003051 9.934679112710624
Cu 10.179294285748036 11.252480343467465 11.375300849557876
Cu 10.533371062493734 12.152957119566972 9.040358022943067
Cu 7.872492758131042 11.707689719011888 12.195323115842015
