21
Energy = -57.2606458 eV
Cu 11.640022785874923 11.48063357647849 9.769021721813541
Cu 11.862134015904632 11.46543388201227 13.600641061864138
Cu 14.774115619410793 13.648173606063668 11.53836577813487
Cu 9.275420548792768 11.45645450599269 10.436928326093689
Cu 12.771692211306103 13.63111506212693 12.906569693915477
Cu 9.455773821633038 11.374919498904198 13.130733562861447
Cu 14.043911860980344 11.616543259248413 10.384622859261013
Cu 15.008147129936473 9.735734071043641 11.65871384990756
Cu 13.188923858388932 9.484054941184233 13.296363830629973
Cu 12.613660586997065 13.604673112743164 10.453736827380705
Cu 7.354472151965121 11.659894053771913 11.916842347268295
Cu 8.581111016716921 9.554262866251516 11.749065298246135
Cu 10.880547364694904 9.49840790481381 12.528670794585125
Cu 9.002352096417106 13.429471425170988 11.856486146650036
Cu 10.52673911327837 13.475725726876727 13.736418091466568
Cu 16.271171269209834 11.759134148572741 11.475869027462128
Cu 10.440851627260777 9.362147291097948 10.124341445680347
Cu 14.231066205610466 11.676178877705762 12.889540627002482
Cu 12.704955667432099 9.632417836073275 10.92441202579051
Cu 10.99010064879443 14.831897493391173 11.757493658674505
Cu 10.307299399394592 13.547195860476114 9.789631897460646
