28
Energy = -78.79073261 eV
Cu 13.22030360549477 11.221943770108606 14.347663452249455
Cu 12.644509482842283 13.526629551794747 10.930443316952415
Cu 11.818217912765627 8.940376347548858 9.98755833341261
Cu 12.16406909000641 15.550231292598696 12.186013548137037
Cu 14.297878339886019 9.458025814396972 10.561258474767879
Cu 10.307884816532914 9.99614734608218 11.593736701069233
Cu 13.189007247261431 7.103495558179227 10.408896091526298
Cu 13.087906927297832 13.59935642886895 13.370593095178592
Cu 14.108782625591742 11.777224272722785 11.981478608475344
Cu 14.104462672570346 7.751093324264508 12.48179684904041
Cu 14.929738054246178 9.837010337660509 13.30078611688749
Cu 9.24601151617092 11.756635495443074 13.00568994103074
Cu 11.63976709582205 11.874067713015064 12.621956396161188
Cu 10.205210086844401 12.643522490283146 10.80218502154064
Cu 10.883143788759673 9.994650525831524 13.977989230778087
Cu 10.297024004328232 10.696008592403544 9.234672643546594
Cu 12.521166424875691 11.242136796851316 10.16016438582264
Cu 8.640945485958246 12.38855418696742 8.796441046414635
Cu 9.879281285319792 15.400053537537218 11.385597403392117
Cu 11.663951876723072 15.327717529484543 9.7191736723833
Cu 12.901145059451004 8.69627212631675 14.429108830871597
Cu 8.26001308880257 11.151373389193772 10.843832010189523
Cu 11.579148028978684 7.770193361642691 12.29657325180787
Cu 8.189780817121159 13.573043383358053 11.539117931965793
Cu 10.514545830451896 13.911824276437684 13.086082714396756
Cu 9.433815160093877 14.522216903199421 9.254557802199628
Cu 11.380938027172453 12.983725735171536 8.766588285053459
Cu 12.738727915155858 9.779423895658441 12.28429226514174
