28
Energy = -79.63476023 eV
Cu 12.228146390264076 7.1657479987337585 7.2121983397964815
Cu 10.750322380576064 9.068933471438257 7.041267272610545
Cu 9.89167708283417 6.9924491601770065 8.10893096539485
Cu 9.862081959877912 6.088719335991158 10.350197061283586
Cu 11.76559539464189 11.310853404562991 7.546314989504629
Cu 11.87428790238318 7.069063131855984 9.54251927555634
Cu 12.61825413743907 9.221728102726598 8.612814758640761
Cu 8.323447618379355 8.78529410414239 7.480313990125344
Cu 9.354507903435001 11.008162955113688 7.669065416308711
Cu 7.073017499075011 10.870369754505226 6.905234492381361
Cu 8.203440836503443 7.852280207102536 9.804732314739026
Cu 11.770553259233647 6.680724319048793 11.931769600773682
Cu 9.817132022984929 8.13461442306272 11.706765370196663
Cu 10.134831619399947 9.309892485669273 9.456734509064537
Cu 7.312039541194757 10.161666584477572 9.178747046698803
Cu 8.018785645053676 9.765090807810092 11.443874796095574
Cu 12.181836616860576 8.967344471911607 11.031290703506393
Cu 9.203265144247395 11.480057192238059 10.185488356606161
Cu 11.800014599049874 11.192549166613006 9.90312789960842
Cu 10.358200094020464 13.026592106857267 8.822884523808929
Cu 11.485452727049255 8.679447918042273 13.363302541582353
Cu 7.719599581439875 12.611183447637934 8.557201691700126
Cu 9.202538046478463 9.720321719768581 13.574036402229826
Cu 6.88106504309592 11.958353879660987 10.813237356544748
Cu 10.687679170242046 10.606303956640774 11.989615602779935
Cu 10.762811209348737 13.013464892163064 11.272560155535754
Cu 8.720413003501791 12.03646133478392 12.492461228505205
Cu 8.563100674162012 13.786426770037199 10.567410441194598
