22
Energy = -59.75135292 eV
Cu 13.478949856025796 11.250517749004889 9.577843724985147
Cu 8.249035588497067 8.882998915392546 11.966085719524989
Cu 9.541897615865762 9.381332838835721 9.938101464064045
Cu 7.422336387540414 10.545483072359998 10.364986020863446
Cu 9.338025979202513 7.234059989997022 13.246820389189402
Cu 10.16062756965685 13.419874075407488 10.913602331527999
Cu 8.869156660128734 13.35363084075193 13.034317543066322
Cu 13.727115279497877 13.584020139062824 8.920240398938693
Cu 9.340751131217473 11.700087002831518 9.314023558802251
Cu 11.17256528910385 12.449759889985273 12.881015932696984
Cu 11.469863301309216 7.944280005910036 9.561359757542641
Cu 7.800101011881397 12.908084145318492 10.879005638099462
Cu 13.277442015944175 11.259807723451308 12.226061494278744
Cu 10.725212120492984 9.011963206189048 12.10135882360884
Cu 12.928707179465281 9.232647854832962 10.91685366139939
Cu 12.627352735404887 13.252071844884085 11.028035348983115
Cu 13.484609021632556 8.888153582017766 8.60815012371797
Cu 11.297880679507845 11.070278726782437 10.849302881177232
Cu 11.512910700267312 12.6832957206585 8.937364622794313
Cu 9.654133982902597 7.134489856194449 10.904963999661486
Cu 9.147505771291662 11.171727599891588 12.003553769298005
Cu 11.403512872712888 10.221704675989573 8.524173770437597
