24
Energy = -67.10378525 eV
Cu 11.901970270692205 9.688260657103179 7.278104149224683
Cu 10.34644627500884 8.882128931424234 12.562918367970903
Cu 7.856101341127725 9.007314575998464 6.9912661054268925
Cu 8.435215724850888 10.287808108880357 13.203467888123253
Cu 9.698373603309905 9.83753008069131 8.419866207808736
Cu 9.595279572065902 12.272702221583616 12.270000295117413
Cu 7.412727119710338 10.134169160719972 9.169196593667381
Cu 10.298793262308925 8.115725160982533 10.179786064909965
Cu 12.36227283961781 8.013425211542677 8.976966519190903
Cu 9.69225480662514 10.476607436094055 10.763973772261187
Cu 10.801743370641907 11.92420462040493 7.874304809010887
Cu 8.187735857826564 7.751635020696177 9.019557608007787
Cu 11.072742238683341 12.542614696098356 10.22345608707969
Cu 8.068901028061374 8.810716219379295 11.227361718419875
Cu 8.798883108547109 12.270163081502147 9.405321113383257
Cu 12.472656921561981 9.3068063117282 13.670223164588755
Cu 10.278675376521054 7.74266710002614 7.560018728552362
Cu 8.384241746152927 11.412310419858892 7.162983679430899
Cu 11.789762647028166 10.933464830047281 12.012823983042635
Cu 9.905746513886898 9.797810421605217 5.980981111040068
Cu 12.460265678323035 8.64652991379753 11.31597771878852
Cu 11.943938630338668 10.341222273657078 9.595301721993735
Cu 10.578658980207162 10.801590114917195 14.12359401779852
Cu 7.438144629934268 11.314779475857511 11.266842445619638
