28
Energy = -78.80288077 eV
Cu 9.089380946191817 12.464135657224887 13.997154818118403
Cu 10.724213112575336 9.897458355675395 6.778449456920546
Cu 9.154755808106913 13.475333095311793 8.925474986242406
Cu 8.685744381212569 8.679608484693851 7.534195572724158
Cu 9.400954451882335 11.487099535285678 10.15110607466676
Cu 13.344118958133155 7.926243348794815 12.996431895118986
Cu 14.090370689574877 10.292152665787965 10.438798767685975
Cu 9.143482970781502 10.003889207798398 13.87470247015402
Cu 12.949902820587015 10.279728527748865 12.660783348327515
Cu 11.765758133551486 10.829542542529959 10.398427555508711
Cu 10.560033196428634 11.48580524066432 12.339984745634691
Cu 13.278706114815115 12.348636821533018 9.264548826357798
Cu 11.20973810441332 13.569284318404605 13.199424846788734
Cu 12.672960004911802 10.07523448412672 8.264207108863058
Cu 9.787297291119506 9.316651104315929 11.484800544177032
Cu 8.010097745925531 11.150456969522377 12.072228817128714
Cu 8.010417439841579 9.459934995569997 9.843506907017627
Cu 11.176022689606276 13.29705796004378 10.333999380594772
Cu 10.428164800951308 9.264266135164686 9.09267340510479
Cu 7.5963926771516785 8.802280309557943 12.259358635141675
Cu 12.146025031336857 8.56146704812887 10.9996833115557
Cu 11.318162795840793 11.304454692078139 14.500922332275115
Cu 9.141056434404492 13.407624649497265 11.64545336750373
Cu 11.210936950790465 8.882263922327159 13.44813130311056
Cu 11.053222123842678 11.962351111789355 8.205744236456683
Cu 12.945875630441808 12.4780692601775 11.776306934912993
Cu 8.81787181319911 11.01982617916998 7.908667286031432
Cu 14.897920548390315 10.888727043085517 8.214416731885839
