28
Energy = -79.22862663 eV
Cu 9.09712978834677 9.052885657922056 5.6514989405068885
Cu 11.086415610678703 9.038866259184925 6.989112573507712
Cu 9.940692096759534 11.289703414431944 6.82559567940368
Cu 11.980814787159071 11.053081682094767 8.338245416208919
Cu 13.048009159667252 8.709649833871985 8.391747565267774
Cu 9.18031625595698 7.351051281824479 7.459025385400389
Cu 7.465156138476775 10.717219730806354 6.17928775585763
Cu 11.377972390360382 6.960367977843419 8.335671278213683
Cu 7.004618056933099 8.375167710576369 6.788695450296158
Cu 13.162062841933457 9.791158142926681 10.493293263757646
Cu 8.738155145634579 9.676918917296687 8.087872489810104
Cu 7.87049616868602 12.167134288084775 7.999618750009113
Cu 9.769561149749418 11.56673452082152 9.402671067805231
Cu 10.89085673217577 9.24604042252614 9.458692805815453
Cu 11.70494721645419 11.6390740415698 10.842684854029855
Cu 12.089508420306919 7.505715340781951 10.673878761977603
Cu 6.340713793942232 10.202878570284257 8.382783003067374
Cu 7.409250597375638 11.459854930964687 10.284874994438713
Cu 11.316539218729062 9.512041832006828 12.020669665124325
Cu 9.604221066461264 7.151404125360105 10.003381848778174
Cu 8.749723719149907 9.454528772390644 10.593424154055182
Cu 9.530256604805945 11.312444811151558 11.897586736470279
Cu 7.387088780179078 7.885437243351763 9.163590906206823
Cu 10.292970750090713 7.2785444767939405 12.30785986286545
Cu 6.121826231833405 9.323186672058249 10.632113007497201
Cu 9.298516941202019 9.217325531872444 13.283139692306372
Cu 7.3383962434764225 10.2639081882853 12.45434622161102
Cu 7.834968278029069 7.7022260375701865 11.832442513232756
