22
Energy = -59.88116796 eV
Cu 12.739606133516657 11.240260281789475 12.444036608350238
Cu 11.26101300088862 9.065180077919315 8.281529501041188
Cu 6.0438222474585634 7.269087703047083 10.90807514787186
Cu 8.983837108420788 7.874951205215246 8.445293569418368
Cu 9.869913022408905 8.851956483697391 12.118647468971645
Cu 9.211706121585676 9.91919456228144 7.146656001450894
Cu 14.042687885272034 11.322306311815074 10.458441720180762
Cu 10.73432541405318 7.7126372263738805 10.180543364649614
Cu 10.419691615923812 11.718278289985987 8.27151110242993
Cu 12.755389366331643 11.006886137819809 8.456884031289672
Cu 11.43194676825391 10.55889620760477 6.4207957615242615
Cu 7.983545683301093 10.857626368220842 11.459322278539716
Cu 9.320899996115552 12.48602456707297 10.249956611886887
Cu 9.688359454744061 9.978588726846585 9.95853161804335
Cu 11.776684249274 12.20011068864726 10.339286484392046
Cu 10.356611754079793 11.205505919531701 12.070318877107164
Cu 7.462088256424144 8.631397891332828 12.274602622579485
Cu 6.999852360073697 9.082918388130627 7.527257800899829
Cu 7.2523463671869015 9.049023745697612 9.877345421483462
Cu 8.502911917145335 7.096366349890016 10.769502292699952
Cu 7.894331635851781 11.160721006964552 8.75295270658574
Cu 12.063589172546743 9.747821283579556 10.648250978466802
