26
Energy = -73.14763968 eV
Cu 12.964721299005141 11.224962769905696 14.744068545729597
Cu 12.0556980552119 9.647082969537923 13.16759017976368
Cu 14.059459573668542 10.99862094674772 12.503741582541759
Cu 13.539936035102961 8.82822188328481 11.347976974765317
Cu 12.000151337664624 12.37594600715835 12.868800499138757
Cu 10.494430303831985 11.119762949242265 14.321462916010042
Cu 14.23515872798475 10.734482737290147 9.964348697269859
Cu 12.090608260823563 10.797069565011508 10.989445572361939
Cu 9.749760805597354 8.803676283259852 13.204914797648415
Cu 13.464978156527302 12.852146802187333 10.917374541366872
Cu 9.659212821511092 13.12533082318103 12.763664951048163
Cu 11.061975610321067 8.57338610341025 11.106048783333732
Cu 9.758431361175226 10.867081263082675 12.020144325450111
Cu 12.302951485213363 9.257780576476325 9.134091262046864
Cu 10.97467794914396 12.96091610891104 10.649871749745039
Cu 12.261034585837333 11.941237004204323 8.852869531716921
Cu 8.710686865209928 8.594634889404954 10.961847433578255
Cu 9.947324979676312 8.450294869047594 8.729373117565732
Cu 9.943308045595227 10.627740277765003 9.6304260539722
Cu 8.616366232958555 12.826146385678342 10.54534728054036
Cu 9.86473105935014 12.589224599325126 8.32593421646275
Cu 11.101077025748102 10.423533626734875 7.394145882962552
Cu 7.5759787551421525 10.690332836628455 10.850618684334293
Cu 7.5020307614731525 9.188002280322827 8.959249342514761
Cu 8.772076384081192 10.356395907996212 7.324896451657559
Cu 7.46235681683702 11.79218376117537 8.70411016766031
