21
Energy = -57.41787269 eV
Cu 9.864259436369963 12.576490840758078 8.577904428108486
Cu 11.910393371970748 8.829754589028921 10.684109649930269
Cu 10.394161085798032 7.3641821363682585 11.936022642170284
Cu 11.557231472831598 12.879137956048071 10.428831028864595
Cu 10.29752495047355 7.039628277277793 9.541206561483762
Cu 9.36511350264897 11.65373253818253 10.75804083260936
Cu 7.1717955828866575 12.464142893465917 10.315414183605819
Cu 7.856409490948438 9.622725700330253 6.592322531454391
Cu 7.448258914781635 10.091936051622838 10.86036951892945
Cu 13.391233903110951 10.92311203513819 10.526761279950875
Cu 9.628205914313318 9.311657970686422 9.729467107110699
Cu 11.464107050919871 10.869203972940769 9.205738043864418
Cu 9.465088382478541 8.008001547246392 7.426239434765733
Cu 11.650255836831235 8.988816506382006 13.190310788513983
Cu 8.013682383876763 10.993684454227294 8.617815199205106
Cu 7.502668866513981 8.578914874907975 8.811692800787048
Cu 9.41309530376988 9.582562029941966 12.256917862512829
Cu 10.049693096348838 10.37541822687041 7.319572804561836
Cu 11.379922073962689 10.92467290167432 11.820277423263995
Cu 8.210500758261535 7.776474631670375 11.021492742931756
Cu 11.625407789757087 8.681232274652178 8.223603497876772
