25
Energy = -69.95224874 eV
Cu 6.445232043246075 10.733832046989193 12.521102177457388
Cu 5.884641341042168 10.681358563369932 10.137939595550709
Cu 8.722481327123244 9.956198093092814 12.89698049917344
Cu 9.632858985549515 8.092389508954655 11.52281672525386
Cu 7.2873948983172525 8.960590245377169 11.094062515231402
Cu 8.151205237863218 11.296154173565723 10.899098298063208
Cu 7.515447758017274 11.63094705825824 8.579722068339013
Cu 11.024752040508796 9.12355756330374 13.186850423866423
Cu 11.976427152512896 8.534978774092563 10.990500694206586
Cu 10.534213635014392 10.56343265213111 11.324559064272407
Cu 7.055933562345089 9.155879249613164 8.584601555117851
Cu 8.24866157000911 7.1863291574777595 9.745825778017142
Cu 9.952232174737722 11.806187198682188 9.235738464040947
Cu 9.395124303917846 9.441597772472507 9.464659329815763
Cu 6.91742825913464 6.796878782022073 7.80272106106576
Cu 11.928843640877457 10.260225741358285 9.265729225745288
Cu 10.704379746690348 7.2981324232674085 9.237938717574298
Cu 9.198817543206497 12.74510595738737 7.165552306261776
Cu 9.053791585891563 10.352295638522644 7.191585287344184
Cu 9.204868611271928 5.705226522095989 8.107931613161968
Cu 8.9442730890308 7.969020176866201 7.4250785483471
Cu 12.979378260544207 8.107680745761824 8.781130032277963
Cu 11.29022040926475 11.405210057730748 7.176615626614274
Cu 11.151356123455397 8.898732218258335 7.358221512253439
Cu 13.282907238924041 9.994541269141521 7.229314410875114
