29
Energy = -81.68924405 eV
Cu 11.791636340640299 11.053163881712901 13.411663341032702
Cu 9.389493093079844 11.333536237154085 13.490226205892032
Cu 13.400074316540515 11.024205772689196 11.605582702751589
Cu 13.078053029053315 9.017652633968975 12.976328639045349
Cu 11.4536701454105 12.651474651930767 11.591232141362683
Cu 7.0334241775048065 10.846369133955411 13.942992553416465
Cu 10.637393416432209 8.927560146831194 13.237370189523727
Cu 13.35720094050003 12.814473285832339 9.901623192594643
Cu 7.631846690891387 11.513273549083626 11.746882949071681
Cu 9.337360479124703 12.550019070138863 10.345873626524142
Cu 13.933436236386868 10.443457560070877 9.237825091043495
Cu 14.670835510457188 8.996154305706856 11.07929151233413
Cu 8.26369759236216 9.33604711219858 12.529122245152504
Cu 11.67218876398889 11.168209634138686 9.652065301646301
Cu 12.607873561916204 11.967576771358045 7.6457684640334955
Cu 10.186844587949269 10.485067920230238 11.398567028057471
Cu 12.323412369992147 8.9371904863414 10.589244899934688
Cu 7.053118993791151 12.50261411993745 9.64008546790552
Cu 8.30070158375251 10.185392060899018 9.697785147823842
Cu 11.139866680807678 13.471857344304754 9.02206581696529
Cu 8.793107431385284 13.63760699613279 8.249142496770705
Cu 11.83361688422049 7.101117262708433 12.036889836407225
Cu 9.727034893961214 8.089833401170564 11.084541224655515
Cu 10.515598084661342 9.228728912219575 8.947191441416027
Cu 11.177355899450728 6.921716430711779 9.644457900383385
Cu 10.054314946788002 11.539979064864767 7.839023793582347
Cu 8.841794257396796 7.578151440590368 8.872139425488404
Cu 8.697155791599995 9.459218140633196 7.353698732847572
Cu 7.6776708243131475 11.586634971188854 7.528692968238819
