20
Energy = -54.99903097 eV
Cu 7.864378127370586 9.59153389757814 5.549326030608766
Cu 6.526050803697092 8.04290430829968 6.904769443579908
Cu 10.109327398303055 8.930789646689416 6.442947646393595
Cu 8.488236936310912 7.288913619346473 5.6348284354373614
Cu 10.264612574962143 6.633100564493928 7.153020176952145
Cu 8.781259598632023 10.704646536461594 7.495386881414113
Cu 7.881496294794348 6.090565240654849 7.6345686610792205
Cu 5.812806489996292 6.588717205032038 8.748988757038093
Cu 11.187666750305015 10.46683766028178 7.955659962683464
Cu 6.329751540778326 10.444229954630076 7.250597877100422
Cu 8.570322711661806 8.36317876731993 8.43523257647988
Cu 9.622466220430145 10.295906046196443 9.768702003429016
Cu 9.54264566798347 6.23455234750382 9.43771081779744
Cu 7.4220233610005675 4.898310245190512 9.678745192386419
Cu 10.998229450547196 8.256849235367433 8.822720304962655
Cu 6.183927977377896 8.965340606501686 9.18830083449699
Cu 7.3114390211809654 11.133592333088734 9.369412628342134
Cu 7.488467513794752 7.201757611250891 10.369209191388032
Cu 9.715999084398375 8.170012423527497 10.896860254828145
Cu 7.697293250025899 9.496662524136704 11.061413097153354
