22
Energy = -60.61617916 eV
Cu 10.524932517579165 9.018644869401788 12.117733463075313
Cu 11.634307496512678 10.261940471163888 10.308072055941443
Cu 9.110079829130523 7.403750648385371 10.892878756485697
Cu 10.289819724224165 6.8841863165240715 8.453279394689455
Cu 8.068821795826555 9.010220274053706 12.427453876200142
Cu 11.557264699112313 7.704909171036219 10.399917127777371
Cu 9.236291007484098 10.749664420152385 11.11356240589817
Cu 12.018827169487103 8.72534838255717 8.280179943094968
Cu 10.432143560888791 12.337253549593946 9.789122424799013
Cu 6.641204176040115 7.37108461402744 11.132384957213425
Cu 7.7998574440113115 6.9747094912174585 8.907590417586924
Cu 10.898473002133553 10.882134984562148 7.899783601274649
Cu 8.633183340031028 6.955210745749806 6.6116547237885
Cu 7.43853985043488 9.37468936454964 10.125264478349697
Cu 9.747241238781767 9.091773555934983 9.238730461118706
Cu 6.2390316240825365 7.093606786222431 6.947444896147105
Cu 8.416924209351896 11.158124987674011 8.787142167776029
Cu 9.51984657520576 12.913221631932224 7.6012373525556916
Cu 10.127173516598546 8.786402384467053 6.7816113433376035
Cu 5.682856772539259 8.168144773516238 9.016146668120673
Cu 8.885742106949806 10.836170580519955 6.4339865458432275
Cu 7.660364212292965 9.04730625668122 7.580151994385118
