21
Energy = -57.5237699 eV
Cu 9.821494120081283 6.027566127002521 9.185289880242866
Cu 9.624159574728914 6.377374309152868 6.670596174008012
Cu 11.812053177377956 7.321910867474639 7.454732825071074
Cu 7.643210210230587 6.888494258082288 8.025543983544923
Cu 9.485548778298233 7.790848142625481 10.877318573388173
Cu 11.649436640320719 8.13214154339486 9.78191846439933
Cu 10.354028880743082 8.659816360639491 5.953377043261705
Cu 7.6660162709889565 6.352659426988737 10.42090852365253
Cu 7.9625818411407465 8.00559359755884 5.856653386435048
Cu 9.754635008564247 8.189824384402437 8.271724864235605
Cu 11.121453795535352 10.062279164293049 7.940367559531393
Cu 7.8658580037246235 9.159698269578035 9.274345465359037
Cu 6.356875619284691 9.00473431510489 7.427439985385979
Cu 5.852766934326141 7.6743683363846396 9.50244353334182
Cu 8.66310383197886 10.05085559244727 7.003985602592969
Cu 10.099759492104013 9.989650673074566 10.196960280972032
Cu 7.216772493702564 8.610081404431298 11.453702718677038
Cu 9.370648428875047 11.67412239321848 8.693233940308945
Cu 5.711998488563871 10.062025386912065 9.96714361007839
Cu 6.990410834946715 11.288169042350775 8.277011508007158
Cu 7.9193655475123625 11.084517380268078 10.63823582818065
