22
Energy = -59.42962211 eV
Cu 11.349325689919276 7.297240815412436 10.244660239216467
Cu 11.00284810425531 7.9396274730099385 7.9951167733791815
Cu 11.85801834248964 8.891112906819341 11.925533587385564
Cu 9.090847783359786 6.999923701960832 9.260953991411009
Cu 10.333760766411777 8.555860498557015 5.74673719068622
Cu 9.71101343821639 9.0793203194659 10.404743088232811
Cu 11.998369086021588 9.673643191352944 9.559489508077798
Cu 7.374393999671745 8.838745018905374 9.465795815846828
Cu 11.737357425940036 10.179195646902013 13.968320603622486
Cu 10.70946507123533 10.282932645618677 7.408448608378958
Cu 8.780603397139972 8.678667031216024 7.523448432236324
Cu 13.1242794556078 11.703457203573707 10.278454286790575
Cu 7.5743311989804685 9.554520841637146 11.768365461849319
Cu 11.36074349171173 11.224419096227502 11.78816494906911
Cu 5.410723575006506 9.427150017047627 10.737225087495611
Cu 9.723697382729164 9.718738473087175 12.814864757976482
Cu 10.789636919230013 11.857213451373672 9.427638686416671
Cu 8.70935060449966 10.802276680539682 8.654328573761289
Cu 12.69414060620498 11.46847265858646 7.941173049367369
Cu 9.030992611286825 11.405284274378024 11.136746688805431
Cu 6.830868706291907 11.245459795867664 10.074516984258123
Cu 8.540515070714807 13.029657581052184 9.465503017200795
