27
Energy = -76.20031943 eV
Cu 11.926692576699285 14.235126907331436 10.035082418736714
Cu 13.370392385839084 12.583604168028906 8.902808193491392
Cu 13.829629007734852 13.295260855796169 11.307160837318582
Cu 10.824780911763122 12.58574165222624 8.61651395861918
Cu 11.726929738385454 13.77519527170649 12.417191367932917
Cu 14.47592391737291 11.08792742496667 10.550567934642968
Cu 9.887729677855743 13.15583230843388 10.867213942284428
Cu 13.613039099907983 13.450891308083957 13.87193831021092
Cu 12.257488048673052 11.466002190098006 7.0501352165759466
Cu 11.878107925913861 11.65777724973136 10.734634450495708
Cu 13.383439165818206 11.305325270145056 12.681162647593213
Cu 13.233354490359279 10.088612909739819 8.794898221833835
Cu 10.871168727041411 11.612971770233692 13.12884836945126
Cu 11.904003966071812 9.053825624741 7.086251835238485
Cu 10.044461564653245 10.538744752480586 7.548434424006997
Cu 12.781254437055509 9.357887155240123 11.207391217311773
Cu 9.395863204696324 13.770172196775093 13.1541595067243
Cu 9.367500032548575 10.996066669817496 9.866555473733305
Cu 11.063669650048816 9.256936197354213 9.367645341906284
Cu 8.638060419442139 11.504125800841495 12.187072753991817
Cu 11.98624459915351 9.485762272859397 13.591567694382281
Cu 12.9869550393225 11.416096852244296 15.029809763872407
Cu 11.260003896383157 13.217849184949264 14.845816117284857
Cu 10.400847784236353 9.6951177162431 11.644095747772718
Cu 8.952664212460071 12.004866098153625 14.695341763225871
Cu 9.372573337979375 9.749806576699864 13.82409726687214
Cu 10.803989287886678 10.733465321593158 15.525758095236394
