28
Energy = -79.67705253 eV
Cu 14.221666673201204 10.246874749448862 8.754271545782535
Cu 11.918919327380355 10.369912633517261 8.123136847503861
Cu 12.696078217285427 11.985159425942244 9.766296571675195
Cu 13.005508548877902 9.696279514200977 10.71135143684536
Cu 10.855241783307633 8.247128934097795 7.315658793481375
Cu 12.820255284884116 8.20200294376796 8.759030914494213
Cu 10.686642042028863 13.048969564683151 10.912703856163919
Cu 12.025840345271082 11.386843625346405 12.129307480630985
Cu 10.411695015470956 12.491981832404074 8.476448747932569
Cu 11.009766107232773 6.459976244022637 9.119325499898979
Cu 9.523895191582014 10.317897494067168 7.779889832134606
Cu 12.340867244018769 7.373117923686044 11.02013005607608
Cu 10.99703130514292 9.15660893037061 12.04273183422415
Cu 10.539823468691697 10.799577709367993 10.187730087365455
Cu 7.9992827817166035 12.274040426112622 7.8963049729105
Cu 10.165976600270447 8.536011710023924 9.649119660204805
Cu 9.50843518083929 11.230372144418464 12.326724808588704
Cu 8.446358803948986 8.090276126055183 7.827581261174804
Cu 9.984288740377524 6.940643710259193 11.43848953334804
Cu 8.07675642715933 9.81447629410102 9.73501611427894
Cu 7.91083183186546 7.368233903720744 10.17538556582019
Cu 7.1049721625594175 10.11837715838402 7.347933154138348
Cu 8.453298877631942 12.246253820311559 10.230318314678026
Cu 7.136356343982291 11.005726210595151 11.853517213210377
Cu 6.150900209443315 8.512656257216278 8.778897357017424
Cu 8.548028018208749 8.934950762681892 11.996010249075624
Cu 6.1998598926477095 8.94333856943046 11.119712299818316
Cu 6.161217821760021 11.102105628553097 9.42677023831344
