20
Energy = -53.9082021 eV
Cu 9.052953618949532 8.474993557228247 8.426007615397383
Cu 12.295600326141589 8.295002902615837 7.4699696828569735
Cu 8.799532261662492 5.9803221123177694 8.488119601308805
Cu 10.264698826270635 9.32738673523872 6.433387817909727
Cu 10.311555894101492 6.9656333324750985 6.886268880973162
Cu 6.872637406449202 7.57934066859539 7.916668300807051
Cu 7.8353894719450885 9.82520555331765 6.862709923543131
Cu 9.653975575788767 11.089013154910175 7.954485377321426
Cu 12.018573015523454 10.674932754942224 7.4205315387019395
Cu 5.7210139168037175 9.714848727425712 8.000602351753669
Cu 7.30486746365231 11.35963130366131 8.835673874253764
Cu 11.141151844196466 9.513391038553104 9.311778620814131
Cu 9.205414996692783 10.64741335690152 10.23933362871724
Cu 5.20628048714218 8.069798637866448 9.725249095249653
Cu 10.964129443854445 7.053482748044835 9.247751948490231
Cu 5.123608335930308 10.430818321663603 10.20685647065746
Cu 7.230442543337651 9.302158101138518 10.08435131169753
Cu 9.517048349113647 5.8829880059371495 10.828045716581414
Cu 7.421634390523128 6.924629154243302 10.232942233635457
Cu 9.453470346592233 8.28298834759448 10.82324452400098
