20
Energy = -54.75522105 eV
Cu 12.147428209362284 12.147428209362284 12.147428209362284
Cu 10.45404761221975 12.220940961814934 10.45404761221975
Cu 10.45404761221975 10.45404761221975 12.220940961814934
Cu 12.220940961814934 10.45404761221975 10.45404761221975
Cu 10.520859351578265 8.666744648421737 10.520859351578265
Cu 8.666744648421737 10.520859351578265 10.520859351578265
Cu 10.520859351578265 10.520859351578265 8.666744648421737
Cu 8.73355638778025 12.220940961814934 8.73355638778025
Cu 8.73355638778025 8.73355638778025 12.220940961814934
Cu 12.220940961814934 8.73355638778025 8.73355638778025
Cu 8.666744648421737 8.666744648421737 8.666744648421737
Cu 8.73355638778025 10.45404761221975 6.9666630381850645
Cu 6.9666630381850645 10.45404761221975 8.73355638778025
Cu 10.45404761221975 8.73355638778025 6.9666630381850645
Cu 6.9666630381850645 8.73355638778025 10.45404761221975
Cu 10.45404761221975 6.9666630381850645 8.73355638778025
Cu 8.73355638778025 6.9666630381850645 10.45404761221975
Cu 7.040175790637719 12.147428209362284 7.040175790637719
Cu 12.147428209362284 7.040175790637719 7.040175790637719
Cu 7.040175790637719 7.040175790637719 12.147428209362284
