22
Energy = -59.61300601 eV
Cu 9.340198363519884 9.391255306953699 12.736228015562217
Cu 9.619562825530588 11.676747194337375 11.78536207580103
Cu 11.010114404979161 9.88001077838632 11.015614583276188
Cu 9.800509355459551 13.797453128740543 10.713053426840547
Cu 11.42839457264233 12.175791982665569 10.08311116407712
Cu 11.873292377662079 8.152853833389495 9.455161888447059
Cu 13.064411353794773 10.294963488972845 9.833139370730803
Cu 9.736454578378329 7.883972030535034 10.651538711772421
Cu 7.675145640977993 7.779727406905585 11.869813965263702
Cu 8.15249735754486 9.962866507797758 10.795595264248451
Cu 9.091741854808024 11.772247933404508 9.398354193046805
Cu 10.506416737034858 6.139692855545882 9.06299432750532
Cu 12.816737524706806 11.891789509741963 8.082043246968775
Cu 11.05384815821861 10.308243726552611 8.524934470825498
Cu 9.838734986570964 8.2741753375923 8.065972878636597
Cu 9.062500290017068 10.512334644467272 7.278113524991766
Cu 7.443628264352868 8.067182775759392 9.438411566683287
Cu 7.110628169079024 10.411757945575333 8.70791927706735
Cu 8.36940420253114 5.947829903370636 10.303851452011955
Cu 8.366932518051556 6.389825023766909 7.905432318920489
Cu 7.60370939900302 8.576313579847842 7.05362036912473
Cu 6.878041305458011 10.760973055279866 6.353642518516255
