25
Energy = -68.58370071 eV
Cu 11.098526658901607 11.431696831678481 7.4383072877662855
Cu 12.785305147454682 11.201325191884528 9.199221227530376
Cu 11.7979117261621 9.159747083777592 8.150086949133927
Cu 9.468942938348679 9.64814628097674 7.51551915507625
Cu 8.2728270410382 7.98975228866015 8.822005651489574
Cu 8.893342950199406 11.888212442025033 8.465277833880506
Cu 10.262289228159363 7.3354547538491826 7.518062442579135
Cu 11.131404623547343 12.969955440932377 9.264338971344406
Cu 7.167929099952423 10.085443104099959 8.19735102534975
Cu 6.826519782117167 9.760430211429254 12.362589588248262
Cu 12.597860608116493 9.206518858872519 10.485886116060984
Cu 12.953948513266381 12.981801501274019 7.632349802018709
Cu 10.254651975950813 10.401023254907015 9.817023455398243
Cu 7.627343313378172 10.946753617746747 10.402934784120292
Cu 10.523785836201737 7.925984985662676 9.852788582301676
Cu 6.37539887533485 8.832864093926926 10.160170724777497
Cu 8.592380812911209 8.708224417125438 11.131892237103921
Cu 13.111460414863886 10.678897032520423 15.073862828142977
Cu 9.378368833400584 12.592816086519447 10.777300094035182
Cu 10.81804615208514 9.069997539860104 12.058902207939287
Cu 11.621707450034387 11.525286077572755 11.461101394344901
Cu 13.048781518702757 9.817159931873089 12.76010531995275
Cu 9.126265118306723 10.791235191170246 12.360142676264633
Cu 13.127169894154038 12.168707734619627 13.249356321611982
Cu 11.085877720871169 10.830612280494998 13.791469556988405
