23
Energy = -62.76474338 eV
Cu 9.151035190715122 8.27527252109468 11.95804109725343
Cu 7.918127706027975 9.788708908856067 10.49257433144813
Cu 8.717229595630547 12.028968180350246 10.428657162982368
Cu 8.231001913745997 6.447362621379513 8.475034524873916
Cu 8.899563742477495 8.174422182667023 6.942320953395999
Cu 10.739090050277124 11.509723263864956 9.07285369980095
Cu 12.628260952719785 10.170303460060671 11.82005331764992
Cu 10.914639539313162 9.339384772976656 13.273953991975159
Cu 8.739638416128285 10.359158308377799 8.051756946888464
Cu 12.68207794709377 11.030528374653459 7.591804706663475
Cu 10.93866690868658 9.417371094210303 7.387738078167743
Cu 9.765284095159508 8.43572772522211 9.315072019141537
Cu 8.700989347165669 12.718280638710796 8.130976184516516
Cu 5.800124060691658 6.6456589105575326 8.829352692083706
Cu 9.678554137311565 6.389831416171823 10.467148368624109
Cu 6.945750294566814 8.751206653930051 8.478244563035247
Cu 11.420888354708698 8.049962536212542 11.225222910847778
Cu 10.426318456793311 11.705924950444041 6.728855104317618
Cu 6.7202227767567475 7.1273689448029325 6.65353380909368
Cu 10.301856838241132 10.306671236986007 11.149512869380564
Cu 7.3931006264741 7.367335478501284 10.514657450129862
Cu 12.148921380967936 9.587370327409332 9.499495336911352
Cu 6.777248369359379 11.348527612180186 9.062149329601363
