26
Energy = -73.00037966 eV
Cu 10.708362793532395 12.07542787021073 16.436825295452447
Cu 11.60196808660856 14.451837627353882 10.364016124498939
Cu 12.224225908667233 13.290118118117134 15.022435992773651
Cu 13.977855423790542 13.815655923069315 11.246664506104544
Cu 10.555230903350523 10.502646089179205 8.309343125910505
Cu 9.959990471701873 12.942352516820272 14.205095866717631
Cu 12.262707959495218 12.271478888363998 8.086239527021474
Cu 12.287436746676772 12.162148027988746 10.992763944329711
Cu 10.351427654024125 10.60612082119604 10.771722777445799
Cu 10.075011075672132 10.344863335935054 14.882335990368661
Cu 14.29057053018845 12.181615382791927 9.386624158399407
Cu 14.06457340139527 9.912380082352653 13.610846825602934
Cu 12.566054936267808 10.939723064934277 15.278568327559706
Cu 11.385833561532138 11.291081281526724 13.09150391051493
Cu 10.230431729455947 12.650457257287842 9.335851141683918
Cu 13.451488290932975 14.32425209045479 8.812224899084537
Cu 11.921610718461201 13.945542834194168 12.748584415522592
Cu 11.975852540685898 8.870419318922607 14.189853842980826
Cu 11.164786169243003 14.408942023721412 7.930129900440661
Cu 8.892845321345195 11.169195974762497 12.798724978133336
Cu 9.981719141689785 12.99993949986847 11.713663895493239
Cu 14.372356881129114 10.89751144468206 11.415572036737814
Cu 10.135098172340905 9.112946826325247 12.68160327691597
Cu 12.63833304100767 10.280393115359718 9.532740215752158
Cu 13.687412156185285 12.322099992384953 13.273081090514111
Cu 12.426693212809552 9.460386127341241 11.804838454035306
