28
Energy = -79.44565518 eV
Cu 14.432996055957334 9.71820795751783 9.0939948751661
Cu 13.394738271790802 11.859843942240229 8.4926688075799
Cu 10.892889430830179 13.9694781951285 12.767749450162519
Cu 8.75800296222442 11.376832035922263 9.85145339932675
Cu 7.251748734796371 10.798892798643426 11.759590445786927
Cu 9.85194279352684 12.485037864186921 14.537336535261701
Cu 13.761146225027133 11.012264060939234 12.863687207794921
Cu 14.713209730114137 11.594641324384698 10.62319867751771
Cu 8.310984418181857 8.814245620865606 12.912616230081182
Cu 14.273250787473174 9.229452077254251 11.410228253812686
Cu 9.845051784019544 10.29723943653344 11.707536195840685
Cu 12.314846613551028 8.340445751258018 10.191781925561957
Cu 8.122442093339881 8.982331664891586 10.457562381191313
Cu 10.828292688576571 11.601101455430708 8.49265739481642
Cu 10.169277275680727 7.9181526440675025 11.440113993289353
Cu 14.090618864721272 13.877571082045689 9.735697156582008
Cu 10.195189722068445 9.915918645524439 14.144615545207103
Cu 8.91423378205846 12.514838561180444 12.310597538502853
Cu 12.318488979819755 10.754448476511635 10.552655817856873
Cu 12.057609951431793 14.955560785851752 10.780393028090893
Cu 11.906715833538398 13.72101429843693 8.702261662536765
Cu 13.021270251337423 13.025085786202242 11.712530304332084
Cu 11.45561099492733 11.62456835184887 12.96905669122905
Cu 10.25897673528571 9.407575658106351 9.406566066684725
Cu 8.014394573673753 10.966082105432873 14.033014302152226
Cu 12.282122616913739 9.709698500514767 8.100725085505658
Cu 10.73306798913309 12.725450932746762 10.656000081475815
Cu 12.017591476947716 9.250592923625588 12.54740226881894
