21
Energy = -57.45896099 eV
Cu 9.695683917957773 8.508762039015261 13.700575016798583
Cu 8.425777798520658 10.369412682322762 12.718409633214709
Cu 10.957081284018454 10.270911631406772 12.602972940447975
Cu 10.903577338188654 7.375329626076908 9.773509154641234
Cu 8.732605695172259 11.144087500525517 8.49541362131205
Cu 8.889339653377945 13.285588992496962 9.678725225658596
Cu 7.476719618925835 12.20359818046975 11.363608270479482
Cu 11.553374536024998 7.924727142893404 12.106161665140515
Cu 9.433785043248001 8.646465772989833 11.315005158708031
Cu 6.894616983900461 9.551420244284541 8.138014257201988
Cu 9.674475935885937 11.320062918018968 10.819758295694687
Cu 8.882545666970435 9.421733267800047 6.689485080311128
Cu 8.987942913733985 8.651887394644197 8.948266070395274
Cu 11.54830600203163 9.666011406049513 10.305673083920771
Cu 12.989040925349908 10.986132697099967 8.901569710748777
Cu 12.054352419837151 11.915735468615745 11.050067800072265
Cu 12.667989351515345 8.5327711081286 8.44143421736794
Cu 10.937822665012108 12.246633560057973 8.933231576102154
Cu 10.582538664337122 7.706697356558343 7.379903340857736
Cu 10.911110342400637 10.08368444649951 7.848134010993173
Cu 7.567056447315838 9.99115509077298 10.417505341898133
