25
Energy = -70.15432921 eV
Cu 6.809924161304764 8.548766342811541 6.606903223793871
Cu 8.392596943642207 10.108202961012363 7.675163388098758
Cu 9.187106117427602 8.154017212594896 6.361260021416062
Cu 6.245652218317258 9.507657324004606 8.77669420333953
Cu 10.05349679067448 11.479973513394812 8.891742239719882
Cu 10.76261668567734 9.87138295385637 7.121187057058884
Cu 7.762872096383836 11.064982114539232 9.922932965916937
Cu 5.659194907528243 10.443489484743818 10.984676693630886
Cu 11.518423313480982 7.818637134708943 5.975882798170037
Cu 12.96081682292959 8.975163921437762 7.468348257897388
Cu 12.375237966619764 11.454809711632114 8.018888097027112
Cu 8.073344339358943 7.814113767853188 8.513449954381993
Cu 10.724170400203292 7.716789931828069 8.373689062326966
Cu 7.674214127850885 10.565776426982149 12.340031802063471
Cu 9.55892190537164 9.306123045446613 9.917371588377398
Cu 7.323157822080838 8.65997034031282 10.818808845634234
Cu 11.923024191069828 11.93327227994931 10.436324274102319
Cu 11.973889292505474 9.664165718402883 9.521964610090997
Cu 9.116767161180633 6.946669463456776 10.474599059502449
Cu 9.650136292709444 11.633929009642536 11.349244732944577
Cu 11.302348671806598 7.767600623826583 10.855648247603833
Cu 11.492766082774706 12.190097054288442 12.850066133786164
Cu 9.357709781373577 8.652151582450488 12.296820826675646
Cu 11.399139858018104 9.965471616513373 11.918186756488197
Cu 9.731331952054084 10.730088678980922 13.609169763588625
