26
Energy = -72.8883486 eV
Cu 12.692190307185745 11.43466065315232 9.309338973754201
Cu 12.275790213356572 9.71039175252387 7.734543609557968
Cu 12.046074910734703 9.252658059594218 10.233359233670775
Cu 11.014842818762691 11.817490233434143 7.244475329116741
Cu 11.907334882667138 11.23079736634879 11.612181452128391
Cu 10.727244208430612 12.638721924078784 9.8885900511402
Cu 10.231860170174418 10.455477857399508 8.909854967634113
Cu 10.762415345322127 9.126462529551045 12.323368899683306
Cu 10.126898290527553 9.348279394891122 6.58042599538184
Cu 10.786571878522558 7.925918450133682 8.484489311662815
Cu 9.51356938468396 11.074108840594938 11.333027284229216
Cu 8.579096704690016 11.10517844809796 7.235554738079114
Cu 11.013465287899368 7.088874118744919 10.852828639809104
Cu 9.342493805507404 8.783748784235987 10.356399679881267
Cu 9.239851955500075 6.953014909084966 6.829487282466368
Cu 7.831479196309583 10.761967869499005 9.590343235639862
Cu 8.757270359250738 7.2519045210162325 11.952616678307148
Cu 8.284811891776611 8.70244377663732 8.13690774177366
Cu 7.542640781250024 9.527128730741744 11.71155559392961
Cu 9.078308458973327 6.454213776537513 9.424314529041549
Cu 6.367232141345058 10.11208258772692 7.68849300368616
Cu 7.175384652844765 6.306281619570382 7.957033239636354
Cu 6.879913818714231 8.070611289416394 6.303609010443093
Cu 5.700856099761296 9.65688662458793 10.02452211623824
Cu 7.020606321907788 7.584130080603219 10.173288719449017
Cu 5.452349016336629 7.952490291959769 8.313802435209842
