23
Energy = -63.51358053 eV
Cu 11.004084161843297 12.491590184969324 10.674682123465784
Cu 10.813666128624371 12.297618263039912 8.191819089999381
Cu 9.126227253118921 11.456702140003351 9.656952110979631
Cu 9.322913698099654 11.133535287516596 12.06522349398368
Cu 11.402933309469935 10.112679154866916 11.116762476022362
Cu 12.588659831945739 11.145505803643006 9.269642814420251
Cu 7.017559041856027 11.595114775362871 8.351241445809736
Cu 9.107839022390486 10.996640317233437 7.1047753463427865
Cu 7.086556177984386 10.51730494654112 10.673118836181184
Cu 10.411456563740142 8.591958357621307 12.736496229970669
Cu 10.684907090368394 9.718053044618696 8.641819264798123
Cu 12.785021332905913 8.370935875978738 12.067800905611474
Cu 5.683121858508093 9.600760397737112 8.814379624393414
Cu 12.88600974697481 8.798026255965413 9.565920058552875
Cu 9.095124184509524 9.156195607133593 10.788368554927235
Cu 6.947493471244425 9.963654162192077 6.547761758446187
Cu 9.460647338983392 8.546051199653798 6.8380842289321455
Cu 8.035139698577831 9.392863429943482 8.581332022554658
Cu 11.380869063931632 7.498397433969018 8.018811265656238
Cu 11.064761704386804 7.598738202222719 10.552372015167062
Cu 6.995446399868215 8.032684259879817 10.302635559071126
Cu 9.18460719496108 7.3333950899378415 9.05575312296617
Cu 8.883233555609852 6.918614037553409 11.504487890898492
