23
Energy = -63.92470604 eV
Cu 8.394317087135114 9.088028927946018 12.554713736046
Cu 8.441554107870134 7.519112693398037 10.480870676872494
Cu 10.478588941172047 10.487299224486371 12.649658882192329
Cu 8.342512936896677 11.581735069315554 11.76887081890356
Cu 9.31965449121021 9.718426014083356 10.480874829812969
Cu 8.34246495987659 11.581740813425158 9.192905504893337
Cu 10.415458723458816 11.88116536094431 10.480879172158094
Cu 6.992660764891358 9.785108079802292 10.480885715460744
Cu 9.00413365659862 13.750231388044979 10.48089638474871
Cu 10.369422648284285 12.992120403658877 12.556960680626842
Cu 11.627004572010607 13.907770488086918 10.480860503270234
Cu 12.705300713830523 9.323027425718632 12.551763932277185
Cu 14.012924247465731 10.224497573869833 10.48083222243665
Cu 10.597333937863302 8.056468249105539 11.775397449542647
Cu 12.7052589088272 9.323035595396 8.409942232050822
Cu 11.70985922961227 9.850492140364445 10.4808484785867
Cu 12.765896165226541 7.743458608645627 10.480827172036609
Cu 12.498080731455078 11.811121478437414 11.778893447383155
Cu 10.597307693403536 8.056471162376747 9.18632919754129
Cu 12.498030032502154 11.811128028062885 9.182816899930778
Cu 10.478548640555577 10.487307672366233 8.312074700492955
Cu 10.36931231685775 12.9921363938333 8.404777870821935
Cu 8.394292365144915 9.088035208632101 8.407037747615338
