29
Energy = -82.82057942 eV
Cu 10.469356193988812 10.47117514 8.531752973921975
Cu 11.722186430998871 12.615556020742535 11.78258596273632
Cu 10.469356193988812 10.47117514 12.41059730607803
Cu 7.998976635600685 10.47117514 11.77427113589106
Cu 7.660145201999493 12.673201559774583 10.47117514
Cu 9.983227364953699 14.027784709890629 10.47117514
Cu 9.202537204410977 12.568860353066302 12.67324784229177
Cu 11.224800738236732 9.170867022329933 6.764857456778938
Cu 12.903491273347512 10.47117514 8.26018194055956
Cu 11.722186430998871 8.326794259257465 9.159764317263829
Cu 9.202537204410977 8.373489926933697 8.26910243770823
Cu 9.009977243313632 10.47117514 6.736049099696458
Cu 11.224800738236732 11.77148325767007 6.764857456778938
Cu 11.722186430998871 12.615556020742535 9.159764317263829
Cu 11.919675457533733 10.47117514 10.47117514
Cu 9.76537240322076 9.21670500446863 10.47117514
Cu 7.998976635600685 10.47117514 9.168079144109091
Cu 9.202537204410977 12.568860353066302 8.26910243770823
Cu 9.76537240322076 11.725645275531368 10.47117514
Cu 9.202537204410977 8.373489926933697 12.67324784229177
Cu 11.722186430998871 8.326794259257465 11.78258596273632
Cu 7.660145201999493 8.269148720225413 10.47117514
Cu 9.983227364953699 6.914565570109368 10.47117514
Cu 13.782606738346372 11.853986513412536 10.47117514
Cu 13.782606738346372 9.08836376658746 10.47117514
Cu 12.903491273347512 10.47117514 12.682168339440441
Cu 11.224800738236732 11.77148325767007 14.177492823221058
Cu 11.224800738236732 9.170867022329933 14.177492823221058
Cu 9.009977243313632 10.47117514 14.206301180303536
