27
Energy = -76.36745178 eV
Cu 12.420296523918104 6.986701879075673 9.987748184618997
Cu 11.234929333515888 8.163264891553979 11.78358057256511
Cu 11.214038980141748 10.583907697775565 11.313808965546272
Cu 13.051662848076347 9.289646361689769 10.385228109567864
Cu 12.77043113602135 8.494820393647093 8.056379417004038
Cu 9.572774073994761 9.578976376104407 12.945917487269327
Cu 10.72928966268058 8.804843408146215 9.505451322057274
Cu 10.034232794769226 6.474516716081902 9.597468867433468
Cu 9.320313101102201 11.896640760774318 12.168089366281617
Cu 8.858835784082537 7.636760515995272 11.416809231717204
Cu 11.911724876110627 10.857419150943224 8.875450575991433
Cu 7.294555680915526 10.551593079125345 12.466178632326736
Cu 11.737351052529004 6.210819995670765 7.813889390770541
Cu 9.886158467325563 11.969304566965631 9.737469107631817
Cu 6.664021706838803 8.682567903128858 10.92980196315166
Cu 8.805899676568526 9.952948354773266 10.64688724982818
Cu 11.919277821331923 7.675595023666398 5.9066189394187845
Cu 7.487435724355427 12.143174767883071 10.561257446241457
Cu 9.935526590233893 7.762881354024889 7.371473384192184
Cu 8.197552976110046 8.05574830117884 9.10249446559509
Cu 10.335496285785629 12.04881227629492 7.345412723599158
Cu 5.439357732669707 10.811259669326699 10.885217222335847
Cu 11.183153211854385 9.808121291118969 6.775286613468878
Cu 7.992780661654816 12.239465423842214 8.153925744749401
Cu 9.14067391529501 10.084818558254637 8.054580010150717
Cu 5.68521515120787 12.3480762069939 8.960001633360882
Cu 6.851273599924008 10.207994650380087 9.001740622649297
