21
Energy = -57.11949153 eV
Cu 12.105223764567356 8.65924174732741 11.437398202641843
Cu 12.443551577904351 9.516778213580873 9.332657914328022
Cu 10.672673049092813 7.708072019696084 9.816090459069416
Cu 12.676922407692498 10.351513300829163 7.123744609614971
Cu 9.935756792077248 8.23063845051693 12.13433356222919
Cu 10.45896043614186 10.237890464273915 10.756752291021236
Cu 10.900228092955372 8.615646598018504 7.613863311615774
Cu 8.366205841782277 7.354237322801768 10.402906413314584
Cu 9.086417452432253 7.109800118139347 8.123663949744044
Cu 10.482826594354055 10.498675025385278 6.171009507924636
Cu 7.663892808663068 7.841385716895836 12.662212455390991
Cu 10.676298475948286 11.009110128065137 8.51275790608
Cu 8.716371276001972 8.836906179256529 6.401741668770215
Cu 8.791877696514378 9.351700633768269 8.876485241661749
Cu 8.14790465236214 9.791583723966452 11.316432169764381
Cu 8.494253065174654 11.321003276141795 7.326679605482174
Cu 8.69920068806458 11.544763109149166 9.791047434302836
Cu 6.745484267264331 7.8207790045738355 8.638522286387834
Cu 6.078953314954351 8.339540342694233 10.96442797900557
Cu 6.756822082470892 9.75489418875494 7.320961462178281
Cu 6.528546416923791 10.353498859642503 9.572314369476246
