29
Energy = -81.35169524 eV
Cu 12.310076445137648 9.566171531034263 9.594493607184107
Cu 8.567917884604132 6.663238084689416 8.319429084780413
Cu 10.715245874211586 12.271221973889386 13.237060513500683
Cu 10.309101001250962 6.1479264193525625 10.081116101800776
Cu 11.525384723488107 10.773885598937445 11.579242330190429
Cu 10.82028253490198 12.651124967857477 7.163142513804043
Cu 10.689842268220634 9.609457256980813 13.499216377254823
Cu 8.594531337619319 9.131834411562119 7.980752801804644
Cu 7.588609153583531 11.94467927152103 10.610727700635492
Cu 10.748574454459817 10.350059229019303 7.813105879042034
Cu 10.833450485268832 8.30920933146245 11.381710976781005
Cu 9.945104632493683 12.532567519073709 10.830692409822547
Cu 6.846028154678929 10.535035158984174 8.794286685399326
Cu 13.911477142288904 13.337191858474615 9.73725062666593
Cu 13.185678725829263 8.996296578191465 11.781822813101334
Cu 7.083151507431852 9.586811787313373 11.088780327221935
Cu 9.625404095448006 10.14735827679842 10.04992067012063
Cu 8.679269336959532 8.523669235344647 12.639597203868345
Cu 13.785735728721122 11.180744778600229 10.817855673064093
Cu 10.631890788047258 8.066909820737852 8.7692622526797
Cu 8.921063244605117 10.869750492218053 12.36071769206331
Cu 12.316428345032348 13.055624583229081 11.556145390181834
Cu 13.111995950132782 13.18381692869441 7.511472988122478
Cu 8.9630235048591 11.868114955655939 8.507768052904789
Cu 11.893186188552571 12.032066490654088 9.275451320990756
Cu 12.590993269893707 7.196141186449708 10.14152089057253
Cu 5.307287846273711 11.103818214723146 10.486065221398405
Cu 6.598485843777223 8.135914888005997 9.011961689396967
Cu 8.582941822729307 7.844943666968447 10.343494211085906
