21
Energy = -56.64244044 eV
Cu 13.163742367104486 8.809562080569167 8.324952125771388
Cu 11.945109467705114 12.454507140066442 10.08902370626352
Cu 12.829768667982941 11.142876100933172 8.163957197330753
Cu 8.527926389192368 11.013959710543665 8.096632510835756
Cu 11.456558513622356 11.135807989758352 12.153979195653648
Cu 8.827022279858756 13.175356810578839 9.302224767945571
Cu 6.1909816034460246 9.272827018353306 10.942233634993476
Cu 9.523951446775467 7.3141281160008695 9.567324774239689
Cu 8.184715053011088 7.693999011973718 11.687453463219212
Cu 10.407295847185152 6.680041701181981 11.732080418273938
Cu 10.372962405211062 9.039371378892955 11.358199861737466
Cu 9.84129827745134 11.297016788566685 10.360479799779243
Cu 6.419772755353084 9.776703595121338 8.56541919246995
Cu 10.655006244598686 12.094581191990066 8.106462977675426
Cu 7.220206120814503 11.532962844061915 10.140541326443401
Cu 11.86765204666485 7.635282160216952 9.989399573213014
Cu 8.372521459060755 9.432191551889137 10.008071422309786
Cu 10.65099570783352 9.468789247044878 8.581184499550465
Cu 12.374735320704788 10.032641363313756 10.24881098994485
Cu 7.01903434229535 7.491612097115494 9.47420480353321
Cu 8.43885410354115 8.579184396408234 7.731425895160021
