22
Energy = -60.08338917 eV
Cu 11.052146117700785 9.791005083687534 11.828818584195812
Cu 12.011984082947466 7.862106367834357 10.605026554456769
Cu 10.32402599224185 5.926642559055103 10.31584943518837
Cu 12.701033022596214 8.461078241255093 8.195121069493725
Cu 10.486133851028853 7.7623689470496355 8.77549817671002
Cu 11.556507665860135 10.076509862377053 9.49652102961187
Cu 10.68096569645462 9.539076856051995 7.185055239272903
Cu 9.586986359429185 7.974729138757436 11.244061825816914
Cu 8.645589633226576 10.076281238156271 11.922483986108958
Cu 10.126070449163619 11.664941463499938 10.587117983442122
Cu 8.289909524167635 6.982728505785647 9.310535638893208
Cu 10.432516697211149 11.801495116669907 8.17853399372266
Cu 7.17853423205435 8.313095171729193 11.091336620620288
Cu 6.761334625336493 10.554204845774889 10.304034330105324
Cu 6.642741801729099 8.743163088859948 8.739598018251366
Cu 8.902877676375136 9.679766616175316 9.30302430214025
Cu 8.528043765472933 8.27323618585799 7.18260795321952
Cu 8.530453163453558 10.753627745341337 7.0501744267233954
Cu 8.184079267884908 12.075133091263309 9.017624686867638
Cu 9.319619000115283 9.443645125506354 5.20134209439085
Cu 6.716928875914509 6.68175931915518 7.516702087151874
Cu 7.955013035920695 12.363646571605038 11.442962487505717
