29
Energy = -82.21790809 eV
Cu 11.445035544245442 13.108210758152268 10.90139925199086
Cu 10.227674379147722 14.007779484128971 7.3792032715365306
Cu 12.118595165551158 13.039145639893484 8.562288483308645
Cu 9.814125858457947 12.46639054873082 9.20136870614642
Cu 11.602379929100318 11.231166544491298 12.488823689778476
Cu 10.656756180668905 11.637773320580987 7.0423625701173656
Cu 12.7410349614364 9.303044341391741 11.410833014133182
Cu 9.522359290851744 11.650867037892686 11.442830952143728
Cu 12.952226661325343 10.961007858664734 7.635738059728515
Cu 11.81843834912762 10.901946262974143 9.864456378058415
Cu 8.317446709122692 12.469795140746278 7.34886881360501
Cu 13.170618511896397 8.951112129644013 8.960879551763375
Cu 9.275786520994446 10.460400173746647 13.604370643352874
Cu 10.365139441063675 9.178081916067589 12.005509500526278
Cu 9.541357474574815 9.868171072358907 9.721704015308937
Cu 11.200761042446153 7.992390000364575 10.095420112536479
Cu 7.8388991876046985 9.902485758161022 11.634317938864163
Cu 7.577164357902912 11.333549280067482 9.480384105830268
Cu 8.708405614436248 10.074813748893169 7.5135649740145345
Cu 11.105372874489486 9.371157250442122 7.739428059040206
Cu 10.459950414082169 6.74619762636459 12.129991556725399
Cu 5.676849235685021 10.146357162901541 10.616189772295998
Cu 8.492464733797886 8.061007345847537 13.127411308827751
Cu 8.673178856268786 7.480226099392099 10.747056771814165
Cu 10.182373880743643 5.851558284283305 9.724239019646982
Cu 11.660736732854877 7.022103325067537 8.006166581263027
Cu 7.267540558407538 8.874884630930426 9.310327471292693
Cu 9.295136988050979 7.7645013427405924 8.380546778035928
Cu 6.440435634735843 7.992528434982004 11.568860859682228
