25
Energy = -69.67205274 eV
Cu 10.57070763008129 8.874899401357888 10.218464845567174
Cu 12.111300231505524 8.396560692718545 8.492805034231925
Cu 9.214595179440627 9.350446888964177 12.178514428970882
Cu 9.075026134079792 13.181585874184002 6.1883824937454825
Cu 9.672697743476526 7.392168034097548 8.628092914650066
Cu 6.617206106991335 10.44380981149688 9.207362186188341
Cu 11.355232148882532 8.18145877683141 12.487788743698601
Cu 9.036183197681853 10.69337359340648 9.838509474251016
Cu 9.591935556500303 6.964909473636776 11.247849277168264
Cu 7.962760489422454 8.998616329394315 7.841980969162004
Cu 9.090085701889286 11.812582283898497 12.11452830104392
Cu 10.23184503090476 9.733332653433932 7.753975596933801
Cu 10.56145909292829 12.153864024620711 7.784017369419485
Cu 12.980035404971009 9.130128589073559 10.739501948203083
Cu 10.402023637035112 12.654469366632428 10.249711352039558
Cu 13.612325627099498 7.369011836396418 12.252259565209362
Cu 7.942890720180258 8.464468748882759 10.198316255245977
Cu 11.804826710319947 10.81271354184274 9.324616964501137
Cu 7.585366462397321 12.545541740876823 10.217004638720814
Cu 8.192134813644481 11.457523408380876 7.633588783735905
Cu 12.001495989620627 6.8465436384467235 10.467590023036205
Cu 11.28584124190756 10.766051629133546 11.76364311161818
Cu 13.118445356733204 9.666794274190082 13.083302882414994
Cu 8.831614109722985 13.654908165737659 8.521348881326308
Cu 7.1432125213160225 10.44548406109909 11.558090797650392
