24
Energy = -66.75196125 eV
Cu 11.116595612170531 11.002459297534378 8.558428574691927
Cu 10.749467630932347 10.763895326922661 13.52960722593858
Cu 12.348570545917704 9.269608931663159 9.779192259258991
Cu 12.161465698642374 9.13728977045228 12.352663874604511
Cu 13.10663751071445 11.662085921239902 9.800268699507406
Cu 12.897634922931466 11.523567658876164 12.677635879992653
Cu 10.996306527482 13.145355309281905 9.69595882890685
Cu 10.782832430605204 13.004775986288866 12.58782607262349
Cu 8.997430620168126 11.622353111734027 9.634372120513605
Cu 8.804477382541279 11.497142925233485 12.220176116410459
Cu 9.810822099361353 9.221513143235828 9.622316962565652
Cu 9.643040888650104 9.100473375159554 12.114739357627753
Cu 10.987873322378926 10.968707289001443 11.054169714146454
Cu 13.504068556263125 7.6256643139075875 11.070991889800055
Cu 14.198593469613074 10.023051340607816 11.256370826155848
Cu 14.688720416148461 12.516636785754804 11.404150201803924
Cu 13.204198124307604 14.065074890250296 10.165189780487129
Cu 11.175006604313237 14.975287377387822 11.260970272700852
Cu 9.013821414418855 13.666823339294888 11.040419856456953
Cu 7.00356412086158 12.205933477875485 10.82396772866609
Cu 7.684842091920357 9.813559983442659 10.755271683103633
Cu 8.54740237259347 7.486943026299779 10.712551402226653
Cu 11.033696439845476 7.45974887034663 10.87069648306026
Cu 13.025941241258945 13.946534300218547 12.529714777497095
