28
Energy = -79.6813182 eV
Cu 6.492786585402947 10.112304309498898 10.501081000088835
Cu 8.167898838721381 8.277988262438154 9.883296989187444
Cu 8.850724023154681 8.07249682773666 12.267377909792138
Cu 6.329233794423878 12.421614663415735 9.300452303835067
Cu 9.38660947425681 6.139199846194417 10.537177692941395
Cu 6.490001302628851 8.467320514149304 8.094228575425898
Cu 11.00706852003444 9.60630794334513 12.530441106096863
Cu 10.53813346027118 11.958819078277918 11.610609507614415
Cu 7.944137212946585 6.442191638986814 8.414442777400891
Cu 9.065547164827226 10.216839615148736 10.993987540154455
Cu 8.406125887474925 12.521755542054118 10.426634177576027
Cu 5.431709723024657 10.580835434972789 8.188470278900665
Cu 11.03770435695658 6.911877024568109 12.526194298871674
Cu 10.60659642628482 8.199805881098671 10.62302947958536
Cu 7.936943861516614 10.564558411813929 8.726325461986422
Cu 11.916582402021481 6.2526549644051235 10.220970215938406
Cu 7.197844076876984 10.486670660482435 6.477437131186934
Cu 10.160975855850644 9.502902337906395 8.71581140500131
Cu 12.862494044389969 8.283021681102404 11.38340544738326
Cu 10.318537411944504 7.023048560868929 8.40791058156662
Cu 8.65067840500639 8.492841117816925 7.116824253234974
Cu 11.86763841194906 10.363092869143786 10.333457465758848
Cu 10.23747192259118 11.895776445782488 9.070721211549852
Cu 8.18550316085804 12.653191650109012 7.68589685823774
Cu 12.425639692809828 8.363419446262464 8.869510459996826
Cu 9.661323863770265 10.848166835731416 6.768611843696976
Cu 11.127845820254397 8.706078432577833 6.686890632882854
Cu 12.040965943138573 10.665417853538822 7.825325858588041
