25
Energy = -69.95062521 eV
Cu 11.47001413744449 13.144600593142174 11.447386132529486
Cu 12.595803307496187 8.516253692927714 9.86795157014441
Cu 12.479034887112583 10.85782906689402 10.637082927784832
Cu 8.124781087652304 10.785763951478357 13.152326063710063
Cu 10.471674574079572 9.505802264829605 10.407860916120505
Cu 9.064841193929789 10.0449214192703 8.475066034050002
Cu 7.07332123598107 8.73367682797325 12.108655546115786
Cu 12.184999279478681 12.713089130478146 8.776076526281244
Cu 11.950347176273661 9.119656913414904 12.295670004096198
Cu 10.444672292124217 11.091887466723962 12.342693002838187
Cu 12.49750985699602 14.749149851910406 9.99492281246344
Cu 10.163156390093397 11.874576716045915 9.87107430437774
Cu 8.45286717599686 8.124390305852511 10.094841779235852
Cu 14.010628119477778 11.132812085084096 8.852109051533956
Cu 12.821255734179683 11.580081571946694 12.846661290838512
Cu 9.443624099834565 8.801941914673781 12.561476734080365
Cu 10.489021597858564 7.996984245859623 8.584593528862296
Cu 10.657283989810434 7.212408665008153 11.048452843485018
Cu 10.100002058166343 12.080189259771418 7.503904445036909
Cu 8.790963727050633 12.7245439078067 11.643357752038746
Cu 11.630603620266868 10.297943447997973 8.33770788809451
Cu 8.443774509380399 6.681583995668828 12.023811215627095
Cu 8.16992722527229 10.49771976161321 10.776740208755747
Cu 8.00821523398088 12.225159900894043 9.02586726380545
Cu 13.810705581693412 12.856061134364735 10.672738249724192
