25
Energy = -69.12778651 eV
Cu 9.903149665435524 7.4533699794883 12.356273941008173
Cu 12.324792699888476 9.307465338972788 8.470764368172484
Cu 10.515535685816841 9.868581399724635 12.276904597621284
Cu 11.878381872312165 11.66751589106769 8.157029920031855
Cu 9.712203021048428 11.417063078324881 7.071379857987944
Cu 9.10146386773727 7.731238872743191 8.990395266988982
Cu 11.205846367604394 8.357501333119586 10.48259201071355
Cu 7.3153374110113045 11.76676253062148 6.667276235525751
Cu 10.266601512299305 12.56260115463641 9.676396132211552
Cu 7.894952455655744 6.708400082178013 10.951486132299383
Cu 11.419955987459252 7.005591388459866 8.504010960671181
Cu 10.955445483278972 12.266487289327555 12.06946818384142
Cu 6.7906391359704665 8.422771291377934 9.506030707652457
Cu 11.963766759884445 10.76511839182678 10.472099658724396
Cu 8.849997495423024 11.431357454122672 11.284081767104325
Cu 10.254260020974206 6.060217439460733 10.440255680775076
Cu 8.018769381757165 11.725474724956939 8.948147520966792
Cu 6.669881073339182 10.527468446871373 10.648106137886487
Cu 10.32330662083885 8.83820622404466 7.1540950196201685
Cu 9.964283807281674 10.146154316468824 9.224132703419722
Cu 8.06178418290454 9.595690068223687 7.642831395073546
Cu 11.89146177117046 10.370982239482082 6.197740689242703
Cu 9.096751050363125 5.1894290219919625 12.38726065410732
Cu 5.961323869469313 10.49706594877068 8.329160784338749
Cu 8.542474778646602 9.025229903208501 11.071514589657
