21
Energy = -57.164165 eV
Cu 7.940413803840528 9.774664229958717 7.288657074489849
Cu 11.499792845656694 11.267300915411164 11.89422974115303
Cu 11.793574765215805 10.683430012597462 9.54002255130728
Cu 8.985379125843691 7.8283962991898735 11.359714442730386
Cu 9.62514127220866 9.512522074081716 9.70158400683177
Cu 7.724322357945432 11.008537869903499 9.347401677991963
Cu 7.702212981379672 11.913297454683308 11.575881970052901
Cu 10.201171825757244 8.794390280710116 7.360684206567783
Cu 9.745337839279212 7.011913060510416 9.050450074879624
Cu 12.206159924174587 12.889014360189307 10.251727889707688
Cu 6.019506273990252 8.297297734651078 7.4421482969570905
Cu 9.312180239574907 10.228238414358756 12.083913884220731
Cu 7.560260617746359 8.300974185480069 9.267587078435755
Cu 9.863763255049177 12.036411496524883 10.273212306579904
Cu 11.860086693176283 8.281642343994784 9.143646286431501
Cu 11.078252940001914 6.559290328683806 10.993056913212866
Cu 8.249412257594363 7.3560195925427845 7.146271763405638
Cu 11.2592468394365 8.9037840876161 11.43799936946053
Cu 12.042295814946652 10.331284311493524 7.252091176336964
Cu 9.852669954494148 11.226437175583934 7.9094903691099
Cu 7.173401922330666 9.5343454403611 11.259947143805276
