23
Energy = -63.84019585 eV
Cu 12.01110654737057 7.978859206434378 9.703007483368781
Cu 9.428607932333858 9.576549887027829 12.630140928280246
Cu 11.348605842846416 9.952427184432194 11.07711335455157
Cu 9.946926562215575 7.986527220568568 10.962473477834832
Cu 10.609162760300576 5.92397782368836 9.94228646910908
Cu 13.204469373808134 10.098767171725118 9.421547207587093
Cu 7.7116248151678475 9.238920599256259 10.859734050815204
Cu 8.1993141737839 6.701426527909556 9.940972930231164
Cu 12.789265559815004 11.449621702125972 7.403573843188302
Cu 7.983155942049574 7.393164130972813 12.331887302912847
Cu 9.910034738432104 7.614464845809329 8.442235867643559
Cu 11.303421711786058 11.615944491898464 9.289646034187674
Cu 10.34126627231616 11.36388809183774 6.992459155740174
Cu 9.415717620568989 9.981002894819689 9.007490104408054
Cu 9.295085854213792 11.340153564298642 10.981454069835397
Cu 6.078420268691708 7.462622196574547 10.762544913505128
Cu 11.56590059685657 9.3904821934228 7.7682855284108445
Cu 7.485866631012234 8.592757152190066 8.421001641759869
Cu 5.5378975976074845 9.445535115625248 9.579116857726927
Cu 9.049904943709329 12.44773151299483 8.781035826016781
Cu 7.825669992029686 10.875897551301229 7.288513585632738
Cu 7.186953266405649 11.196808059257611 9.597408682931832
Cu 9.32569871347036 9.10413358274672 6.682841625618901
