29
Energy = -82.62657951 eV
Cu 12.195103820424828 12.128033434132302 11.968588396615097
Cu 11.494527743414539 13.884538423931344 10.404373067212303
Cu 10.604278762556415 11.099725492373473 13.421255275914577
Cu 12.876546469564467 10.831939883322004 9.989336344855777
Cu 9.811411493603249 13.057538834845223 12.093758591099926
Cu 11.65626280568921 12.500194979475618 8.346149102710237
Cu 11.141629201108831 9.606694908442353 11.36699249721264
Cu 9.273990002621405 13.468044279867739 9.381682608827669
Cu 9.9619664666809 8.7369523563888 13.276289080877032
Cu 10.568309018310174 11.669660581892256 10.266278414968289
Cu 12.602445085887696 8.305817184259645 9.780348465729457
Cu 8.811109364908395 10.636590414923885 11.972945659517979
Cu 11.347127779978582 10.014494060048909 8.34786825052467
Cu 10.892846897185088 7.107760348683377 11.589861063414553
Cu 11.609340824742437 7.665144980551595 7.5305839531200025
Cu 6.855294605482216 10.14746661851939 10.397064051756571
Cu 10.248862225018256 8.03113214849431 9.470496598215629
Cu 9.479788614800626 11.514128065751132 7.6798237219668986
Cu 11.426829286587436 5.982043050659806 9.376457626585966
Cu 7.688222656881961 12.525900095387652 11.057656765817452
Cu 8.990643703527432 10.06094479101271 9.519783125398146
Cu 9.049608303776358 6.074697023780087 10.246455096874328
Cu 7.354417011104174 12.055536141004255 8.783887247689398
Cu 9.461759154175136 8.927113417405009 7.214423803074875
Cu 8.608922196766354 8.29098303296757 11.324537150555422
Cu 9.420849341970007 6.4783969512646555 7.784484034843959
Cu 7.721715550140871 7.8779117325400305 9.095724951330782
Cu 7.253719674810159 9.879628289516225 7.752479876501108
Cu 7.465357255124868 7.647957657860263 6.725518928787157
