30
Energy = -85.84188827 eV
Cu 13.856589209596903 8.794286975782171 9.566141647120803
Cu 13.999794167070808 11.166892282134159 8.745312054521062
Cu 13.183221784627397 12.336621879368542 12.617481466964286
Cu 13.415416099396113 13.067383212236077 10.279403083357112
Cu 12.105459265390502 8.42282890871385 11.500189943483262
Cu 13.03115092476827 10.643690861989315 10.86380071437364
Cu 11.860307441982103 7.403812317282179 9.287403677007271
Cu 11.642796695210698 10.45704126692661 12.898459949183177
Cu 11.897876813734161 9.858254035222584 8.681942581893258
Cu 10.928065326308628 12.833006538067588 13.495488166968535
Cu 12.014342998440915 14.377528026583821 12.006401704321593
Cu 11.482844149385643 14.533276012477515 9.705530834125494
Cu 9.848370864555761 8.768604235736332 12.813980740466643
Cu 10.068436681215127 7.228508479443216 10.942008676979045
Cu 11.145872060723226 12.251430614018705 11.011720597988221
Cu 9.818035204871746 6.1786223366775355 8.789014566406081
Cu 9.588008125752664 13.884296788728753 11.565885072162114
Cu 9.334706622202091 11.246118171790954 12.694777183931093
Cu 10.31625511564948 9.946296563325804 10.681551864361891
Cu 7.879303315801237 7.35362377039933 12.13043206496747
Cu 11.843530820289473 12.33337677907894 8.576516062136514
Cu 9.778847899131835 8.561698567472188 8.574605460428234
Cu 9.572608954103076 13.352692005375845 9.050383123769324
Cu 7.920944088439987 9.62866027768725 11.554546822666358
Cu 7.938682460671703 7.454797996866533 9.70679558783795
Cu 9.73132317566812 10.998350112250812 8.449353966788989
Cu 8.47856851891327 11.771014671921538 10.503243042530682
Cu 7.634180917093931 9.804169079615162 9.115346906238253
Cu 7.589454775457538 12.109957756636335 8.290824585307906
Cu 6.043832166870459 8.56813937814017 10.597624138787113
