33
Energy = -93.51132488 eV
Cu 10.024863961294685 7.426882947628235 8.826271174719556
Cu 7.930552319283367 7.657287343528167 13.016205628225256
Cu 10.718062460018201 10.062531297728539 11.004348105020247
Cu 13.52799207683257 10.285765370588857 13.666425340155513
Cu 13.414645284010643 12.579525294970109 12.831519028391181
Cu 11.859755067087546 13.704226124682693 9.242180711519266
Cu 9.88735336176998 14.166165852420335 10.666443165554762
Cu 9.201544202149929 12.11899243979386 11.84572525162256
Cu 9.018156705204122 8.76234545171795 6.847876990692645
Cu 8.17867210947514 11.004132441531768 7.924243342696164
Cu 8.694255881806354 9.914143095367002 12.661635104756215
Cu 6.642074929954894 9.45690358062063 6.945573285590644
Cu 13.249857637681528 10.570979516653086 11.249158032716501
Cu 9.004069981341038 8.045758485914485 10.91193107641078
Cu 12.599246531914929 8.522621348321321 12.191502643685762
Cu 13.800339992629434 12.835108605805342 10.439637920217706
Cu 6.179731342656109 10.478001340013959 9.222766012904259
Cu 12.290564941428645 8.717089298706112 9.642275260279105
Cu 11.531931435660137 12.401126416491868 11.35794163980329
Cu 13.753960933846699 12.822926245946293 8.062480392259777
Cu 11.194974435641784 10.683742666774322 13.209946747343796
Cu 14.54093345643565 12.072858193909973 14.835312963255292
Cu 11.174018988728015 6.960048651068841 10.972892765277724
Cu 11.510616737321188 8.41541165451802 7.222120298598714
Cu 6.7404618511252234 8.946777855634215 11.21150608110594
Cu 7.692539311246154 12.705027799669471 9.837221386920687
Cu 10.363068269068556 8.219185216890487 12.963963415044674
Cu 8.347616243318964 10.455327881038924 10.307413962896405
Cu 9.961982596708328 12.110640381408706 9.359511370831843
Cu 12.380965927427344 14.609457020744394 11.45668384438724
Cu 10.252528530322394 9.825583502308769 8.625161356338506
Cu 12.280945163973822 11.193995449490822 9.098183512838228
Cu 7.723740751237345 8.54179333112934 8.882995688987322
