33
Energy = -94.4893426 eV
Cu 15.962882327384259 11.014706356429096 11.775956550195
Cu 15.119310828537003 9.662907721391377 13.56230059216982
Cu 14.672275984186252 11.414824370137437 9.87180934025018
Cu 14.179194224416328 9.385609446457403 11.27001286369429
Cu 14.501141165974477 13.1538854357076 11.738831689634539
Cu 15.213963741271797 12.04223646156846 13.806710531972342
Cu 12.726478092733867 12.85408647608425 10.03819085981779
Cu 13.110622860836916 10.967596262342806 14.596545192704408
Cu 12.505746038710832 10.432031821686683 9.664240395698187
Cu 11.032320709886111 12.022619515100326 8.578136975116275
Cu 12.88238034742224 11.379094703306947 12.206693467893707
Cu 12.96800792978099 8.766811812823176 13.349505074153246
Cu 11.330944152009181 9.666944000990377 7.654706039023661
Cu 13.307490875620864 13.432762415254976 14.003735578041095
Cu 11.62145312705744 9.100505896458532 11.406778011192698
Cu 12.074877346843826 13.949980672223575 12.029517969455004
Cu 10.592539222110886 11.639485086990447 11.32097603222312
Cu 11.015736846643724 10.134355803499982 13.562285151886048
Cu 9.935298479609243 9.941177295506867 9.6764657673976
Cu 11.078065083105471 12.476260897211652 13.899770292925997
Cu 11.253075985739736 14.838778340881872 14.160801831204502
Cu 9.284964062039897 10.927082776239402 7.337741402482953
Cu 9.119375587036892 8.533070774192508 7.943596594678963
Cu 9.326839875969972 9.321611190661613 12.10150584029687
Cu 8.090946112263852 8.419462146977164 10.224777008063786
Cu 10.447383716179603 13.882074491149123 10.128203304273066
Cu 9.907432416812236 15.105438227759482 12.171939985492594
Cu 8.890288215076339 11.471421815347254 13.28177797767323
Cu 8.989898893946322 13.81414490182707 14.003363621522267
Cu 8.731015527136014 12.34807328343989 9.338823109563393
Cu 7.848563391820584 10.900573681882209 11.123528532670726
Cu 7.525950402996508 10.257143256599493 8.800298025335481
Cu 8.53177308679938 13.22795727366462 11.63212177395522
