34
Energy = -97.21544078 eV
Cu 11.837055743829382 15.019288210490348 12.052872797391027
Cu 12.208142485885555 10.067806242615923 7.750458054154435
Cu 8.474098463535675 10.455018407611812 12.542188680608175
Cu 12.73710707249219 10.795732753037868 9.97949668420377
Cu 8.762313493391273 12.577587217677767 9.204294724120318
Cu 11.072702595360767 8.773655601886508 9.580903582695674
Cu 8.154000883082782 14.694294752622376 10.461206393324355
Cu 10.391806606189823 13.840534953459812 10.501796682871285
Cu 14.625035838328941 10.185989589071266 8.558246592172646
Cu 13.562744680856584 12.324822596691433 8.33334697516626
Cu 9.747283382569677 10.520372438425975 8.419303036915947
Cu 13.090022000850352 11.369727263570779 12.378333334330394
Cu 10.258145881380228 8.470533261445667 7.349518997621825
Cu 14.252066663126577 9.551031467304995 13.373501222661975
Cu 6.29519428593131 8.740814985260357 9.699791534379722
Cu 11.85050489606579 6.9324652663053 10.89563910273057
Cu 9.440765835157741 6.635820634003717 10.690101946151328
Cu 7.8253946251334865 10.543125633183346 10.23075706351343
Cu 8.647807861607445 8.355287137116118 9.253247256211317
Cu 11.245836728715892 12.827188648704222 12.668430055842395
Cu 12.511780310299875 9.076290430346718 11.802174778043167
Cu 9.233106531240477 12.323055097711409 13.851731261795972
Cu 13.440171228657075 8.351879397034203 9.56184478825269
Cu 14.738213737534872 9.866423657584654 11.02775228466766
Cu 7.480245414210487 9.934511016667848 7.884473441657672
Cu 11.22743173357777 12.372148557656264 8.745382119292035
Cu 9.119192555790997 8.734059470447432 13.958922298654588
Cu 10.90806970799942 10.467629157986213 13.26741655727212
Cu 10.368416786847828 11.065277299338693 10.818840072508497
Cu 12.738374010577353 13.15665928545401 10.614648538450625
Cu 9.45253746030306 14.520639393667729 12.646663690518777
Cu 8.307250493174234 12.615932498346767 11.590475098541825
Cu 7.764826813006925 8.318497519466392 11.587291564515176
Cu 10.14687782211762 8.610716235356644 11.817235851992042
