37
Energy = -108.42059594 eV
Cu 11.750405620454712 10.309939715782368 7.211250368807425
Cu 9.86695402584493 11.418105976360165 5.927541286440655
Cu 11.330139074534115 12.757158058027969 7.654999328457309
Cu 11.657407025060612 7.796722320051325 7.412020851009788
Cu 9.41062356760762 9.038653072825296 6.834774859813126
Cu 13.01942046592522 9.280938490918542 9.13571338201951
Cu 13.482764718343766 11.764974199318209 8.622031641198658
Cu 7.572774945568804 10.865125273241285 6.939041049605793
Cu 10.466912410636429 9.07243346179277 8.9657259993492
Cu 11.427216320654997 11.237736903938298 9.571460021122983
Cu 9.483277596368596 11.115293738159528 8.221610857933449
Cu 7.885716783139918 9.098220963350913 8.960197297714744
Cu 9.445825141589848 6.979961038687913 8.588306544568766
Cu 11.787781065180488 7.177692517367489 9.876738815201232
Cu 13.351784042033247 11.001257337747127 11.116380342564343
Cu 8.833977574818466 13.203864261916037 7.3106465942906285
Cu 12.334442804067491 13.214757039298982 10.495011095203052
Cu 9.95179303866171 5.688824105548327 10.688383018186768
Cu 11.407077315930442 9.406279787020711 11.16471793435726
Cu 9.503007160554988 7.942192675513589 10.972675796164069
Cu 13.51503890645391 8.459698509122887 11.469833621909013
Cu 7.569377549225833 6.903264998061756 10.237812012572448
Cu 7.5557749806023615 12.16044526408502 9.155234338236223
Cu 6.764716051143219 10.847610044900705 11.00728691686479
Cu 12.497264993141274 12.592923255218208 12.960686963278253
Cu 10.634673226924557 11.668010043266502 11.909244604253155
Cu 9.091030462870762 10.445718021926018 10.583253050310608
Cu 9.899247596650344 13.243891599675225 9.638545878706479
Cu 8.353544879807696 12.80927907737419 11.414661424632433
Cu 10.513027647736495 14.000997994340569 11.990534562429096
Cu 11.436371785387585 7.284824783786679 12.325214180811086
Cu 7.558273855708631 8.790415520790773 12.020500819321825
Cu 12.348360189185284 10.086529215127689 13.22443598823317
Cu 8.317514029830221 11.002570748814941 12.976380054133497
Cu 10.458161763077817 11.350838540687388 14.240278554959543
Cu 9.946798892889404 9.178417512195074 13.117209385624657
Cu 7.929823980035982 9.162735421407675 14.41796204736302
