31
Energy = -89.16270546 eV
Cu 11.554804019376675 12.554925229622599 10.06325029508633
Cu 13.037453953023263 10.929793448012656 8.980822673109989
Cu 11.871495254506863 11.552746650177093 12.407945425435551
Cu 9.241021382048137 12.636253151346825 9.235322891438662
Cu 10.841376447790799 11.237180672060193 7.9936369093438815
Cu 13.167861640069402 9.871544865877942 11.170067067275474
Cu 9.674716388031463 12.367414458863163 11.68589276992125
Cu 8.45627090899346 10.709030319948038 7.7372618331974214
Cu 10.057139299624092 9.337254441359585 6.325979245780282
Cu 12.39155565748711 9.653073590330589 7.010206136483639
Cu 6.840925568382603 12.164593371487909 8.772519979940785
Cu 10.737842760074017 10.34037998077698 10.559507803047449
Cu 12.531518089663066 8.56286268821465 9.210378225306023
Cu 7.504288907182658 13.084053311021194 10.948921427072367
Cu 9.815689966351721 10.804496993763756 13.545554719175026
Cu 10.022215269783977 9.013245909326143 8.678480569809972
Cu 9.428716121398098 6.948849038028245 6.0919703322917576
Cu 11.481665159571792 7.426166147179371 7.246985067981278
Cu 8.210081982320649 10.68172381289152 10.27494631818761
Cu 11.344635138028435 9.080845786903826 12.61704177812637
Cu 5.794715382180781 11.365908410059214 10.812693332433012
Cu 7.570962119808396 11.199254581777643 12.603134722042642
Cu 12.748234117191195 7.443259443016548 11.368217106408109
Cu 10.432833596308992 7.709024643946069 10.726132996663074
Cu 7.951211334984299 8.289616464140732 7.485641431715408
Cu 11.823772275585785 6.251561366631716 9.386959076220787
Cu 6.431653855759175 9.677903274213161 8.96164866875052
Cu 9.533533268262588 6.622205136683079 8.561043430099732
Cu 8.918721645320316 9.11997070463538 12.092559709108565
Cu 8.095532194046267 8.093568386905712 9.962027824228002
Cu 6.551087389705193 9.194254508462832 11.467805292433667
