35
Energy = -101.56567287 eV
Cu 9.584761736725522 10.540801227240546 6.314221495427605
Cu 11.196283251310716 8.81452715621521 6.153411857214023
Cu 11.80085961360544 10.970738930199103 7.320218400456766
Cu 11.97269169676802 12.897980549366373 8.94643000591975
Cu 9.811138766289574 12.383863591446106 7.858297588484122
Cu 10.930579234936175 6.965830819414349 7.6527203494924025
Cu 9.948213835409444 14.189934613866736 9.427377099714244
Cu 12.81956910085433 8.71693468735395 7.909845077529438
Cu 8.240415271030551 10.550750853384384 8.354394935042706
Cu 12.57932671952897 10.524422675820778 9.602333125977635
Cu 10.480485309023377 9.267982745920376 8.616437002208038
Cu 8.809879659237051 8.340957628089912 7.119142718290527
Cu 8.130934275210281 12.583709034717875 9.833482761382959
Cu 13.146584879406216 6.459640035662904 8.610661516293213
Cu 10.20571285228138 11.293643923093157 10.070363306780196
Cu 12.357555573972139 12.280068617136648 11.273932144952498
Cu 11.780931783690189 14.549290078680336 10.960821834017187
Cu 11.021145021736567 9.136069965054677 11.197415513828087
Cu 9.824004995502781 13.237960198955262 11.648268236340439
Cu 11.605245061949498 13.41514221394803 13.230293792315493
Cu 6.940327217553034 8.505284896668941 8.81516014287077
Cu 11.268708163341527 6.966178270179226 10.0395172368793
Cu 13.274552231334669 8.295200722786038 10.297776361264294
Cu 8.979771490752626 7.10813374005924 9.226837682164701
Cu 8.69505121304068 9.294091837815792 10.469450714891387
Cu 13.029163389643816 10.09809311240519 12.002812470296004
Cu 10.739149317731693 11.132216132181682 12.692925627975024
Cu 6.624194171125613 10.692184296518024 10.242128626088816
Cu 8.333996044499305 11.344783760875949 11.968222457744313
Cu 5.261115780045267 8.707281388572865 10.644327720744162
Cu 9.498154989001812 7.174651081083933 11.679972776014788
Cu 7.163289512182676 7.30637820616352 10.960586646998216
Cu 9.211606014271444 9.264074941015975 12.989367325082751
Cu 6.81856270305942 9.420749640807704 12.345715457195752
Cu 7.66121463308833 7.393141604902286 13.307529107964752
