34
Energy = -96.87471963 eV
Cu 12.239970490168664 8.71448777252201 13.885278307385724
Cu 10.672695294590655 12.607279245930563 7.458907951032167
Cu 9.24268392749367 6.924463343055422 11.727524216875985
Cu 14.128430234656172 10.165236827866753 9.290076269919178
Cu 9.063552713894284 11.051631955432786 12.07257823338201
Cu 11.359572522355773 10.302629228264573 12.186133181176972
Cu 7.696754405829162 8.989623982076594 7.87770355342856
Cu 12.941625189869988 11.517645964974056 10.865106314730035
Cu 10.45397701639699 11.274820750181636 9.636417421202207
Cu 9.442943559983027 10.575726670406763 7.281945889321387
Cu 6.0147880453695315 7.474315487493152 8.896150176274432
Cu 10.513512182795855 6.8012138280155225 13.838963116272101
Cu 10.467261355866343 13.88160316978423 9.482068114717993
Cu 8.61160228668268 12.93256077395774 10.649646153516423
Cu 8.057375381783938 11.101680059006645 9.186911582131618
Cu 6.798452574188435 11.345206132754642 11.319438954135101
Cu 13.194035975168012 12.28751590947471 8.590827118330115
Cu 12.275007853365192 14.406553557381494 7.909638675195612
Cu 7.503326625106291 9.208024920335356 12.476972015204487
Cu 13.545202196815213 9.286988033384166 11.747899736366366
Cu 9.622522837598023 9.086465077393171 10.6921243356199
Cu 11.93233456622916 10.380781728875851 7.6563988485275765
Cu 12.69114029875326 13.889683345139982 10.36139131257472
Cu 11.994036869288573 9.294110345689868 9.850961492774918
Cu 9.720278867193437 8.940049548804904 13.321976573123058
Cu 10.187343106282212 8.621773472548389 8.373619614958647
Cu 7.9788329686231085 7.114233907931338 13.70108059947235
Cu 10.91429310810781 12.696938025978387 11.601798819225328
Cu 6.8176107728838975 9.263642233946381 10.152417851375473
Cu 12.731695963300522 12.615222906722773 6.265485667323378
Cu 11.509288331902521 7.832211792324033 11.798908070533608
Cu 6.82836166173407 7.132845349920579 11.37934018632175
Cu 8.370861489442394 7.324963804717881 9.479696559409405
Cu 10.960944763046626 11.12925824502233 5.508061478621494
