30
Energy = -84.58483918 eV
Cu 12.388535091118161 12.764961441626495 11.598340184646629
Cu 13.689871682949182 12.977390350352671 9.498537456320253
Cu 9.987280499011828 13.266145207242667 11.313631651135843
Cu 11.306496240135484 12.63536145849069 9.39423761647127
Cu 10.640428789898762 12.396047164337785 13.451982311704459
Cu 10.818798635391932 10.883862945287538 11.577546741504602
Cu 12.776338436601845 10.803546513942333 9.987486672125627
Cu 12.718371850035496 11.589288872955693 7.654962516334235
Cu 9.191138346782097 11.49639888022214 9.746153380654683
Cu 8.492885742322459 11.523536959969134 12.11987881293909
Cu 10.252428560720285 11.316762804932841 7.586912213010755
Cu 9.641257176239241 10.244878652035233 13.870412044805027
Cu 11.511512211984739 10.254886906264584 5.8713280314722756
Cu 11.275987531133108 8.825227578059529 12.827042884943456
Cu 11.582819345417915 8.79959266001953 10.490877827898892
Cu 8.017213870267009 10.434821526239745 7.886928972082592
Cu 11.778751439914956 9.388444274159113 8.183696723779782
Cu 7.200794475239219 10.29931038021164 10.264597260341434
Cu 9.035752054629276 10.585813144389647 5.594184324089919
Cu 9.36321279655721 7.780959208411798 13.803569795007634
Cu 9.77987275883772 8.804626037711357 6.961943133358667
Cu 8.834732297537997 9.108224640972757 11.78185607248687
Cu 6.16910561361383 9.033320631394341 8.36166379636314
Cu 10.233894225295074 7.046861756057804 11.501765508137863
Cu 10.302963267145378 7.50220577547719 8.959189974146062
Cu 7.372816168065689 8.86420589650072 6.168725510856861
Cu 7.184551968777931 7.91749881433921 10.264689189367449
Cu 8.030800022309807 7.480064340541382 8.039472478942999
Cu 7.9160642968701485 6.737073326448412 12.213233365994276
Cu 8.649647113995007 6.058879446146039 9.962633116623042
