34
Energy = -100.0386611 eV
Cu 7.3358379072838975 6.035184970431437 9.853795638253006
Cu 9.58560483504289 5.691739009325828 9.13819436754555
Cu 9.070495883826014 6.879250407983508 11.402242174699618
Cu 8.34747539403817 6.931033300797674 7.114487466235948
Cu 7.020782456063994 8.170775454655267 11.088820366260858
Cu 6.2482957767673915 7.791207693809964 8.647327470925946
Cu 6.473638217438492 10.031402756996368 9.539958156108112
Cu 8.702981635158874 9.048403144901423 13.122775969622474
Cu 8.664230677668046 7.996119863038184 9.125277939552994
Cu 11.294414936056672 6.977551147754124 10.285384171526616
Cu 10.920456376333382 7.943314773006711 12.499701019671067
Cu 9.723819821645062 9.019338579790299 6.723531574723181
Cu 6.986173235688106 10.443540176838544 11.891198925168512
Cu 9.30490884779493 9.401730566718252 10.960269497551163
Cu 10.916337565726172 7.10252905204822 7.7094458534714265
Cu 7.3235723933673444 9.354770886873725 7.1646756362735164
Cu 8.85599790296821 10.459833728776886 8.70330097169052
Cu 6.984928457521318 11.775596312379529 7.913872447404615
Cu 10.904511801516046 9.153218398656708 9.024024436656465
Cu 8.813020694317796 11.266874484843717 6.381088249634586
Cu 11.065223898997601 10.338128495002604 12.597747633182697
Cu 9.029702705261775 11.645105089021135 12.251378279580088
Cu 12.510667273248979 9.058949436503068 11.010414787292182
Cu 13.01494822416605 8.002954412431025 8.857725189431044
Cu 7.66533373160356 12.129265031393723 10.238542035297225
Cu 12.154574007087074 9.176446066616863 6.898224894620867
Cu 10.604929587694476 11.306032222542598 10.272585817339158
Cu 9.288769060667455 12.827600570917538 8.329785836145984
Cu 11.22394663818923 12.780513710643632 12.16655584478856
Cu 12.920070045046614 11.441483886099132 11.156032674552776
Cu 12.893380975880303 10.559318300351912 8.90878520255051
Cu 9.596058110133303 13.55796921981589 10.598308136472065
Cu 11.007702472372857 11.26549515633333 7.4796683853577095
Cu 11.795253179637074 12.949827330249176 9.200675416617766
