36
Energy = -104.73266533 eV
Cu 9.226906924120653 8.717301767954327 4.511410284353663
Cu 8.280114675831365 11.069396269768252 4.412097637556508
Cu 7.448069833403224 6.773246086284661 5.172183173479542
Cu 7.000583525029754 9.407758802631879 5.508200144819972
Cu 9.911839153775949 6.124811310277929 5.767190278912728
Cu 8.202778828436978 4.241570115839151 5.885383215636623
Cu 5.2238288713758445 7.87812272110022 5.071371178801981
Cu 11.177659444480149 8.180577590042448 6.4366333298940175
Cu 9.481830122640629 10.442873253932744 6.429597944527156
Cu 8.862869588993124 8.068088233313736 6.737106299906881
Cu 5.978375326754355 5.202016794583158 6.668760542268376
Cu 7.340407188285602 11.697723949650127 6.689506599688987
Cu 11.914213068398608 5.766215531877304 7.1965333160257385
Cu 6.2173421638473965 7.622718136535213 7.214378036068071
Cu 8.079795715369153 5.909525509168334 7.453337260162503
Cu 5.264811523637014 9.947776455889526 7.409584345837455
Cu 9.92958512636474 4.418890925962389 7.847121062482087
Cu 7.584604162685907 9.708974852178397 7.902209851119906
Cu 8.074701900036327 7.625822005685403 9.009912004790417
Cu 10.10796867519691 9.347224260494569 8.573898735867244
Cu 8.950799898581923 11.522982253073584 8.793739862949085
Cu 7.47845287966145 3.8229789323726044 8.300120133784198
Cu 6.452668013805438 11.271318022242363 9.31640751440255
Cu 4.307787414955856 10.274145888374843 9.798846718140448
Cu 10.314022512089885 6.906638568550605 8.429061052663759
Cu 8.771069851971355 5.4677071783833915 9.915096761974732
Cu 5.875757248944208 8.547987384499073 9.48344815812364
Cu 11.240121425957486 5.221218361143315 9.777552152224732
Cu 6.334895929128713 5.974735521476621 9.212793808410474
Cu 8.071170035940737 11.634850569007295 11.28564964245902
Cu 8.152837489217909 9.59870043918263 10.225031628209083
Cu 10.255491191820747 10.411101413218379 10.843527192531505
Cu 6.170017051380346 9.914878630881523 11.52559048608595
Cu 9.82348623938042 7.799966949039801 10.745003974306172
Cu 7.29309865895389 7.467956132111925 11.288179941769823
Cu 8.536780456293112 9.34894130002013 12.500277846512994
