36
Energy = -104.82636617 eV
Cu 7.82696774425151 8.161137502046605 5.0930585636223
Cu 5.456945826173269 9.203786267729246 5.423314458250754
Cu 5.283681134800859 11.672740442827681 5.782594770911637
Cu 8.183330492849723 5.629763093333422 5.102088156077782
Cu 7.393669971133858 10.598658078907514 6.137927955411176
Cu 5.931718646240388 6.694062391280536 5.739649035171218
Cu 10.12011908088174 7.2998475218657735 5.695060053529142
Cu 9.148830033728022 9.10554543305311 6.960305442235101
Cu 6.762586575875827 8.318868448163023 7.248650067172472
Cu 8.501335208590474 6.443495686737369 7.27718619212631
Cu 4.4205178442648645 7.897096029752471 7.390990231737355
Cu 6.738635466952487 12.244442786421434 7.8921149246311435
Cu 5.173413170297459 10.287070492615358 7.747692049557497
Cu 6.668481817459622 4.66012846596021 6.8415854517922154
Cu 10.951588742778485 5.52667501236573 7.18095262192754
Cu 11.334373000063144 10.060452403478772 7.715688145587035
Cu 9.004252612967727 4.100276216311572 7.165874565747423
Cu 10.753987926092632 7.689821275831655 8.192651026305155
Cu 9.234864024221404 11.530444204967925 7.755551292275561
Cu 7.476282558009233 10.11455267583015 8.632464150726172
Cu 9.759338001379597 5.615473461189864 9.32029116556546
Cu 8.076834531005355 7.725153371070465 9.233270262222437
Cu 9.679125444143377 9.586712858439387 9.369313124575367
Cu 10.977652646116416 11.543020423719534 9.696327092010574
Cu 5.75982929818909 8.603009868465563 9.579859751887222
Cu 11.886230605511372 6.510401447981526 10.040088740595948
Cu 7.580700120283767 4.669431768791861 9.103779856366115
Cu 11.884000838877947 9.062440883863543 10.050120236377424
Cu 6.013464855306873 6.368276731618259 8.531062769527841
Cu 8.491591150445126 11.651686237768962 10.224944382171829
Cu 6.014083454077081 11.079296987454029 10.145922664031971
Cu 7.951181832572595 6.219508910339594 11.009414804484779
Cu 9.93598751426209 7.738619529184689 10.98445640737951
Cu 7.760741817589346 9.31568787874918 11.048866192554277
Cu 10.31006286867584 5.441557792018362 11.626862163326031
Cu 10.098557437437238 10.175821713371647 11.604985525634435
