37
Energy = -108.25793745 eV
Cu 8.913130941617391 8.905888447239583 3.959690819443383
Cu 8.223773065876594 6.380955626871339 4.277520434786561
Cu 10.672960397402566 7.132609905130459 4.739152258076461
Cu 6.628325896972635 8.27276250091869 5.040434627095489
Cu 10.615396373744339 9.586474035177705 5.832687680073302
Cu 8.863551938850833 7.846402910475048 5.977666605220589
Cu 8.086540521335783 10.322750937017831 5.9885369751306445
Cu 9.482439226219288 5.469893077121638 6.373499823401376
Cu 6.9757977641267175 6.142870397649017 6.524596668272815
Cu 5.618031671643312 10.414456925519117 7.019058397849986
Cu 11.032688547692718 7.396288718059 7.2976661812158685
Cu 4.95515075476958 7.677561899658218 6.869354584917465
Cu 7.024231088695499 8.507351940729395 7.417415401803601
Cu 7.248907932820938 12.47877524450785 7.2408598252968766
Cu 9.645494737392973 11.636856590366811 7.542501425068998
Cu 9.448369328594376 9.221594073175424 7.87942207625803
Cu 8.743934411515701 6.8902330783218195 8.124953373960672
Cu 7.8705355531257 4.738791810767803 8.622331793427547
Cu 11.495098045039567 10.15602596836585 8.46426030965616
Cu 7.5630682625750385 10.602476998311706 8.499403166153211
Cu 10.41881373939576 5.510219130885046 9.111191850292354
Cu 6.246135887602051 6.717392526746707 8.953077670831759
Cu 5.576438648564016 9.224449747550146 9.34445658698444
Cu 10.850176941947366 12.313882586958446 9.534747890282711
Cu 5.744092122455056 11.80708357571993 9.25101396816912
Cu 10.529710496636202 7.995104004004445 9.76065605798083
Cu 7.954287297295065 8.617765699254681 9.703649925079363
Cu 8.364185029767885 12.493440763820022 9.64329257493601
Cu 8.45652840295321 6.444822259351078 10.386338571459236
Cu 9.637774745303165 10.366480373005082 10.217034333352634
Cu 8.98696985623164 4.275168175046238 10.92423758545006
Cu 6.560694950576639 5.134621712079586 10.865095874204298
Cu 7.187107345135872 10.479867302123877 10.96086645886585
Cu 10.482254135292845 6.300257669148557 11.590473567391438
Cu 6.469569918418829 7.685213930878109 11.323945751391967
Cu 9.01034865114733 8.438932655589886 11.828977724508375
Cu 8.154478107704698 6.151269538894467 12.646923918150199
