36
Energy = -103.60912932 eV
Cu 8.647684864017648 9.474362575865165 8.258647668323594
Cu 13.349870214824264 10.762893859333383 8.867660931287695
Cu 12.733115969314523 14.29866476668231 13.208100270370336
Cu 15.251577754941774 11.233390509915404 10.26209740839599
Cu 7.070528810783217 10.174428009701955 9.976090938797354
Cu 9.59193183289901 11.304940050041116 13.48575317035401
Cu 12.565381957656065 8.548846557961868 8.038333550590778
Cu 13.589950217480855 12.991910097314447 11.167783106782942
Cu 8.865839615081377 8.929455793618825 12.712856747940368
Cu 13.434486384800605 10.56390602808114 11.643840585042632
Cu 14.27175979675227 8.817132883104286 10.005807362835956
Cu 6.940764205575586 12.633199919773064 10.719592608354501
Cu 9.28818582939239 12.701350297919952 11.337894906070396
Cu 8.245689708915567 8.009729350281264 10.37177827516061
Cu 12.608063626115014 14.483438019941756 9.399781241609222
Cu 10.329459599485594 7.885213790499289 8.991075897877133
Cu 11.317397411344015 14.077537000765322 11.351066399145864
Cu 10.899111949632895 10.399953881347207 8.285399207852397
Cu 12.130556119708649 12.602126833674923 7.914595106011049
Cu 11.449011513324699 10.334207216079674 14.764418269621219
Cu 10.680404116113685 8.118505895734206 14.055835304344324
Cu 10.515700367019084 7.609492232089236 11.487830319756137
Cu 10.243105302558906 13.688508047654366 13.499435734752362
Cu 12.414793498241695 6.930738314523063 9.927676158731792
Cu 7.605562351477292 10.879701360531062 12.187565686918227
Cu 11.392774371175975 11.662270569148099 10.458032223811554
Cu 7.824005808354567 13.06793107353573 13.171995925866234
Cu 11.942379657725386 9.219315426873075 10.249170945495013
Cu 11.220433990520515 8.56429071094722 16.322479469337434
Cu 14.397234629758302 12.978966075590478 8.825488497157991
Cu 11.998306142061685 12.059742567505651 12.988557883471673
Cu 10.30358869432617 13.560624743784576 9.198775708743428
Cu 11.236932633012385 9.813520466855415 12.443226256005742
Cu 9.525715309979674 10.018333126877401 10.604479839739824
Cu 8.65523598405233 11.792571325253933 9.114981667165129
Cu 9.872279358372484 12.217620217989626 7.110714323075649
