39
Energy = -114.18059355 eV
Cu 9.525590876583335 10.356050377052178 4.857386822152719
Cu 5.074735999248529 7.650362801799383 5.5727152801823
Cu 9.906214042628108 7.95498404704297 5.734304256872881
Cu 7.464856357327883 8.976032145183284 5.714269508497811
Cu 7.351583562758662 6.410236552168 6.069465915903692
Cu 11.66701319132496 9.75314027283529 6.436611231402251
Cu 12.454825737116273 7.239413126163403 7.008629367212825
Cu 7.713430529264634 11.575486317012965 6.419526380229766
Cu 10.28076994649704 12.030933678109687 6.736817086265829
Cu 5.1585267955108 9.89032430678012 6.814610353626151
Cu 10.192463427470285 6.029254031117344 7.52157537465466
Cu 5.12936153870201 5.723279978688864 7.302164410408949
Cu 9.370100191385454 9.959356130981169 7.11096889376715
Cu 8.478227784656275 7.7217314729342705 7.706078523862535
Cu 6.097530870788453 7.7997115559440315 7.645467986633269
Cu 3.771762588432176 7.868540109993679 7.739682520883156
Cu 10.775019150701587 8.273699980885333 8.146318354938774
Cu 7.1664415862976405 9.904566954914753 8.098777272746233
Cu 11.120963282817614 10.737748957722689 8.836236658897016
Cu 7.27490268647055 5.810858853638999 8.705188369695728
Cu 12.953226102974023 8.831885339719939 9.023927201400214
Cu 9.94835803750447 10.884865459906775 11.131831017881156
Cu 5.954081997302642 11.775837806472206 8.537597224571115
Cu 5.130149885996324 6.809181635670079 9.71923323454223
Cu 9.372042224846243 6.752979194684851 9.857892478385514
Cu 10.977449617473436 8.641425165755114 10.517282464388604
Cu 12.520468134553242 10.32076998231408 11.044321034613345
Cu 11.841872828915765 6.5392445414047025 9.50120748151001
Cu 5.085817927747061 9.395191330106071 9.402130145903238
Cu 7.190025493599737 8.071166889819143 9.807388925278092
Cu 9.080163835432153 9.46037704895653 9.474949358925675
Cu 8.717003128891578 11.781134092765113 8.827656058917137
Cu 7.3393953981388 6.283607372074021 11.272380502332963
Cu 12.9568827928511 7.910799744202664 11.49484777358213
Cu 11.035736610260273 9.168692140705147 12.777045178308423
Cu 10.666968884708375 6.783887889175693 11.954239352167411
Cu 7.135876671761008 10.499242965753528 10.545631264279676
Cu 5.896859023217868 8.44878801716073 11.671912081682798
Cu 8.717218027680115 8.469128502221107 11.755649422331938
