30
Energy = -85.39534819 eV
Cu 12.51003720089336 9.535373384147567 6.550936697467433
Cu 8.48745181038493 9.636272684314045 7.028714191792235
Cu 10.521029681454019 11.088632866645748 6.570484669768905
Cu 12.877608573413413 8.84486326330538 8.903782145446023
Cu 9.427695136428246 11.236243285229031 8.70711068703052
Cu 12.68776805139933 13.052829971172255 9.749236000423087
Cu 8.873067631317236 9.084692311331136 9.90446202761564
Cu 8.727170438827654 7.378630274458828 8.258106037324552
Cu 10.893851165803117 13.12870755103979 8.124118465188724
Cu 12.23376700305772 11.16682900265455 8.290500098827765
Cu 6.555275414266167 8.453675667182615 7.798533682679849
Cu 6.789369070824052 7.614948972909307 10.041326872308046
Cu 10.609004444621384 9.075077043995519 7.975899610805888
Cu 7.012596532705463 10.672613470883011 8.717625829636033
Cu 8.867126923962111 6.632590106895315 10.695627564987987
Cu 5.141839010248533 9.366513095559467 9.624320124418237
Cu 5.464755495096403 8.412660210702763 11.901534908127287
Cu 10.420396464812226 12.554389447999386 10.53018731746947
Cu 13.547754833994516 10.73658127229202 10.346572137145849
Cu 11.119399545160405 10.087124623285302 10.333601504749305
Cu 10.951942494997413 7.472114233309525 9.758640188247547
Cu 7.99595606024279 12.241319981320903 10.352530487905318
Cu 6.810014727018726 10.272971257452152 11.128937726510069
Cu 7.8730246377886335 8.369525640451368 12.170845164920982
Cu 12.333021295340126 12.111033612774543 11.928639805685783
Cu 12.710349044305236 8.524899864646837 11.34444534565361
Cu 9.176165246815309 10.646210078381914 11.798213005926998
Cu 10.22813598364663 8.219276552445624 11.925388558825894
Cu 13.779468785674464 10.280624133447905 12.714689302439902
Cu 11.392111623297769 10.119930467563576 12.84214416846774
