31
Energy = -86.54591043 eV
Cu 12.459347505003855 13.50392989367709 7.626170309338705
Cu 10.540250129129925 12.441343902255811 6.530620265469413
Cu 10.172240852981814 14.160196168710225 8.197929300100235
Cu 13.78359470453771 12.112643209000062 9.139263603014387
Cu 11.909500005067459 11.107303389564615 8.00966130614932
Cu 11.532019880967152 13.007519067196617 9.812949357613498
Cu 8.612090045478626 12.260028023935655 8.030653664120345
Cu 9.73713198723483 10.270914524079142 7.228492344183988
Cu 9.112395803798222 13.262991578673725 10.18575972174412
Cu 12.570157500272725 11.17673115431461 11.010170991033144
Cu 13.368707869004401 9.658896987791474 9.34281856964761
Cu 11.207974045875298 8.829681332576191 8.470929894875244
Cu 10.441518893401453 12.007710379824042 11.78599353285976
Cu 7.498070617245898 10.109064243992995 8.187265343421128
Cu 7.163427126055957 11.770792778827287 9.938852942532876
Cu 8.89348639357251 8.112669010956568 8.0529561923457
Cu 5.777607026646246 9.707171412499367 9.803151145818095
Cu 13.4260083534516 9.01909588835281 11.757201891998537
Cu 8.059933895177142 12.35249116133132 12.14992884284557
Cu 6.413837994243536 7.967694856606108 8.131887903900115
Cu 7.293404335030472 10.073647214578505 11.70595351858402
Cu 12.466391559512141 7.5289288312541025 10.064994378953905
Cu 11.569231777942715 10.163349173975272 12.956237519637176
Cu 7.684557364828696 8.270562834856484 10.144079419343422
Cu 10.004362974376171 7.501827939448485 10.144254093743118
Cu 9.164485813965872 10.480472435210592 13.213975629270008
Cu 12.78312756579541 8.349630499706794 14.039382100714946
Cu 8.919271474302253 8.276092382761426 12.230771065662218
Cu 11.345276472906281 7.739548884374673 12.25296963407013
Cu 10.29466411580803 8.586326826889445 14.259318766833418
Cu 11.307305059544289 5.702123155937183 11.106785893334692
