31
Energy = -88.67983083 eV
Cu 11.87472921079814 8.500439830692013 6.430341356913491
Cu 9.34081273481644 8.809817860837905 6.284818513668752
Cu 11.357334967803219 10.830663130165366 5.855862719477656
Cu 10.396696321170168 7.351387874896232 7.988726868652032
Cu 13.133780347929521 10.392364589693571 7.450146798824278
Cu 9.525123001953945 12.023575173547112 6.814572246074599
Cu 12.67176216986515 8.403226189304872 8.777633547982118
Cu 10.618133495531666 9.914440955863014 7.976281920888007
Cu 8.073391422957764 10.393996479275415 7.691520939985125
Cu 8.123045267598995 8.067658404441875 8.444807354445505
Cu 11.698715198320285 12.298404052645106 7.9602043935381
Cu 10.680737695276997 8.535013180572967 10.04954985247398
Cu 9.716328637760016 11.771102706127099 9.241728219933323
Cu 12.201478922094498 10.729874009883225 9.758254151342094
Cu 12.696618520584504 8.897787613764788 11.32124858577347
Cu 6.243047156447453 9.71436207493692 9.092584388319729
Cu 8.560968700405171 9.771171708365959 10.147015520432674
Cu 12.772885362804585 11.308021068918638 12.100288485664057
Cu 11.177087029857496 12.677652776358961 10.90570398625561
Cu 7.323548431370848 11.894660749997302 9.512937656411616
Cu 8.905623512272154 7.169003450704618 10.715889006648307
Cu 10.512770276141108 10.294097099613868 11.696061000755739
Cu 6.705579585947225 8.186569107010378 10.8382890893765
Cu 8.797666056750005 12.117758056329118 11.498372911151048
Cu 6.753335038089118 10.569016628718352 11.563143816595584
Cu 12.16485094486446 9.598829638249857 13.611781158665378
Cu 10.615693189778336 7.932120006923847 12.465690666072165
Cu 10.59745137679768 11.907879671628718 13.380064820770585
Cu 8.309937525840732 8.789913710168799 12.522229872320201
Cu 8.168379689101256 11.066823898931547 13.507676001818622
Cu 9.894559474077202 9.573323820430089 14.177807117587815
