32
Energy = -91.76509291 eV
Cu 7.280133972767445 8.87667677928315 12.645831088288224
Cu 9.800565413655729 6.176862362858641 10.425823771633112
Cu 6.660400655967494 11.253605132562607 12.60533708051079
Cu 6.899950809479304 10.009464123223836 10.489415644638697
Cu 8.88276940056936 10.63516639186047 13.394893683758943
Cu 7.734767337379686 7.632500723934467 10.511719739992268
Cu 6.402919751857191 12.402680164996791 10.464678007858735
Cu 9.23824861113357 7.392380946417557 12.458085322112575
Cu 9.295768862543996 9.500729168162273 11.283490686566042
Cu 6.8124876224738395 11.254378508359894 8.323060129756751
Cu 9.764997935912687 8.26566798023066 9.147425559897144
Cu 7.5157406111413 8.913447761627229 8.4007254525219
Cu 8.626098966008 12.059915262466589 11.404545910757275
Cu 8.317545100253914 13.094059939342575 9.12057172488836
Cu 10.85801788338036 9.208609031192678 13.164368333570224
Cu 9.025149940785171 10.757721506316154 9.125031676894745
Cu 11.39976533660208 7.882580402590128 11.170839859177157
Cu 10.916276008484326 11.407739980816732 12.10869072635289
Cu 11.779941599678597 6.847510355321484 8.996814429323669
Cu 9.525142906385316 9.577792472290728 7.057718328312787
Cu 10.615638207452358 12.634260231692327 9.971101698974289
Cu 10.369976472546925 7.2490410669331675 7.036541805521026
Cu 11.314333760078913 10.146739093206769 9.948808092206775
Cu 10.306296261185398 13.70727705110452 7.84818514142122
Cu 11.071910626145566 11.389031099786713 7.732284650248841
Cu 12.882352465182995 9.820497567311314 11.880484069383863
Cu 11.860977538212932 9.00409555645195 7.723958732667746
Cu 13.336837403031637 8.630313135298959 9.703940865843265
Cu 12.89765261864849 11.965202357409263 10.638562601636725
Cu 12.593697608668936 13.136892894270071 8.514684087882445
Cu 13.364903637375368 10.809944778477966 8.46163317977952
Cu 14.772436485978414 10.467957706948834 10.39390274093132
