33
Energy = -93.74772782 eV
Cu 6.159408764311191 11.064571223060584 10.182076233975243
Cu 12.549082833315921 9.495529189704301 12.84896527429711
Cu 11.999867964672118 10.539746390975589 5.924819580515399
Cu 11.580437223881123 8.899159620269295 10.442804916388729
Cu 8.091725711674952 12.701605101646454 10.527135511502832
Cu 11.594875230947649 11.598697054794828 12.015249523686858
Cu 9.15439345009255 11.791524047042275 12.759754322562301
Cu 9.214980808862375 7.98303515627646 10.892907907417174
Cu 9.805932785297589 13.051183903882665 8.681330131756216
Cu 10.812712714973586 13.393881174519498 13.503003894443951
Cu 12.903463750561897 13.549478727516862 12.001257297402784
Cu 8.293863310238917 13.98006596008819 12.658272356969302
Cu 12.065481198212312 13.420371114444748 9.702339288024925
Cu 10.22124111464984 13.589038392925008 11.172275265419701
Cu 10.134191327782139 9.646341008868461 12.407168925498363
Cu 10.036536923037941 10.975824835979232 7.271173161913807
Cu 14.141660022485198 9.265357807210743 10.324564381769935
Cu 7.254340378654257 8.890233460067815 9.432261655934424
Cu 13.33713240216077 7.405660054851001 11.531410338848177
Cu 14.094860202978397 11.227201984999367 11.968078700899845
Cu 10.294737651883738 11.124936960855303 9.992904027536381
Cu 12.056582955195504 12.113197335843696 7.734412539687025
Cu 11.131219371366555 7.451718472185632 12.464746111709625
Cu 8.130415457770603 10.219597261775172 11.190312859125097
Cu 11.975614104500588 9.637152747490202 8.15552044114259
Cu 6.738946353323564 12.012633138786052 12.384965819758936
Cu 9.617042222350484 9.080822925818396 8.783610879370073
Cu 14.849316749163348 8.953933394567121 12.682026770844043
Cu 12.795659212758846 11.120096908745117 9.879718523730913
Cu 8.10384068030601 11.07846045926618 8.698602681714421
Cu 14.413558861396693 12.831724449873045 10.153778342406342
Cu 11.069770884816553 11.018648410313242 14.265227060402736
Cu 13.224004477202566 7.4859202442440465 13.91749475663214
