33
Energy = -93.52588325 eV
Cu 7.501989535499856 11.26688915827039 13.12993155698191
Cu 8.092098278425885 10.04811856156919 8.383300390245456
Cu 10.275190228948121 13.446974854690303 9.149091237797014
Cu 10.788896206673678 10.216617219713676 12.049481447496756
Cu 11.670726086989996 12.099609391000042 10.751622890000961
Cu 14.343986900214265 9.280940527514389 10.720877075889936
Cu 13.397205902333452 11.007040151988178 12.165931940786074
Cu 10.672842371371054 8.625655810635743 14.02813669668033
Cu 12.231866832537984 10.495835754269857 14.28516680699326
Cu 9.311548867943571 12.289361577256688 11.90813974715062
Cu 13.786215147310564 12.109003048994122 7.34915115033567
Cu 11.433571281514942 12.518253383101312 13.168183349269281
Cu 13.668815850253953 12.501319883894379 14.05301187843549
Cu 7.66145001183602 10.63595156143349 10.785408132965712
Cu 11.519042114270398 15.5000049247889 9.574447566632685
Cu 9.65031546141146 11.709046069446817 7.316969202353453
Cu 9.361421380805224 8.766674772645906 10.13621697894495
Cu 11.841094066720544 11.490511352747898 8.414229138701005
Cu 10.656445582171655 7.6935767751299915 11.804530677611007
Cu 12.891611256945561 13.60981171932492 9.168635848110512
Cu 12.75836210910341 8.70137177928671 12.492686697901034
Cu 10.512343275475521 9.461635985941871 7.974898020728926
Cu 13.90173307574619 11.47154325943086 9.777248407222148
Cu 13.34667614682797 13.479279213777312 11.738633683448201
Cu 11.812633033711185 10.735514685965608 6.23179143977573
Cu 8.663707660868749 9.169917692488372 12.50664415695788
Cu 11.975411455260787 9.509136313176262 10.071942958185396
Cu 12.051825448060043 6.714295075983067 13.56460451144519
Cu 8.001188343113286 12.460622306303552 9.050901694916561
Cu 9.683107411785825 10.96959824056506 14.12103469670877
Cu 10.879847100208991 14.233484437613825 11.476606677402502
Cu 10.710226180701511 9.876332833675557 16.036780839907465
Cu 9.812751862498937 11.070385964917575 9.720574482294799
