30
Energy = -85.56923036 eV
Cu 10.891644621690244 8.136385940977437 13.412691355637497
Cu 9.248073966174564 7.2171381681794875 11.854894805326014
Cu 11.542854860379226 7.803454408827622 11.065920349903159
Cu 10.782736594440571 5.855799217655366 7.447974871626265
Cu 9.972422908226791 6.5174294146636695 9.649360278903728
Cu 12.005975464811478 7.550891737833572 8.660329898445665
Cu 9.876095007626333 9.641837980936476 11.65550624644565
Cu 9.030327996462251 9.632834543881781 13.970263633360313
Cu 12.34718745481937 9.75929088597051 12.339976980898072
Cu 11.54966735630881 7.842067523597009 6.26534372847866
Cu 7.516339328727077 8.982050698938453 12.117258458961773
Cu 12.869482294355757 9.575150941846486 9.930794067041628
Cu 9.52695087050555 7.92413419674397 7.670808904631449
Cu 12.871065543956512 9.461639685764714 7.472102206156683
Cu 8.386552668029294 8.393049074865981 9.867695881933665
Cu 10.54031710135011 9.577047481069473 9.268600375826882
Cu 10.564468016444035 10.073011359676823 6.814309328603794
Cu 10.559186075924341 11.45627424291153 13.164119944867014
Cu 8.191151796848951 11.334551360857203 12.411020544807895
Cu 7.077751631592179 10.505176615212738 10.272651940802682
Cu 11.51525491158304 11.486495373860455 10.88689229135438
Cu 7.308837186959654 12.240389340658652 8.490639953243896
Cu 9.214902420002671 11.588520498842428 9.967843408360332
Cu 8.383755285214606 10.0898281381691 8.086854122669811
Cu 11.927991935281254 11.457084984054605 8.420067581710569
Cu 9.716591977654005 13.226166314917588 11.624613495564988
Cu 7.234221237221453 12.91336766029515 10.888199034085819
Cu 8.735407576279952 14.004631649649502 9.337389750098472
Cu 11.024735044348738 13.427464027817852 9.49616454906443
Cu 9.68695481368954 12.274898734407522 7.678190170884845
