34
Energy = -98.70754929 eV
Cu 7.667219021156437 10.001709592003523 10.43617284919818
Cu 9.491505688563773 8.617325867667828 11.224459491418944
Cu 7.830933527916273 12.320361489803098 11.696715339999232
Cu 10.744686015938273 13.691537990744415 11.242335675339527
Cu 14.119573667352567 7.672562964562522 12.458696727323117
Cu 9.804551370876052 12.257626792174113 13.245339335865324
Cu 12.24730171400883 8.771356542388427 8.089421023488885
Cu 7.96118102628875 12.005494854331163 9.159636012857447
Cu 9.750965611005334 9.576629448314801 8.679172630906212
Cu 15.310651262924958 9.39754605268688 11.04583617872295
Cu 9.876090538206132 11.316295880649811 10.831172314079964
Cu 8.539746362880038 13.832004988046986 7.679482013792354
Cu 10.357575588412967 12.971524135699156 8.927563887376115
Cu 9.880126191896181 8.11762512657959 13.613437890739732
Cu 8.197677915053056 7.868958755285056 9.290888687070654
Cu 12.371941555729057 8.48704074222054 14.040773446143989
Cu 8.582344381730822 14.131944089626861 10.171733659625604
Cu 7.4905137321312525 9.88581884892541 7.978132431323144
Cu 10.922381150388489 10.047962020922728 12.805249008710645
Cu 8.495722866214336 10.213855579075323 12.774966186139766
Cu 11.646572386257239 11.07581018836306 8.154556403569327
Cu 14.427578906200011 11.816340508191603 11.371227409411564
Cu 9.32349771472187 11.49788209000094 7.234179079452939
Cu 13.167458244951302 13.995953032754452 11.758129949575023
Cu 13.278654334498736 9.867534536984696 12.18666309022948
Cu 13.78296412952921 10.368577389548841 9.37840464490843
Cu 8.883822459846819 14.37701567240653 12.640716485750639
Cu 11.286201420353379 14.281110155135908 13.454417241601035
Cu 11.682774678860671 7.711429296196836 11.887306792046592
Cu 12.207375633414209 12.052549810208617 12.639224821764703
Cu 12.385221426609835 12.24960507441527 10.143095306414079
Cu 11.606260570211802 9.729966497914432 10.279818575082263
Cu 10.812849704932807 7.464574372186539 9.550154276332236
Cu 13.397960701394855 8.029314386470825 10.137366354726158
