32
Energy = -91.72865151 eV
Cu 9.81004988241098 13.435802432688682 8.792058470976825
Cu 8.105625908713234 13.56034157807608 10.63729582129368
Cu 7.65685106224241 12.316516915457418 8.539041730727062
Cu 9.678759878100884 11.819439145208461 6.986444124387142
Cu 7.370950680719489 11.117105397602316 6.507283844432052
Cu 11.004626002385557 12.883048319975288 10.80388470523965
Cu 11.155870805717628 11.343630025854512 8.883750023097567
Cu 9.31195461276021 7.911657289038095 6.77864652424339
Cu 9.097397595033422 11.392326941429218 10.354235091566364
Cu 6.700752199019527 11.464658661037754 10.677883660993938
Cu 11.066330962466962 9.615802310589284 7.198917933145523
Cu 11.904652999933434 12.388399569989012 12.941300357820422
Cu 6.487538227508771 10.08433105145754 8.657243053730417
Cu 7.006566663374213 8.778738330951228 6.611446765257875
Cu 12.467655775781928 10.849883249072484 10.946707166095724
Cu 9.339275025143124 12.734711126451334 12.574863089689332
Cu 8.84845743736014 9.909456634910645 8.196976103829634
Cu 7.677710908678335 7.746267794472914 8.656882302975573
Cu 7.880003040983397 9.189459934332428 10.56234872946272
Cu 8.051729114940375 10.566020956416905 12.550646294139518
Cu 10.464797137486181 10.612545275667266 12.324419556821454
Cu 12.658243285576022 9.283869881127897 9.028608506254544
Cu 9.231289019998096 5.919680259212854 8.170480933549383
Cu 14.04114276113303 8.970214257342603 11.010091124765507
Cu 11.158158697883415 7.430062290075385 8.310886041103041
Cu 10.404008749299972 9.263667953306973 10.100405159194649
Cu 9.187774681239452 6.993164713566429 10.369271500910928
Cu 9.422647275508051 8.423362298607245 12.348314363542263
Cu 11.924657033579939 8.677111543960189 12.108107224718513
Cu 10.98249599981117 5.454809339490952 9.78144767033301
Cu 12.585822958428869 7.172141233499356 10.293296078634677
Cu 10.907429148586694 6.489075742307982 11.98504040330045
