35
Energy = -98.86847997 eV
Cu 15.871001077260377 8.551675641292334 11.18744681503429
Cu 14.526293146742821 10.337729252738264 10.225173447416894
Cu 14.715902804825866 8.307353235261534 8.979148777685653
Cu 14.17572466444828 12.144920186181132 11.740905018923959
Cu 14.323842812299214 9.819202643438125 12.610230647165567
Cu 13.456686864014744 8.19294765319222 11.034843354702003
Cu 12.877545447242685 12.074712212905185 9.66459388619752
Cu 13.090966103986858 10.065897721764363 8.29549237599265
Cu 12.485920606287902 11.303213218440202 13.201025924897062
Cu 12.295388461940973 7.879981264116622 8.905725817777494
Cu 12.009181834202726 13.198824448640233 11.65103244005468
Cu 11.968432876831388 8.983581613409234 12.808646939299829
Cu 11.299323474227492 11.65115553297705 7.83267914581182
Cu 11.098391882954056 7.587225995066948 11.00035265127744
Cu 10.804779482194352 13.342659243175337 9.530232432055845
Cu 10.713987866904525 12.831678952478281 13.681716964988146
Cu 10.995796282521821 9.250539710225691 7.375617533459897
Cu 9.503018283050977 10.874135414372265 6.37208015694797
Cu 10.301394967771676 10.436240636253345 13.867250317697879
Cu 9.618779547536922 13.640279184700823 11.699330415022814
Cu 8.679088353968911 8.686052802262848 7.049988811946696
Cu 8.559897863860225 14.257670361579256 9.641382259550666
Cu 9.081909757856131 12.692520714756979 7.894740284305799
Cu 9.603353219156661 8.330838086311028 12.804190635357164
Cu 8.750634988943844 7.131339671359684 10.872677040032997
Cu 9.909019124578153 7.5650315588968375 8.806902434166371
Cu 8.501865275265633 12.058414453523406 13.238249823789502
Cu 7.623166435813744 10.673744056252824 7.892252970711385
Cu 7.375266673461246 12.798863620059134 11.18349718840134
Cu 7.705499575505669 8.622345193475082 9.274873550738588
Cu 6.82019989211047 12.724158986036564 8.835726868495385
Cu 7.98837815990943 9.774610020694588 13.908927809229798
Cu 7.470654789968631 8.98034520323543 11.68756999476921
Cu 6.622216008874457 10.682534288417232 10.117727064928026
Cu 6.440015316999611 11.023640551640543 12.509870759878028
