30
Energy = -84.50574812 eV
Cu 11.539569938757287 11.31970444642395 11.840488291848427
Cu 11.366917300896755 13.67434312161525 11.3229861607734
Cu 12.92666682352551 12.154671240226115 10.006390012953958
Cu 12.596253948941099 9.713003720919891 10.373036262095345
Cu 10.05475443043039 10.493866654795763 13.613324228097097
Cu 10.811344756179935 8.972888323815596 11.847403315010883
Cu 14.28503803903231 10.446212888485043 8.825804198416174
Cu 9.50844030561635 12.46000805968933 12.343953227593726
Cu 11.607134889461685 7.487786120662978 10.091436314218608
Cu 11.939560222069765 10.73625954538949 8.24742749915218
Cu 10.66654142838307 12.559602634714333 9.302563571452147
Cu 8.982573866019644 13.916826721175898 10.493091631198137
Cu 12.991827039237718 8.449350612164977 8.297322935080864
Cu 9.061460622951582 8.234811103870404 13.253027652919137
Cu 10.284193514854893 6.5077273779854385 11.86728804687089
Cu 7.207636214782904 12.437240293748857 11.858624902670284
Cu 8.4061793304685 10.19211194905894 11.85917420287217
Cu 11.575998758584449 6.440233860702248 7.914122189028136
Cu 8.703802779042562 7.934410975066934 10.848588501043112
Cu 9.653711394125889 6.161465226451623 9.491469614971338
Cu 8.32254093193379 11.657192411366877 9.93671499237969
Cu 10.547421001613015 8.647045119072631 8.050808719991679
Cu 8.579755657839614 13.128790554104171 8.123757153438923
Cu 9.567379098751035 10.896025539866072 7.8988267656375335
Cu 7.291023150689462 9.484376236897342 9.724602901064884
Cu 9.268668107128363 6.769530550656436 7.180968502324081
Cu 7.481709268363479 7.18440620707072 8.846466442729392
Cu 7.116058378242587 11.057035407252881 7.851736382108435
Cu 8.224959007265209 8.945630614718228 7.35824970805208
Cu 5.884818263141304 8.826696069279535 7.887776743083079
