31
Energy = -88.81518507 eV
Cu 13.428157577788957 7.206221968688814 11.257770876691476
Cu 11.144833459508332 7.840322453224713 11.862297379455224
Cu 12.935788026342589 8.817675564853838 13.200354889821329
Cu 8.847527688378856 8.482171622889283 12.37828082370606
Cu 11.729028115510932 7.76450215921962 9.447631440444939
Cu 10.767122235291914 9.961282621578857 13.01398740883537
Cu 8.587562176705749 10.83164491511047 12.009945521585314
Cu 6.6114674030896055 9.718498575850962 12.718373561932392
Cu 9.364712866230796 7.752134926363894 10.065569417752567
Cu 14.092809081564083 8.251867820432539 9.122465296168457
Cu 12.989679289782073 9.508518695148984 10.901247861449253
Cu 14.517546801081094 10.658307116168814 9.385393377023416
Cu 7.071619311109621 8.567659457938941 10.67086325143569
Cu 12.7682082206744 11.281528530441845 12.583927025745698
Cu 10.459936253039501 9.906381901363343 10.50985682525854
Cu 7.6909147632825965 7.85196390955894 8.360051588835471
Cu 12.521084234749548 11.814360692451581 10.151460839875666
Cu 6.587978989030486 11.092877751777372 10.652545559867864
Cu 10.623968632923319 12.107212821390696 11.757718231420895
Cu 8.333034735854715 10.067886539832934 9.158004066308536
Cu 12.364448431783195 9.93190966714383 8.503917736108043
Cu 5.916448760611429 9.626029862950155 8.788014904095581
Cu 12.501380896012318 13.607959209831302 11.712718957806727
Cu 10.108803087980752 9.0203086421207 7.963067677846555
Cu 8.667560834268816 12.381837861168204 10.173053927190894
Cu 10.546276924149625 11.54821862873521 8.69725700381614
Cu 7.338542769548048 9.637203483240981 6.835456738185323
Cu 7.046908744222984 11.872261095610419 8.270756008492567
Cu 10.806281752347273 13.661952567027251 9.864197605164799
Cu 9.033050264690166 11.234589062763837 6.940102445935712
Cu 9.052743588114645 13.423716425112664 8.068380071708289
