35
Energy = -99.69326678 eV
Cu 12.125713377151866 14.56590079282543 13.087236742606118
Cu 9.25502245646815 11.825138321108774 12.716257924747207
Cu 13.719620832550337 14.02743410554953 14.880861346401703
Cu 7.841004434057782 13.690689020530034 12.035329967256208
Cu 11.667366923417655 12.20574203468411 12.988304056943603
Cu 10.962151318922853 11.855430337955317 17.137859323378642
Cu 12.57132614251513 12.107718233217028 8.923617665092532
Cu 15.516040889611741 10.96113395850886 12.61391479219454
Cu 9.481981689124696 8.54639734232414 7.418622912731442
Cu 12.550184783954824 13.472742813235286 10.93835770969202
Cu 11.58512887973107 12.774017916839682 6.888357894227758
Cu 10.825299859479133 9.985235360636961 13.258269523571107
Cu 12.198201687231414 10.889222457412586 15.232730741256292
Cu 8.372937239470856 8.116098432959804 9.5956651265627
Cu 8.869195962856589 10.3348899195497 8.894003753478131
Cu 14.518090621817494 9.167157715952742 11.199696456570507
Cu 13.244419282809405 12.539060017816785 16.735688628718755
Cu 9.869272867051894 11.428492396784057 14.992617023313711
Cu 11.487812881987123 14.326189946623234 8.900896183056586
Cu 13.330212393192719 10.189569367688234 13.206899238444674
Cu 11.001879436642497 11.237736600195287 10.732554080529866
Cu 10.710213067008512 8.763994157976141 9.471291932567537
Cu 12.072934159617494 9.081524881911777 11.395746173869046
Cu 10.144926539897327 13.648047242380684 11.250117019934377
Cu 13.282718077827168 10.922443287703215 6.9909349714502085
Cu 11.045311422490363 10.444830326797454 7.6755748535250214
Cu 11.557454508904263 15.63857045377191 10.963170991608052
Cu 9.997705145695877 12.473131175138791 8.741883570005182
Cu 12.995587211459476 9.716295583663051 9.187380134361982
Cu 8.375749924825778 11.979212620192895 10.494831299745105
Cu 11.447665919563022 13.289694176942671 15.20866887101761
Cu 13.635503977971943 11.32619689370898 10.984331888717483
Cu 9.295505312559998 9.628936873156915 11.319012033941219
Cu 14.107840498068775 12.968048338377496 12.761607362690484
Cu 14.516668136519247 11.699946476768337 14.7861439497671
