39
Energy = -114.14270193 eV
Cu 8.48857307256841 7.894927100685117 5.98069809777045
Cu 9.59952217634396 9.966824363641349 6.2730129882926695
Cu 10.398631009643589 12.163812542272256 6.554460160470451
Cu 8.059192224463697 11.604608198158118 7.364357652607824
Cu 11.019245611524754 7.960089211100697 6.252667940290843
Cu 9.464602276418468 5.807559923708869 6.405368496431032
Cu 7.836512194498013 9.265244290949072 7.915976713914658
Cu 11.928699717534622 10.243937066281523 7.043120007728415
Cu 7.540638859753448 6.709458046402781 7.912608654137403
Cu 9.555950595053796 13.066963700524541 8.594227372420319
Cu 10.14441994663388 10.396752225479277 8.734961955214661
Cu 11.452519911388729 6.0133017717302515 7.777552721939509
Cu 11.901744261478315 12.430749783525982 8.433980006151037
Cu 9.707949330642615 7.740291825504826 8.329341049299309
Cu 12.119164866926328 8.22743662437936 8.496183005877938
Cu 9.359488690490723 5.11094989471804 8.71768537938401
Cu 6.093774752707781 10.567625815874377 8.875763959974575
Cu 8.071518766946507 11.487998413271537 9.818631358379257
Cu 10.9934997626984 13.442358892938392 10.538038510203691
Cu 10.839311156650966 6.5021168443140755 10.129949520884226
Cu 12.62706768591286 10.385915095846611 9.447100297780326
Cu 8.564776674640061 13.679031271605801 10.6862363780661
Cu 8.294279494414216 6.619164652514278 10.259135245207068
Cu 8.739588513735956 9.078642102148033 10.374107683308115
Cu 6.467766257563233 8.22343096262806 9.668845057650556
Cu 13.227265200363265 12.450186657741192 10.518079359910422
Cu 11.226615663665337 8.82375191673795 10.689786247504914
Cu 8.059210306774837 11.891425813864194 12.290347960618154
Cu 10.237957240187564 11.091988980163068 11.217578459305672
Cu 9.654935560562118 7.484891104209284 12.098492503692075
Cu 9.80267408764094 13.581667720965365 12.754302152269574
Cu 6.626239226235874 10.126453783963912 11.29934895827853
Cu 7.156684384584314 7.832514196603759 12.027894248535722
Cu 12.778182253809257 10.403808073074122 11.86473281662493
Cu 8.579213860856887 9.605746804563694 12.847117539385602
Cu 11.948407406140635 12.533691098898222 12.633044656800019
Cu 10.993121973281887 9.292259872821631 13.084839731528016
Cu 10.03310024275826 11.402947668313264 13.77392992805928
Cu 12.385811911832148 10.867332817203744 14.29435235342879
