39
Energy = -115.13487855 eV
Cu 12.93507484068003 8.868242616705931 9.572735103936166
Cu 12.877330619669825 11.314377645006596 8.971966091367365
Cu 12.24568078607059 7.053053560601871 11.18163697458202
Cu 11.993761242550935 10.402879232931818 11.098228967250034
Cu 12.033809029949758 8.994025978253983 7.33812475416447
Cu 11.667537636056572 6.988406401560898 8.706680627908863
Cu 11.486931232857009 8.858658516157146 12.838088975070644
Cu 11.90484511105289 11.36507054862877 6.673095772054708
Cu 11.054812170465327 12.46839719471498 10.518281916053501
Cu 11.333193518557234 13.155074750676597 8.256393990621278
Cu 10.629458866933742 10.50855262831449 8.754793027170585
Cu 10.064828672945392 6.097199151940454 10.404749501403714
Cu 10.506823228075703 8.528182151678728 10.49922812811995
Cu 10.266410083699016 6.774730271555962 12.73278443738945
Cu 10.472021756023198 7.274288681312841 6.292966292834585
Cu 9.291320590831164 10.658617470162131 10.822154514632802
Cu 9.991069920853798 9.809682338342778 6.334759504337574
Cu 9.575946749460318 12.115013667877422 6.999243988553427
Cu 9.933286088949448 5.457720235469223 8.038211106675533
Cu 10.435112099491983 11.1393605938433 12.874895906610632
Cu 8.083750026794798 8.678049903628972 10.067540119602361
Cu 8.913889885988125 12.540027115678862 9.254372455932923
Cu 9.452009864825689 8.0682549786149 8.211174609717277
Cu 7.730172160910759 11.048966713884903 5.930984811481501
Cu 7.933591493977039 8.632673157667455 6.137421144190782
Cu 9.065407760822996 8.97532364483311 12.673603498687742
Cu 7.9176965417545375 6.2591462956077795 9.291438726009197
Cu 8.214366136976569 10.2542547102087 8.19253490155684
Cu 8.074993901203062 6.3295471886855506 6.8106598624396035
Cu 8.052767554510405 6.9539614848350135 11.705768050021337
Cu 8.954457115533575 12.904105371398131 11.711813377326047
Cu 7.938160958603472 11.129932236450289 13.02750671113138
Cu 7.040653971538575 11.63494819317622 10.698632708827265
Cu 6.677807432141018 7.951003418182889 8.07813760140504
Cu 6.654383495580113 12.026495948719953 8.239312613869465
Cu 6.703802432100598 9.391780364617802 11.872143167264534
Cu 5.872760455323493 9.95356821489239 7.008172010118984
Cu 5.978500694503828 7.515439441186914 10.390260713133936
Cu 5.915731404045328 9.87206023354179 9.465473818992567
