31
Energy = -87.73255137 eV
Cu 10.528609908203569 12.53003486685014 8.421742455221105
Cu 12.988180695183733 12.264240970041437 8.031848709135161
Cu 12.768906789262505 8.835203890086765 10.363282609702713
Cu 8.839326582972584 11.14997314381935 11.878385742480244
Cu 11.812104833313125 10.210381886310243 8.525562245129835
Cu 5.814485272798673 11.652345645804532 10.255463991052988
Cu 9.338645732377941 10.45632643707498 9.35354012072339
Cu 10.874054228077743 10.008131706396266 11.259267312075783
Cu 7.034818616356797 12.698183926590932 12.020500885000443
Cu 12.24705359692984 6.449448629348177 10.093104379556555
Cu 10.267384626901896 9.210830891072836 7.006525321091257
Cu 10.859066292448034 7.590344045805182 11.64930326616334
Cu 10.537783193686819 8.26149297988904 9.299974079286526
Cu 8.677622017757653 6.375923645362372 11.734242572914933
Cu 7.819900203735261 7.212306533010406 9.511305531042082
Cu 6.594457486265824 7.718041485097471 11.595748472982965
Cu 6.562288885955433 9.307197597334902 9.74190856845993
Cu 10.520312667030636 12.41856133992517 10.824549274846841
Cu 12.708222069717696 11.467320457609505 10.420134464449818
Cu 8.009713122850876 8.979327238118326 7.811120049089766
Cu 8.699141722326303 8.806290786182478 11.279890623144759
Cu 9.37439633564302 6.984197845071178 7.596640785870745
Cu 9.89459144124446 5.898232954856883 9.690319380405413
Cu 7.005780464373086 11.152709904786564 8.255003685252904
Cu 9.015845267856484 11.254607029913519 7.010490260231604
Cu 11.361284365297552 11.412427912659663 6.390872163183846
Cu 14.196208341460133 10.30141923335006 8.929615667409045
Cu 6.6507367795213455 10.164385099607099 11.989294965288149
Cu 10.854825099807526 5.162563749507782 11.733570935034102
Cu 8.203150707830297 12.539543567929453 9.87035566726071
Cu 12.19667945083414 13.783581398607112 9.71201261453306
