31
Energy = -85.87978728 eV
Cu 9.966979825169602 7.192566825284072 14.885328938374476
Cu 9.322185494679648 9.476679103918405 14.837280725486075
Cu 11.639997999178027 8.641895701429078 13.955694845706574
Cu 10.415692993791351 10.497229168792202 12.911336371721928
Cu 13.616279840099368 8.171719120251216 12.4220045130638
Cu 11.526401459411575 12.61566863264963 12.549649008805476
Cu 7.7736161108843405 11.233616059742142 14.934385513431208
Cu 9.359950692217081 8.213432621114999 12.778044555070277
Cu 12.844844686376867 10.440354240530793 12.68240987589339
Cu 11.438556473763185 8.53446678783039 11.520163108621876
Cu 13.082101558703002 7.296836275255632 10.177891472630641
Cu 13.595980366754073 12.053996448791585 11.054350491611693
Cu 9.17925098422052 12.577029538496381 13.526258305552066
Cu 8.018731984169554 10.297153204418544 12.698712346214599
Cu 13.48666320731648 9.682668051541157 10.2629993827723
Cu 9.343577193598948 9.482596811888124 10.640131010793466
Cu 9.83293949139 14.173697411909576 11.660248761296849
Cu 11.406152356678936 10.982910753294338 10.689353927935782
Cu 9.162436277539348 11.917216376679937 11.260558516320764
Cu 11.341930696376776 8.809432274787872 9.133509990953222
Cu 12.541561342210302 11.722498250694978 8.704430205434003
Cu 13.481812138520931 8.444462761239487 8.100976107767165
Cu 11.91284039213414 13.606274808130205 10.302492075691104
Cu 11.93121916705345 10.005803825474109 7.133725499323429
Cu 10.139166824944935 10.836029025430783 8.588804461677125
Cu 9.76824722053917 13.143794540496073 9.313841322996788
Cu 14.131769859458487 13.48398952383167 9.185632716185152
Cu 7.926169776404873 11.102446648836416 9.449667776968885
Cu 10.439961734634531 15.49004424287798 9.710198875315081
Cu 11.589513093231615 17.417639650431795 8.95693135750611
Cu 12.728940686125389 15.401323241526622 8.918459866455057
