34
Energy = -97.5847992 eV
Cu 9.23678606110384 11.384500173735299 8.761514817704926
Cu 13.197353276298452 9.649648159381575 14.336995116354595
Cu 14.692975600591714 13.533930288773927 14.138687688509151
Cu 9.849222798528517 12.667485444875354 14.594804034214937
Cu 9.35937375351954 9.129829162235364 9.62334931391843
Cu 12.204527883787241 12.117031667208124 11.443952541491525
Cu 13.1666078622436 11.902352630357052 15.233145973664225
Cu 11.369363179008507 11.18759804104505 13.502736696308654
Cu 17.071849334721247 14.656949005562339 10.560642989677357
Cu 13.484131175875952 15.514216510042775 12.92811172155696
Cu 8.450762703904331 12.872651570496831 10.596170619294934
Cu 10.191440465995067 13.354120988014095 12.244452024066955
Cu 11.908341448130821 10.591225605614532 9.569384621532654
Cu 11.345695614818634 10.266881134465953 15.752576328804503
Cu 11.031112965947127 15.4920678994021 13.15604979705831
Cu 14.297504840790543 11.213445625744264 10.55919669931896
Cu 8.4090259785664 11.695030237194418 12.799451147382129
Cu 12.787697333938329 9.762399421538623 11.907588131654752
Cu 13.158421786281828 13.151819442702585 9.424647315705563
Cu 8.897204951482113 9.191063054103605 12.311882999534484
Cu 14.156033651707878 13.468772665000472 11.735524607156735
Cu 9.24225631173614 10.248222217191138 14.505606222697777
Cu 11.00261276126743 8.781394995775695 13.60263762171694
Cu 12.056670368380239 14.649554319484961 11.092516029236421
Cu 10.971248057736632 8.44578903506533 11.186979760346183
Cu 15.833489657026567 15.022168646450407 12.532534645608848
Cu 12.279013087941655 13.504859350046443 13.622630035060656
Cu 14.515919655370553 15.275418476142606 10.304487008940368
Cu 16.308118224574027 12.609919558919122 12.008650053620944
Cu 15.556512700761367 13.104618625914409 9.643524446216334
Cu 7.7095457417753055 10.579728332530486 10.671616056947782
Cu 10.075958764249917 10.9648489016562 11.104980081522875
Cu 14.284780666309263 11.387167226748751 13.050103969985987
Cu 10.729084408883695 13.023202505459968 9.687278525848797
