36
Energy = -104.82065969 eV
Cu 7.444023425063261 11.508894174772038 7.812711628565608
Cu 12.221106298734261 10.971006031879819 6.866233965412171
Cu 9.767855374067228 12.42342603701865 13.438388324815788
Cu 8.43597154459803 13.365749549978716 11.618479809579288
Cu 8.933112156818936 10.97634932627129 11.640620001875362
Cu 13.01182807916206 12.013173571958575 10.745146845594496
Cu 9.902732866991048 7.324302345852897 13.488510145714484
Cu 13.079706943384528 10.273259064821675 8.993473808314873
Cu 6.65831822754526 9.588587534840759 10.74431367176198
Cu 8.501770862471332 9.38157611975545 6.824948119439387
Cu 10.941233770586532 6.344990886416229 11.21772923837333
Cu 10.933475525163097 9.151818922951593 7.977619919701197
Cu 11.076765455359968 8.747692789459864 12.024450159508195
Cu 11.562278838234786 11.081700560071964 12.568540831515309
Cu 11.649945564290004 12.442406643453175 8.795210160897472
Cu 8.539753181473632 6.195306941851551 11.880040820960316
Cu 10.932238059411103 6.628754524126428 8.43443093952775
Cu 10.803711874948721 12.928501420533035 11.182613159615565
Cu 9.71332243661805 8.01431662516778 10.048329589181918
Cu 9.7247479386357 9.891859661178122 13.70606043163403
Cu 6.617063065890528 9.029524613710752 8.353719391602306
Cu 8.345971310877648 11.36942892200989 5.5069393008187655
Cu 9.227140175387198 12.543339654788353 9.413759759737149
Cu 8.341745274442214 8.60205199494036 12.121744685048634
Cu 10.970831143426201 10.45702855011334 10.190821395341223
Cu 9.080011241962286 5.602067699786978 9.651150555568123
Cu 8.66086679416262 10.035791064050743 9.335560123220562
Cu 7.072190711500191 11.864689050910297 10.224953912163294
Cu 8.498040923733267 7.312780930055993 8.003082893538924
Cu 10.478778961320609 9.950876643996402 5.542563331628465
Cu 10.256647660734092 7.617680353953779 6.290029570361928
Cu 9.89250150378744 11.43826381855113 7.391703957080393
Cu 13.230668556121417 9.706359346887215 11.388059445093134
Cu 6.281373809109241 10.171084412586197 6.175371445917235
Cu 12.204867728639226 8.100916491203732 9.889248829667329
Cu 7.272148696023297 7.331159799378498 10.128859846852043
