35
Energy = -100.95215387 eV
Cu 12.0738064440291 12.572977736630014 8.881540559744819
Cu 11.250313193597359 10.65247422289126 15.017195896468154
Cu 10.554297280810255 9.448285335198491 13.078477537368
Cu 7.315716633968278 12.33215760993223 12.009333761405914
Cu 11.163203775612343 10.300726939485845 9.158649086624393
Cu 11.921113698573416 8.993219407709452 11.149958539201783
Cu 12.25923665678061 10.982417797122471 7.02273120217074
Cu 15.061049912562117 8.498230505627317 9.190642259768264
Cu 9.573112484247538 12.19795375440348 8.678043001575615
Cu 13.675299307091912 10.587001764084052 8.986521556377616
Cu 7.687952889624882 11.335785568568873 7.352723459009243
Cu 9.692255301178536 11.079447246621866 11.132970963948704
Cu 7.283668445864121 11.815614555239742 9.673535981388016
Cu 9.305633056372624 13.38845709665145 12.820854803202186
Cu 13.70145146121136 7.293726422507779 10.97780080582763
Cu 10.425933421100455 14.442595148794865 8.924268962820474
Cu 11.22425287739242 11.92120378056309 12.994785237595618
Cu 9.017725082231939 11.163217387734766 13.931399174779216
Cu 9.44324686429714 8.529535704990003 11.070579773564832
Cu 7.418280861140429 9.970952976843408 11.332110370475242
Cu 12.531302426224727 11.38148582244088 11.018765119985328
Cu 12.71278228725274 8.063336780111308 8.932598594235273
Cu 10.911022086965819 13.23228959269144 10.9431732147021
Cu 11.26303678668465 6.800413745918459 10.568833721273181
Cu 12.88797489066451 10.133038537791622 13.170304803843399
Cu 7.384739438044592 12.911539461365784 14.330130087542686
Cu 14.273955897387967 9.65616605630602 11.17844713493302
Cu 8.601189708682115 13.712522812178275 10.43221485441635
Cu 6.653716672245351 10.669318646390238 13.624194992731322
Cu 8.562421815825362 9.853414909574147 9.156314847185424
Cu 10.219381419473738 8.086699762956492 8.764338781804309
Cu 11.642500348791968 8.666525460653823 6.859896845971649
Cu 8.257394658596592 8.853711381302931 13.287500188582674
Cu 9.828849558355708 10.202794499302659 7.114077755788173
Cu 14.010670849595686 9.128051019175324 7.075726935444407
