36
Energy = -105.1073797 eV
Cu 8.598924992964902 11.773933255185659 3.9062722259865668
Cu 7.81247637608638 8.051703531842284 5.623171783212675
Cu 6.993027801531868 10.4966584813874 5.230871752971128
Cu 10.249987351370883 7.507403307952164 5.06602515769913
Cu 9.54043184731115 10.000466143549573 5.256432451297626
Cu 8.954347145762314 6.075873171739125 6.73710562236737
Cu 8.589032345031638 12.081569331987653 6.305833132794933
Cu 5.822930630329412 8.925378925939546 6.888842150893115
Cu 6.362047664477067 6.3008732961806375 6.957723354433602
Cu 11.81642545089081 9.124258257665463 6.3253880883305555
Cu 7.950832065212992 10.037847190970833 7.3582779029123575
Cu 6.098705471744844 11.403301301127774 7.569156865667632
Cu 9.750383299013652 8.481009215989333 7.127602440004638
Cu 10.256633527349729 4.766196124817528 8.449799193686996
Cu 10.411827217214979 10.756933057251493 7.764787765841621
Cu 11.473319171624432 6.735719797213176 7.22856206514002
Cu 7.589963709843963 7.797180385069564 8.160972291400917
Cu 8.456957067247759 11.934296249336398 8.76817963922199
Cu 10.768978895019533 10.610271553480107 10.385073344080693
Cu 11.852613087948455 6.336997328672341 9.759096289257817
Cu 11.554583448947987 8.760593570290524 8.87740700153125
Cu 6.329826709868264 11.799232100251334 9.978554622117494
Cu 6.1560684581069705 9.447453451125341 9.32212747792735
Cu 9.765100104207875 6.999886934226559 8.975258165658934
Cu 7.970292960671324 7.559501004519126 10.55593748969398
Cu 5.843046342048573 6.894532447502575 9.575284594305636
Cu 9.028874431676885 9.433784364054759 9.479401094952278
Cu 9.588538637135864 5.498369393053877 10.820400650192829
Cu 7.809354895666891 5.386305460934459 8.8945509454104
Cu 6.473446279264003 10.065686944332915 11.646573858303627
Cu 10.492389889431305 8.01901472631382 11.097439959337931
Cu 8.482155105427507 11.34639282570523 11.101102363410037
Cu 8.657288077606449 9.215433949005883 12.227908441983733
Cu 8.683183688489105 6.787517102798815 12.709365412247129
Cu 6.3154497375642205 7.704596785438961 12.172498236183346
Cu 7.091938444167585 5.475211361344744 11.288398497798926
