33
Energy = -94.88335212 eV
Cu 10.173052803092652 8.132089497840802 6.29234552167431
Cu 12.136307237518482 7.859634102196342 7.9679184915922665
Cu 11.403122318475647 10.040865286203172 7.089395310168775
Cu 13.29535301882509 10.385051260479253 8.457896471233342
Cu 13.92950069763553 8.276938885146148 9.49735304941567
Cu 11.583877774205437 12.303369666103924 7.932979444088186
Cu 8.99506357975175 10.365586243526254 7.00434184014545
Cu 10.075053458365657 6.356092228595612 8.010105083133512
Cu 7.905955079986549 8.03717460606576 7.359157610310928
Cu 10.814158921256718 7.152117834247081 10.42637780895692
Cu 12.915438171128233 7.837330016293158 11.659308640011982
Cu 9.93711748732989 8.626026446102248 8.651913212023814
Cu 11.841143766420295 9.350927277686056 10.136303322509729
Cu 12.818091159656982 10.37528690519109 12.180289813883912
Cu 10.092771054195833 10.956908605967563 9.169155105916396
Cu 12.361828962216702 11.867521859027057 10.16210169703992
Cu 8.370826428284396 7.022754812417596 9.615798409357422
Cu 7.804697412357922 9.739476593150885 9.13561581179658
Cu 6.653887663127514 10.907572480951838 7.30643182880719
Cu 11.846455936344553 12.797471805979622 12.331682488415804
Cu 5.677452591216524 8.914592833807662 8.172636640066322
Cu 9.024589632416543 8.872790966596655 11.090445822033404
Cu 10.504780437786572 10.94520886891311 11.557539184866204
Cu 8.142403520646461 12.251119193826106 8.689763100237819
Cu 10.913822888084548 8.776416383440049 12.618818040895727
Cu 6.3791387254458325 8.149597616862662 10.309443519023157
Cu 11.079777524846946 10.989953914306216 13.888331681160691
Cu 6.8250309041424675 9.847456788886724 11.875353604092984
Cu 10.099428732900794 13.068756404632689 10.378141825364352
Cu 5.959772208078363 10.976838320498091 9.809681182527386
Cu 8.82955751882133 10.224207789939141 13.155485696487924
Cu 8.145314668607135 11.626827179838626 11.026239909174404
Cu 9.438030015794284 12.66322957006409 12.880942650424583
