37
Energy = -107.98015966 eV
Cu 8.535296657422762 5.415737374444077 5.477068487812868
Cu 10.614641788233389 9.417027046048224 4.732796648140685
Cu 8.518504534795714 8.045308969647998 5.214284843963957
Cu 10.81303219142853 6.835546581786727 5.5518511845365355
Cu 8.697549268473663 10.60295862246381 6.05537974890944
Cu 6.709998126384288 6.796813387352064 6.643687594729394
Cu 11.10185476850292 11.074033163003104 6.968221382124585
Cu 10.340180289681369 4.700520517339945 7.273398418782679
Cu 6.162483542845076 9.537187244608214 6.121615792503633
Cu 7.935327541382515 8.763617537370147 7.461045710780095
Cu 7.735034358530522 4.846661179449371 7.995501444210607
Cu 12.518348928907225 8.9058884177367 6.500305756955597
Cu 8.9789219681345 12.547903794620487 7.804268088226789
Cu 10.282542272231915 8.780080400211684 6.910418462982366
Cu 9.16461660697389 6.665156444407202 7.293022606150378
Cu 4.4465281765145575 10.389907386689305 7.996885943581774
Cu 9.37113741856333 10.407713017607714 8.50472574107109
Cu 11.554693536450056 6.907469318894373 8.061467336061378
Cu 6.9023293550858895 10.991293852048223 8.081792475415435
Cu 9.726239757053898 8.091957150522378 9.18431522223821
Cu 5.728537259616155 8.480158184547594 8.303217303513065
Cu 11.735151302062848 9.476890818569963 8.92477281190398
Cu 7.5536352592303535 6.97955974723366 9.129553644236395
Cu 5.416587089894415 6.061875298834761 8.730838561351453
Cu 9.669937839783794 5.682922918385506 9.575592511137055
Cu 10.836284457548425 11.830595532563098 9.564376550133066
Cu 7.690400496135475 9.307367879247625 9.84303544634662
Cu 11.418233850155268 7.522143015539114 10.606252840130066
Cu 6.917317426124968 5.454737043378786 10.74298094571877
Cu 4.013379955080687 8.308972209588177 9.87692160817752
Cu 8.695980277213502 7.52078007942785 11.326018447569384
Cu 8.23836224156658 11.642559377068114 10.23901985160779
Cu 9.96775799399933 9.806405710315772 10.921434378047726
Cu 5.588510213304509 10.276645725397387 10.199528217806968
Cu 6.164731306152454 7.887023417433994 11.05357013587231
Cu 4.493713842299257 6.14468874074536 10.947587843513785
Cu 7.661764181337816 9.793438974573556 12.082792092858583
