36
Energy = -91.51838296 eV
Cu 9.123924339129218 14.225852008469825 14.683196898013087
Cu 7.5529586834598454 12.410222745824091 14.265449584784047
Cu 8.580142379345865 8.097764607973266 12.585046096757358
Cu 10.364062671786442 7.250305368284404 11.174844952364278
Cu 12.516054726168527 7.164770689898226 12.176484084115303
Cu 16.121240568743623 8.940249424203646 12.235785359020388
Cu 16.463065025920304 12.975368914566044 14.629730074336205
Cu 15.09273435848255 14.704615692872231 15.626748512297931
Cu 11.163515248716186 15.575286788147528 14.758265065961426
Cu 7.780204390336294 14.172386001477063 12.673076077989675
Cu 8.203713352026325 7.48756191538038 10.252056740358018
Cu 12.33674125598433 7.456771509086027 9.80962314349993
Cu 14.449746916153234 7.807030313641917 10.935196311869204
Cu 16.109965794721298 9.086087822047547 9.828273619794679
Cu 17.133078993082467 10.789074661189286 11.138832239448421
Cu 15.593526695351558 14.772877737680902 13.288982498915209
Cu 13.534689919273385 15.781760660909061 14.127557238472667
Cu 9.522482328175093 15.871049901611661 13.032500578224393
Cu 12.936864008836833 15.52907523666215 16.37687339071436
Cu 7.229661568515252 11.454134079701435 9.56048134138159
Cu 10.0566875309808 17.296218605937852 11.23084211618504
Cu 8.194608186618831 9.349666690114518 8.79411550772068
Cu 7.555024886205471 9.6633083937508 11.09046933856051
Cu 10.090161818253204 7.730295010940398 8.783186405860642
Cu 12.12650119552849 7.890568051716848 7.5237823050004735
Cu 14.113678662360977 16.011840883862625 11.820342444236275
Cu 11.842946850098535 16.471161531758767 12.589341038862315
Cu 14.29238488643517 8.130480484093523 8.555873534808049
Cu 8.231129996454921 15.77948546610824 10.961247839310563
Cu 15.98147244751342 14.69446086432642 10.942287672352894
Cu 7.04671642103495 13.744983870595041 10.400779695504484
Cu 7.137219801951366 11.932761867037408 11.93723147839867
Cu 7.567301640546953 10.133733470371304 13.452866178159674
Cu 17.126460065940726 12.816827167891995 9.919208090022524
Cu 16.894452021387146 12.91700982167653 12.28737861472353
Cu 16.905164273032803 10.855423014154745 13.521829651928112
