33
Energy = -95.32224912 eV
Cu 9.176122422060663 11.582774285160667 14.369718046044616
Cu 7.121621509300039 12.61513635371401 13.57811636088104
Cu 11.131251326610945 11.369955034308674 12.902868224544257
Cu 13.081843001282508 11.099584899464167 11.411542445356249
Cu 9.807652761862723 9.3549074095615 13.660606299251791
Cu 13.702878271298149 8.816376291366266 10.611653908931903
Cu 9.058500211472746 12.51433848047362 12.091934453353078
Cu 7.6482057397851 10.373377407177674 12.850378921672956
Cu 11.802119922658115 9.059222681728139 12.182550143903596
Cu 11.002786234032108 12.216953594200358 10.568752379385407
Cu 10.408815346293315 7.173485943646965 12.844720388241825
Cu 9.63718043092528 10.199156275735437 11.264329839448843
Cu 8.347312715393263 8.15858576691518 11.984079423552533
Cu 14.981500090735084 10.771166162914742 9.888977159603087
Cu 11.599124648804494 9.852134522238712 9.773542178915802
Cu 6.791546083053468 12.053734972660124 11.229966675165658
Cu 10.32127793420215 7.817300388071226 10.512083390272005
Cu 12.282802442376003 7.5787209426098645 9.009799443437888
Cu 7.229160400029198 9.745628484990267 10.449337606683692
Cu 13.600788048275147 9.564950572002958 8.262631561214182
Cu 8.691422838349451 11.965814925194914 9.67713582124652
Cu 6.4344695399274565 11.437608688029199 8.882484317554479
Cu 12.944199640048184 11.830900695432389 9.062861245962633
Cu 9.273726043093937 9.504987275827629 8.9021362081984
Cu 10.625295299646073 11.613794091194315 8.1647609233757
Cu 9.986841173719755 7.236852657745378 8.146702185940407
Cu 8.298832290065617 11.152524611438276 7.318371901250673
Cu 12.535786407759028 11.149682694224111 6.7118840674071745
Cu 6.955201323033643 9.178333115149993 8.019452212275207
Cu 8.00038917379267 7.542635259717258 9.59240882983697
Cu 11.29712369086599 9.14187265253925 7.330279345807599
Cu 10.239727465201138 10.825887105924949 5.8878844164030495
Cu 8.91657449994505 8.832364952282902 6.572573831333522
