35
Energy = -101.17150606 eV
Cu 10.630139752945206 10.776534924414989 9.050235379948546
Cu 8.097759591983541 10.306051368524928 12.27689406325585
Cu 10.642798455553427 10.678432482259632 12.81609289041156
Cu 12.226805078519794 8.707168278901957 12.199957945467643
Cu 10.49472750007307 7.093663685988851 11.232738597955203
Cu 7.4723441292507315 8.9365007054004 10.10876756594253
Cu 10.088171426501768 8.353538095229265 13.357539759478414
Cu 11.542156860022542 12.042321862290702 7.204589664767248
Cu 9.631371153502837 12.953539320314324 8.562438822282129
Cu 12.229357388903766 12.814004549739424 9.509736650506326
Cu 13.160511105245536 10.740165377981187 8.637624778914283
Cu 11.520391085583121 9.447578335850205 7.2449091083479065
Cu 9.289412165362602 10.823280569051041 7.118181193398847
Cu 8.150699087593075 11.145131472082953 9.410310214511412
Cu 9.757465065027404 12.120577471334668 10.964236711134486
Cu 12.072583726691201 10.78037641370366 10.913740459993642
Cu 11.777624081664275 8.536153774518976 9.59271791103264
Cu 9.466346434175621 8.6693052340682 8.548311458210275
Cu 9.84517500943596 9.338986446568596 10.917022353154728
Cu 13.100010755443162 11.09057446102059 13.121441258926875
Cu 11.719613947518114 12.98240086490976 12.154796925298156
Cu 14.007529003864578 9.29193802194612 10.43835559868458
Cu 14.06590496133251 11.98271136044398 10.948147437878832
Cu 7.474791611080984 12.565705139845297 11.453935139173739
Cu 10.704874210634575 14.48990811430449 10.239682473801667
Cu 8.959136735381914 12.299722023164703 13.458334657018304
Cu 9.348526667575632 10.27063007160262 14.762376126287101
Cu 11.228877437779001 12.094835531019848 14.577104459862369
Cu 11.789795499173607 9.606306730945443 14.624122808596654
Cu 9.363218124649189 14.22305915029372 12.161830466991136
Cu 8.178533878562693 7.8227383813184845 12.071934991852338
Cu 15.19893475970094 10.283349891684763 12.236755318889475
Cu 11.46505830686175 14.422208048332326 7.904474591821245
Cu 7.324088805418624 9.548422157158585 7.759920158173755
Cu 13.654550070326403 8.44146356044718 8.10002593469087
