32
Energy = -91.83854837 eV
Cu 12.11315944835901 12.86948164481775 10.115521465827205
Cu 12.495367097284582 10.559274323291355 11.09811161739178
Cu 8.653362994146473 12.300512312171497 6.904207675488428
Cu 12.285006026442044 10.308311488459948 13.53428252926334
Cu 12.444204511845937 12.845679628976361 7.667057775887398
Cu 12.005328488499286 12.52481603525105 12.613372265127982
Cu 12.675470185972927 10.64542946117671 8.664800844494017
Cu 10.69662046187036 13.309146883652797 6.02622074634884
Cu 10.413708489716624 11.109302070262743 9.577474713210341
Cu 12.772768053512 6.258699245692939 10.891236488729751
Cu 10.155695192904629 11.056788881034967 12.032485154244856
Cu 10.791318697971143 11.129874275008493 7.066794512524845
Cu 10.216785172294632 13.387466688391099 8.411552365380544
Cu 10.86501835511812 8.953791101938283 8.24343438380634
Cu 8.126976076590111 12.253015379825117 9.309982926752319
Cu 12.8020324441309 8.437486576928528 9.735210639843494
Cu 10.916859595978867 6.807367211934275 9.470170455682128
Cu 12.572530096614564 8.296740091088868 12.230027068478451
Cu 9.758262877098277 13.29262396478479 10.7754738236363
Cu 8.914198416093308 5.968077768721172 10.574945730753448
Cu 10.572908108362968 8.933155313462725 10.782513524749195
Cu 11.382590774933462 14.657476959125855 11.769488244806128
Cu 8.678859171743616 10.142283881475077 8.063515139041359
Cu 9.724805515375026 13.279946562765927 13.181511934324577
Cu 10.678876862169673 6.74374243881474 12.022919459474997
Cu 8.760575082975109 8.036023589501374 9.302554737937562
Cu 8.277298254714204 10.120687269838099 10.574144595431042
Cu 8.51832957420353 8.006890371966634 11.855539752093758
Cu 7.886693580986153 12.19866733203923 11.832360925061673
Cu 10.159293152252667 11.173457361785525 14.405590461040598
Cu 8.223367558439833 10.107060258021324 13.13781181453946
Cu 10.351199960328737 8.857865636140136 13.343480104732427
