33
Energy = -95.65455289 eV
Cu 7.956238024626954 11.116865188459665 9.594529374790632
Cu 10.61463067250858 11.115303220013493 8.909815628567364
Cu 9.184021583115017 8.838111977143727 9.306077148559773
Cu 10.827782111666366 6.96119161223381 9.749550811362004
Cu 8.92882567790895 13.233834126052997 9.082805008911823
Cu 10.501310627116748 7.755497072647115 12.068680883085323
Cu 12.791662469744495 11.930054248281586 9.867090244550912
Cu 12.549765653627793 12.2571131512446 7.400986156561514
Cu 8.564089836064118 7.037200723526022 10.793252979117147
Cu 9.161576671069016 10.024420108488215 7.122469665918357
Cu 7.862582382701162 10.644205533563643 12.930312127998787
Cu 12.032355403141677 11.130445073399367 12.001120069660553
Cu 11.284640841858424 13.655428149007447 8.802854358133713
Cu 12.80404200196713 7.369470806140147 11.307266492917053
Cu 11.959231511698047 10.986387364427639 14.375272364167689
Cu 10.034891787190615 12.44915289196045 6.946736200955078
Cu 6.20939721115897 11.30938539136716 11.290447712068074
Cu 7.651687647326514 11.880110122562558 7.368835388002746
Cu 10.606337618795989 12.775845372564982 10.895798625953786
Cu 7.277524464622523 9.147753065101083 10.862697599027738
Cu 9.648165052408324 10.388120676396271 11.275764128181395
Cu 13.059204115912454 10.07861312635973 8.294793629684953
Cu 8.269436498447675 12.630606606346243 11.481533315600707
Cu 13.781210906744109 9.68567330455204 10.790973727393514
Cu 8.280344302541563 8.252849710851 12.88665986902805
Cu 11.096095882373232 8.550957997254972 7.8209699562748485
Cu 7.058316934032217 9.442846191289904 8.224259036587341
Cu 11.546168786751313 9.245733982541937 10.234349088107416
Cu 9.996045243178687 11.999460381919695 13.161213480502047
Cu 10.122705348593357 9.616471688691641 13.656748848453075
Cu 12.451011785986537 9.003572943219552 13.001224274003535
Cu 13.133569328472127 7.7869995340982054 8.986780733857566
Cu 11.423257472151736 10.43648501129482 6.391379317777072
