32
Energy = -92.1101519 eV
Cu 12.679912194408626 9.62344856397076 15.633341028608157
Cu 14.936119593224225 12.197915076392043 9.532666282014512
Cu 13.558787200070025 10.128877203587665 9.897992614838106
Cu 10.325811722441427 14.802903449308666 13.181267961664833
Cu 10.870838194601133 10.709997004012001 13.943790267626454
Cu 9.377568501670934 11.90253716350004 9.35568370515213
Cu 14.361057608002543 10.05859775396464 13.914987311382474
Cu 13.051455609814884 13.823171048460505 9.096052277440247
Cu 15.147351385316359 10.987460018125002 11.642935092240318
Cu 14.029811234782642 8.703540161257234 11.802152883498868
Cu 13.722639345426739 13.093243237321502 11.434880410797858
Cu 10.407094780013841 8.801841572134098 15.259673101785605
Cu 11.71260090726214 12.19669517410779 10.20647160493303
Cu 10.868098816433577 11.120900027264318 16.26922129505916
Cu 9.10777307951659 12.328982773122762 13.440467362964121
Cu 11.086896937400567 12.467454944862139 7.767289037091113
Cu 12.894988505954421 11.925724110249334 14.900296837651759
Cu 10.037677044548687 10.892484573217748 11.501599386606282
Cu 10.466896932780486 14.23537733106349 9.257473180187825
Cu 10.860407695352416 13.209723896701353 14.980836315301927
Cu 13.22041158135463 11.51933264857868 8.014535172819642
Cu 11.201446562174555 10.231852727241307 8.938948270684731
Cu 9.732405860753405 15.793284078625971 11.011057169235352
Cu 9.417616904784131 13.389377306091033 11.269238272259521
Cu 11.62007674185395 9.010333414726148 11.020776748235244
Cu 9.907277259627254 8.814001952981265 12.797073045950228
Cu 12.240948633445026 8.654423119954417 13.477961082013296
Cu 12.782655646706871 10.8059654178875 12.227767893134683
Cu 12.896296725056027 14.137893199601612 13.740637709652436
Cu 11.407852582238661 12.693433862626867 12.639246800821972
Cu 11.866618381301134 14.660683905864843 11.218658712701384
Cu 14.746073923987687 12.467593918460844 13.551723907968464
