32
Energy = -92.50620364 eV
Cu 14.582347538976753 11.225828632820912 11.905537557898661
Cu 9.072890741135103 8.987252827111593 11.783230448872857
Cu 6.162098895547181 12.131487131787004 7.854774780206248
Cu 8.592258362775905 13.677037784372532 10.94783658069957
Cu 11.398634780700256 6.225110541967615 9.182598339677815
Cu 8.762011490375462 11.40855566913358 11.756004680506713
Cu 10.373598351483341 12.430132150240517 9.833088743001827
Cu 12.666252534903846 11.96741426364382 13.331234382229397
Cu 10.633667729364273 12.853993098913179 12.248675399348135
Cu 8.779509904715418 10.344140747313531 9.501236777792844
Cu 10.619866582889996 10.54814441932593 13.145278489728398
Cu 12.047826556846692 11.062322466927275 8.650937481970828
Cu 8.136113236441055 10.91484999852279 7.11531004646043
Cu 8.91892815940278 6.212398881327379 8.766610871970617
Cu 10.425833930940817 7.33555423662416 7.183654092463565
Cu 12.267288721774966 8.59208701061846 8.481897889340042
Cu 12.161941778476402 7.858147763902536 10.84248792746076
Cu 9.848747260691347 6.726335681784422 11.210428466732541
Cu 10.995562770226908 8.095686177357539 12.928031293486983
Cu 6.869086089364433 9.84693924148587 11.229429171516689
Cu 8.239969479184431 8.466291811878563 7.681538401863203
Cu 10.31946570119821 9.781227576379179 7.423476473995297
Cu 6.495728725225114 9.88482112771287 8.799753403803596
Cu 12.577639277635638 12.011041529237797 10.896981471541746
Cu 10.04697637290623 8.25122075999728 9.400105996429973
Cu 13.570709294931529 9.82586538216614 10.146867200500195
Cu 10.280425687030622 12.181995984323558 7.364562390149347
Cu 8.32850188178384 12.940972127324331 8.55001941108458
Cu 12.807431306916001 9.682709715678564 12.479307694509048
Cu 10.99276838990574 10.11839974307279 10.689605798518219
Cu 7.66486597734699 7.914223687594571 10.00271890801131
Cu 6.868091064187538 12.004850404738352 10.173818003512089
