39
Energy = -114.81564222 eV
Cu 14.42790282473141 11.16338803513497 11.523345315411753
Cu 14.562369293102197 9.688993228748739 9.581274938271289
Cu 13.044597985451531 9.170061126159467 11.465860434348953
Cu 14.051007235597249 12.049307144433829 9.158475032892492
Cu 11.527353320082502 7.3096249385170315 11.227969007361697
Cu 12.254578489944436 11.444827370266395 12.750962356994561
Cu 12.887368971253384 7.986236309929914 9.21922536573048
Cu 13.292138368619433 13.272928662323453 11.24715508889202
Cu 10.049932048651684 7.389013395974524 13.082651531186814
Cu 12.147002655565498 11.197755299557999 10.35628462623785
Cu 12.658562711606821 10.181424195705105 8.075931729537258
Cu 11.004545649253458 6.437792507708815 9.022971113114444
Cu 9.325986542910897 6.303438538278773 10.882626210111779
Cu 7.753958031229211 7.0165083310705265 12.607375018317946
Cu 10.794986008214444 9.219936211567159 9.723514251652231
Cu 9.696130084699426 11.593847980610555 13.047741249534404
Cu 10.804095849693486 9.552603085997987 12.269832892307216
Cu 8.569414707167697 9.354448195167004 13.447627382157203
Cu 10.872539179532254 13.104599715873999 11.445786462156754
Cu 8.71220101910583 8.780145676777144 11.065203247417948
Cu 11.053079152909854 8.39092709044949 7.466354369081067
Cu 9.525061094840652 11.160187105955623 10.569808311675889
Cu 8.910244903804438 7.5483037701330105 8.769590654758462
Cu 6.440609666494719 8.924819013937672 12.18733546816813
Cu 10.70608765798807 11.536821620041845 8.344663970587796
Cu 6.952532304801199 7.391959889116729 10.213162226755765
Cu 7.4796106034965755 11.092785829998123 11.991269171877015
Cu 11.96146405447198 13.386059237755704 9.195777476344743
Cu 8.463095790138095 13.277140456384764 11.613677921765536
Cu 9.490185588007032 13.4232607449635 9.35630968607037
Cu 8.714985751424933 9.980854981390607 8.397459151178715
Cu 10.131319016186614 10.386938800343806 6.318678120282993
Cu 8.894052136278576 8.19351384503971 6.4160941441281585
Cu 6.728179222319849 9.846490378627736 9.957248434984571
Cu 7.387647500886081 12.22580719813836 9.683267843391718
Cu 6.844827415907587 8.549689903446849 7.864518607876415
Cu 8.525797210181041 12.221225077824535 7.379195152588717
Cu 7.720793629444535 10.24324441680494 6.047964350907679
Cu 6.393617881800197 11.022736619819117 7.862986282002558
