39
Energy = -106.23857292 eV
Cu 13.711968154932496 17.286335665609947 21.448781163900254
Cu 13.259865817925752 18.822707471596665 19.662104236285515
Cu 15.039138369014262 15.476519086185201 14.430710632956597
Cu 22.892250814226912 12.111568387762455 13.047125081135484
Cu 17.28996158122774 16.325988857576668 14.774477885872976
Cu 23.17348511572979 14.475655114998547 13.139376032827986
Cu 21.098370845131498 13.493353181657127 13.697649720061095
Cu 13.375255003190832 16.488163409251893 18.95004986218138
Cu 17.027194249724957 21.54157821984697 18.215603966194333
Cu 15.81804578031356 15.778690468041125 18.552938621011414
Cu 18.609210056819972 20.211926980282577 16.987087943996645
Cu 18.961510112114603 12.538867207568343 14.128826730948045
Cu 16.120234691691145 19.874781298741542 16.62981276856238
Cu 15.11606133215182 20.224411314358566 18.995159952760346
Cu 19.55196505348796 17.293878296174146 14.593379861435281
Cu 18.827614749532238 20.855217673224168 21.89362774436233
Cu 16.17496745919825 14.722225742847243 16.43608568397283
Cu 15.630554921957822 17.654281491718052 20.028317627818577
Cu 17.496782522255586 18.972677760031274 21.04524218511836
Cu 14.98591061224241 19.53830697522503 21.377573818317398
Cu 14.598126230263198 15.210692562633255 20.53640627011848
Cu 16.73398155059368 21.209915368526826 20.60926774890598
Cu 18.85744721067181 20.535643492864406 19.50433248734547
Cu 19.186105498500222 14.9165420111533 14.256234330359646
Cu 14.072566092411266 14.20480773892648 18.208233023224107
Cu 20.841234506542243 11.092739134257883 13.699001784002602
Cu 16.69958701655335 20.35469952364487 22.901803393584302
Cu 15.363538316947462 17.82122010904109 15.296117582403713
Cu 21.390725256809844 15.903228332008885 13.910761293411577
Cu 22.000218222605234 20.59239094740197 14.273009193402478
Cu 14.75075240832946 18.17228964250679 17.711818682437855
Cu 16.980397095197507 17.16610191309967 17.026475335211163
Cu 11.572868496086341 17.179373174970994 20.374534689986103
Cu 17.207025454425878 18.98303101488026 18.65024609782517
Cu 17.728857876952816 18.70697030109748 15.257929075255293
Cu 19.97271563877026 19.696132435155334 15.083249161991642
Cu 14.157654722026194 16.071111488305522 16.62432615598289
Cu 21.66409822557943 18.27206885924274 14.128636664577645
Cu 16.971108527750776 13.936997294624735 14.29138465649013
