32
Energy = -92.02135271 eV
Cu 12.709190544962578 8.664830721748109 13.8434533959518
Cu 10.40523733411672 9.08319591521955 13.395169366717946
Cu 9.238281914246537 6.982194482527326 13.560348409558408
Cu 11.993276397624832 10.852217589042837 12.853541418622559
Cu 11.404582204584592 7.062548980565556 12.473934127593276
Cu 9.605143468816095 10.929391630451617 12.017701515178219
Cu 12.63615012275318 8.904339866203896 11.43153857553353
Cu 8.325117134926089 8.778342889107126 12.14652436460738
Cu 10.340600621547908 8.885345698271026 10.563744414395453
Cu 11.022295096264257 12.934754916977177 11.832523546623014
Cu 9.334199311510591 6.709041616626338 11.156786742984336
Cu 11.696179019399231 6.895234270272387 10.053239913690245
Cu 8.640236810455688 12.881411008639905 10.87834503302972
Cu 11.710947685227326 11.041716544974136 10.42702757138641
Cu 7.421658767256097 10.678786438926906 10.889601006926402
Cu 12.256094554475638 9.070954120950425 8.998903558169859
Cu 10.012220788710062 14.912212308539347 10.818067197293399
Cu 11.71382016527591 7.130957852658607 7.6397859700588295
Cu 9.995359592529605 8.97287674932865 7.80370253857236
Cu 9.544240639882494 6.782039776000073 8.747542561033734
Cu 9.362004915495516 10.878165477657681 9.427569284035664
Cu 8.551238927776343 14.283746453539369 8.923695835630301
Cu 8.126284328399969 8.523272540441372 9.693914219917975
Cu 6.36937172426679 9.82206365588905 8.782597186611548
Cu 12.034505918469383 9.329083324140665 6.534742360228579
Cu 11.351761741674906 11.187888925354924 7.974649254758627
Cu 7.7424313446921555 7.964538684086466 7.393546635565435
Cu 8.07796953768677 10.397355517699086 7.26209541372468
Cu 10.703519334592743 13.108587287464937 9.376019062654677
Cu 7.298651362178009 12.158104435348694 8.88646731122323
Cu 10.114562998628108 10.695548230749383 5.948365832126024
Cu 9.324082483955475 12.513058360450247 7.422626934678142
