32
Energy = -90.6440622 eV
Cu 9.893680143760848 6.727809802826894 11.959933212412244
Cu 12.136772627694375 7.30268622316329 12.751083505574073
Cu 11.734068703227871 6.888433542598422 10.333496977775805
Cu 10.044603551967374 8.54031468024497 13.617330465214954
Cu 12.481475612337658 9.685122629058025 13.166102030381422
Cu 8.401891805610402 8.757674531070306 11.58559305170049
Cu 9.454637841597922 7.5420538996755555 9.70567053387153
Cu 13.2231738154581 8.700914568829655 11.00471260364231
Cu 10.8711319248638 8.94481347343878 11.379493119142914
Cu 10.704199868662894 10.6400304612574 14.640684176123427
Cu 8.702846821896363 10.54471147311279 13.170601915110076
Cu 11.316323266096628 9.1303244335597 8.979005959125917
Cu 7.898174607237166 9.32306645131277 9.203462453667429
Cu 7.357340522220119 11.061227895128017 11.004291455073865
Cu 12.289743605724476 10.90657397431623 10.479048172299736
Cu 12.658953913189961 11.988717944907686 13.997605335683899
Cu 10.878410359621098 11.388374889077015 12.390434678593566
Cu 11.336573399868243 9.808072076837439 6.641391098268463
Cu 12.70816785588639 12.97405966450441 11.799548178239315
Cu 8.913963307529649 12.669480333620278 12.029098676116025
Cu 12.994709299572037 13.053700801275554 9.440798586110288
Cu 9.476759310450213 8.298865975482164 7.411955763511564
Cu 13.980742696312344 13.90042297115474 13.52281605177368
Cu 7.347381633726561 11.680567541374574 8.657220236352169
Cu 11.476209886831604 11.615154724693655 8.296220686868509
Cu 8.092780440612767 13.489337159999597 9.995227031481031
Cu 9.22982454513856 9.915897124266966 5.4633637259366035
Cu 9.273975914122115 10.649588730593369 7.710293148505607
Cu 10.676747254958245 13.037355040659289 10.285489800732881
Cu 9.636016289985625 10.804393247682023 10.23001031069281
Cu 10.412697410272589 12.030561009126703 6.0986630040280785
Cu 9.44557727624099 13.049248237825882 8.098909568664634
