35
Energy = -98.70233464 eV
Cu 11.354393930382667 7.0687610210104435 6.252766406406617
Cu 11.479714385304671 6.487266495425293 8.642056180308968
Cu 9.63572262249406 7.821659410395381 7.723538502467907
Cu 10.581750077460335 9.425920324188446 6.180571062642234
Cu 12.181392001527666 8.669646063581506 7.868830681931793
Cu 11.363441763588261 6.145195086860825 11.054347104606691
Cu 9.356910237888428 6.689130867886773 9.821094706032088
Cu 12.665794415268524 7.9942030679452625 10.177326995536067
Cu 7.596689247754717 8.21302997472356 8.934890910852332
Cu 8.508369215835922 9.96446400065338 7.4720174043256025
Cu 11.922441688509702 11.056356899325847 7.433722773205356
Cu 9.816144667789482 11.705449992720643 6.406456165096625
Cu 13.069837603063645 10.279226663053421 9.43230705630553
Cu 9.45380988793792 7.083292823545259 12.225901783977294
Cu 7.309191591227663 6.911858443246643 11.05699630897798
Cu 11.688840032162748 8.111709177746555 12.436246714797749
Cu 5.556510207896442 7.0256486200124275 9.41457275067515
Cu 13.01095147611337 12.6439208524015 8.92355072539367
Cu 13.362468117602493 9.708298078506024 11.747388580728842
Cu 9.847974679594518 8.894758161841452 13.799234564355766
Cu 6.052814233763592 8.955958458319206 10.733246657928538
Cu 10.642048236773338 12.918837833120989 8.3197571817926
Cu 6.872926541717213 10.586523631049346 9.151840335005803
Cu 8.254703484887317 12.318429075156226 8.147368417143177
Cu 13.878613548797233 13.941688255975137 10.752495486890378
Cu 7.831031750443156 8.892546675617698 12.4373932566421
Cu 12.620197662760788 11.953219475613809 11.271815644675417
Cu 11.337279105485841 10.52921055570749 12.792919009893737
Cu 11.518361321427633 13.953854937086977 10.349005315737804
Cu 6.976805772294975 10.985329837737194 11.58167620621626
Cu 9.158636525449255 13.490795346260201 10.130131859160114
Cu 6.835310690236224 12.844839043797284 10.057073787992307
Cu 10.407056400766704 12.660763376217364 12.079528797166992
Cu 8.932972074841448 10.998873101661209 13.065426842244916
Cu 7.9970380644472066 13.068683469046213 12.20776457730497
