36
Energy = -104.28507676 eV
Cu 10.63210962668797 8.77516586091868 13.619640993004626
Cu 10.676220094954695 11.165815149635929 14.24390146763007
Cu 12.359423492492086 7.774238857211106 12.035538104081883
Cu 10.669814119541854 13.542242335903577 14.681179593383355
Cu 12.26068126859816 10.168530408168321 12.58612507892026
Cu 10.104747130450855 8.353709795382928 11.328146080084185
Cu 9.512012915587066 10.535295314059328 12.213438321313774
Cu 12.370051296619916 12.560436873385484 13.206681361816665
Cu 14.17983454796517 9.253668608553252 11.152111089757822
Cu 8.848157149701528 12.58964799561235 13.332523563900915
Cu 12.363134386300402 5.499403478324908 11.319938008311741
Cu 7.840522916384836 9.165021877216681 10.948458595334593
Cu 7.205124511243346 11.341407260169447 12.016315510579844
Cu 13.680719917893823 11.6405957430315 11.189713768370437
Cu 11.984224709164845 9.592757939805 10.196654924445234
Cu 13.768073917510783 7.112107970065514 10.104805281488359
Cu 10.544949549589553 13.996720551890085 12.319090118624713
Cu 11.395649506828368 7.024628589927914 9.74264587925376
Cu 12.890255894452894 13.951241169481273 11.314780434848657
Cu 8.916731888716429 7.223841339669702 9.622004465866192
Cu 11.238749441873436 11.968199862098475 10.969877265454576
Cu 8.830823415707188 12.714008722300104 10.807243219524787
Cu 9.639744917487771 10.45934940979297 9.722077530100092
Cu 10.960847440008903 14.272391506155776 9.972951477659308
Cu 6.922593962664358 11.027228016102148 9.651547239638349
Cu 12.83599518646193 8.454235041651119 8.244411885532472
Cu 12.68168713210679 12.678336351439121 9.112748922189411
Cu 13.9332817472526 10.510463442813274 8.989267067457645
Cu 10.35483366038146 8.618556180912806 8.225043856335164
Cu 8.716997405118914 14.47615671300329 9.191434280570068
Cu 10.247047318991818 12.599126965433209 8.47002979336655
Cu 7.854110209730546 9.045022272186076 8.492983052369672
Cu 11.671645448402368 10.684311858016141 7.966465142145566
Cu 7.889061255462243 12.561590821567858 8.069046199738779
Cu 9.24214105067465 10.664476140727485 7.244778690733096
Cu 6.722382136505163 10.69287935044538 7.217793998638119
