34
Energy = -97.4280443 eV
Cu 10.92366820044568 10.119265096993344 7.98039079436737
Cu 9.298391711571336 11.742817877792064 7.278216734203936
Cu 12.08564892248772 8.04729153034395 8.859804154934643
Cu 8.061775451277828 7.661591969977719 9.639311022284387
Cu 11.847856044540865 8.517973216577888 6.452140876756006
Cu 8.040322151582748 11.8768146778252 9.413616378431248
Cu 11.739319908545406 12.353654946733712 7.902955328711545
Cu 11.939776307784683 13.77461364614877 9.870926514936622
Cu 12.518279773737232 12.11673477387035 11.591488735959153
Cu 6.535475269362171 11.773348457985643 11.430066040765874
Cu 8.780082621170989 10.813660240651343 11.489088278714668
Cu 13.270590086616085 10.134774769776113 7.825960603358627
Cu 8.257977578059243 7.894302998667371 14.032805726632375
Cu 14.08939327782893 13.82664970240102 10.922447794885185
Cu 9.349163226746786 10.091162995956704 13.846851665339651
Cu 10.238690949963129 6.7046470194961145 10.014360678059937
Cu 11.108416162671551 10.112438247139268 12.15407818105911
Cu 9.291297722035171 8.040394784916128 11.931861657849488
Cu 9.810619238875992 7.789020127194717 7.791048217679219
Cu 11.790405761548197 7.966585124100536 11.39255799324609
Cu 10.544654249883731 11.729537728703091 10.103994418366085
Cu 7.93912771530917 11.992297347403417 13.433501446875452
Cu 12.503255180035113 10.055710877452746 10.13416876691162
Cu 8.301855242206331 9.716702601893905 8.230161970138347
Cu 6.95621004428117 7.59335619717357 11.827630555828446
Cu 7.0558781088189075 9.750998179341108 12.870414586753538
Cu 6.968325569144088 9.651708995188644 10.345010959672726
Cu 10.802238407203511 8.156047209070191 13.755526950816531
Cu 10.311521457107002 12.292105557411551 12.701642528337981
Cu 13.681254479924869 12.034562822430333 9.373519193987702
Cu 10.022773097430832 9.197417814529002 9.991095265181393
Cu 9.60213307489783 9.582803434886896 6.06501246871535
Cu 10.02495039568941 7.307925013351033 5.415427040625459
Cu 9.758200660662492 13.584477616241372 8.739018759637045
