37
Energy = -108.03440745 eV
Cu 7.916167281219024 10.396133893545276 8.40388440904038
Cu 7.070150031143869 9.396203046125208 11.193477652748683
Cu 6.908532092030043 8.100413639933464 9.050716514020433
Cu 5.657663374937324 10.182146028002478 9.38085515231058
Cu 7.924538355967485 10.900833846975223 12.892474644123329
Cu 8.165301190444005 12.249611335804454 6.683431006982825
Cu 7.829026338178203 7.072691107480168 11.287043816019741
Cu 10.320458294377469 11.701148133210168 13.011639574461018
Cu 9.731938383053924 10.443155519575834 6.531217926754488
Cu 6.993636584153258 11.781247416370482 10.659945469530147
Cu 6.288251107249429 12.244594572498416 8.289580691512922
Cu 9.084172243267856 8.709467449812468 9.832456193776192
Cu 9.268916380954467 11.01312779968043 10.891665010616084
Cu 8.9119927538956 8.317971973190824 7.4017218701558205
Cu 9.395119500036593 9.754843054648708 14.44089022966436
Cu 8.548230512512397 12.71140215351884 9.014907097286933
Cu 10.988562973323255 7.587019674667993 8.586698105295554
Cu 10.527166247639382 12.537381627121714 7.581841604734416
Cu 11.789542317303141 11.193647692731277 11.127576164247403
Cu 9.39757800782703 8.64351820020291 12.345209722769592
Cu 10.559478667969547 10.53040533776391 8.941790330221075
Cu 10.567578765982807 13.047666922413441 10.16038027017668
Cu 8.75852891495836 6.443273853362561 9.018429195082913
Cu 10.329325505596954 6.7577336787614195 10.881085865098084
Cu 11.283164295128998 8.915506266133955 10.83185496814557
Cu 11.083182527260904 8.453715985210904 6.280873936606229
Cu 12.693358192621615 13.38521660414064 11.350099308791052
Cu 11.522497121168252 9.607314951657022 13.19639880269846
Cu 13.032710273070405 11.563867883410854 13.10386392467047
Cu 12.983381677111558 7.48687804533446 10.02040969443641
Cu 13.49490375710852 9.383781639714375 11.749270169439665
Cu 14.185424739430081 11.562815674544412 10.800588612291392
Cu 12.158524475659188 10.527245638719258 7.116883406272682
Cu 12.568616841458844 12.241104730262705 8.985263327692335
Cu 13.07585801673902 9.852887451143193 9.33627026959548
Cu 13.110578272687691 8.219025179337223 7.597590614767071
Cu 7.321861381191573 8.530919387651634 13.467631842622504
