35
Energy = -98.57067713 eV
Cu 14.507506981538771 11.485318573398343 8.224518696466486
Cu 11.959810061799113 11.042212971668917 10.562291560975153
Cu 5.4939792331638255 11.451428415967468 10.176480124251102
Cu 10.409496653565359 7.0247310831725285 10.508263717150324
Cu 13.539167078512477 9.380581008923228 9.256562658465823
Cu 10.403267057350629 13.185231649380224 14.779317772887206
Cu 12.383547936191691 14.205901428064772 13.691049457313353
Cu 13.48789948225284 12.6372418167018 12.20622898809509
Cu 8.447081358560652 9.678567018212743 12.955783226352477
Cu 10.72206639631889 10.449864577540795 12.550732483661161
Cu 7.003607703562584 11.337006618305733 11.977859763208855
Cu 11.059259842036386 13.07247886546669 9.446450917534689
Cu 12.412213415430132 14.666252774875183 11.244150344969539
Cu 9.465604821363378 9.247962731512548 10.688411379208622
Cu 12.411634127936376 15.082395402544465 8.863968630579627
Cu 12.808507272203522 13.185045413870858 7.455494829275033
Cu 9.860022725984987 10.71344269042747 14.844538376668014
Cu 12.127692766877606 11.012298630121885 8.11845205962552
Cu 8.903455621148662 12.249775298777612 13.187438522833162
Cu 12.110609368073002 8.574710946581298 11.311394426906492
Cu 7.336278974934755 11.155410434072005 14.509191900126655
Cu 12.174255342102096 11.72468177641978 14.219661035231104
Cu 13.515264058530397 13.068604375989612 9.771501551681448
Cu 13.329073776899925 10.219786383803493 12.614213430518404
Cu 9.816453432647624 10.9098149026872 8.729215653193522
Cu 13.878626513868369 10.213425711187115 14.932975066303747
Cu 10.220661737555579 8.030657655237198 12.747041448877468
Cu 11.837336374276065 9.132584717588237 14.212441201641365
Cu 9.343276932966502 11.76238844744054 10.881379259285508
Cu 14.585475652897728 11.060133648958226 10.653968034432841
Cu 14.628025400197213 8.70258734704641 11.294167812505643
Cu 11.189222433194791 8.874254949488943 9.024355144749649
Cu 7.611956986021351 10.53792245700288 9.74365895840509
Cu 11.00453314021375 12.957806254064424 12.177405531461599
Cu 13.119364559506876 15.346515843786387 6.606312602974278
