32
Energy = -92.68099186 eV
Cu 6.019493443855829 8.765972498685741 10.403721175250297
Cu 8.215587621462191 6.330479065497122 7.747902093354564
Cu 6.108881663887178 7.752764905340773 8.084823824065332
Cu 6.613376827217826 6.442107271841004 10.023724714326226
Cu 5.917217044533923 11.181696316448807 10.651462744485523
Cu 6.395779934969453 10.148765841699598 8.39166996979222
Cu 6.999959977551529 9.977339966586277 12.417012324292111
Cu 10.543738615880251 6.748099316928386 8.82808808848157
Cu 8.361665073156269 8.071821831354505 9.327212399437355
Cu 7.962214022556763 8.724965794058756 6.916224595789464
Cu 8.897208389686584 5.885115883500545 10.37791167645839
Cu 9.387817092737693 9.808062772865664 12.310207756140011
Cu 7.312943487076617 12.426994811195495 9.187312506312349
Cu 8.18769918227352 10.30005740446824 10.134376857061671
Cu 7.848393155337396 7.802137392743159 11.757995446481976
Cu 8.326409850841124 12.045109695352755 11.718952162155485
Cu 10.194812054778376 7.794465669786982 11.067646775377087
Cu 10.741148709587481 10.0961341368399 10.124614234555644
Cu 9.699604358368065 12.320145653680362 9.540409850431411
Cu 8.585400400298235 11.010530643842127 7.713368365165372
Cu 10.285372686899883 9.123220711012845 8.003520553580804
Cu 9.652355168256511 10.032370775499945 5.78057013725731
Cu 12.39464198494299 7.659575523685966 7.603494084967684
Cu 11.737048453525457 9.225399304834657 12.230467702534991
Cu 10.139841637432841 7.397776830877029 6.4034624103345665
Cu 10.919071771356295 11.820270876324459 11.723679827211487
Cu 12.353036213857195 8.180704193730058 9.976520351332924
Cu 12.093750322672802 12.2099797523966 9.471739406694603
Cu 10.97061265657312 11.46888623163265 7.458735881663935
Cu 11.94174443231969 9.523968261032099 6.169583812222616
Cu 13.123171912022318 10.47151714303003 10.75552127194393
Cu 12.768930301690983 10.031354100920735 8.394781225756828
