35
Energy = -100.88165752 eV
Cu 6.730530095795876 7.936023362333875 10.525919009972093
Cu 12.359938123549707 14.073515225832939 14.818356757784615
Cu 6.918102303056482 11.929973319346484 11.742834192244972
Cu 12.05481855425508 10.545185500525353 9.612853061692409
Cu 14.960724616834502 10.912150276841283 13.831995426436043
Cu 12.753082290677147 11.677499023679562 14.377229805512236
Cu 11.014678497141823 8.327532894843703 9.759288968474996
Cu 9.042689449047472 7.57323951033312 11.391943439568962
Cu 15.27996341390889 12.0958723185223 11.685663972850836
Cu 8.778732794292349 13.702232738993198 12.404934842669364
Cu 10.372331785378096 14.279277690901461 10.674440973614821
Cu 13.198616705305874 8.713453897500067 10.848042921209952
Cu 15.21756617053001 9.527392817745959 11.894248790934837
Cu 7.477677275573842 10.309430299128158 9.956921970531777
Cu 11.260591307182645 8.156387626867287 12.248879793627324
Cu 10.97982385146635 12.661028137853 8.999025337059058
Cu 10.94400259106702 11.990186583079257 11.40953492072812
Cu 8.878702106751302 11.345470300386587 12.908877811852967
Cu 8.80630065376105 12.33672957983711 10.261583444294747
Cu 13.372229500143296 15.561329548986757 13.177963402997474
Cu 9.766248685270611 10.531612624629762 8.829179069578096
Cu 12.517219985397988 15.273672096704708 10.87006868260468
Cu 8.668072514600384 8.373885782101322 9.1607136183805
Cu 10.86759106782373 15.117109067635953 12.926355606690029
Cu 13.207441421909655 9.130735632088552 13.469013251100067
Cu 9.783158054445073 9.846220976817674 11.182860886249516
Cu 14.709545160542199 14.393557094507889 11.49170740027747
Cu 14.464925035359537 10.659686053910255 9.873363654236341
Cu 13.169605992250753 12.820301672834232 10.168026181506281
Cu 11.014828847155428 10.30815981904422 13.342648304320901
Cu 13.122353281961926 10.968458104891091 11.94972182716723
Cu 12.610611438294562 13.400156051888706 12.468377408686512
Cu 10.572740838071814 12.780641423909945 13.831294453826604
Cu 14.610561738429572 13.360551291871285 13.796423862018992
Cu 7.541333426584511 9.464813110616626 12.214223167073238
