31
Energy = -88.83530827 eV
Cu 12.64333858419269 8.866928893586254 14.122053238541186
Cu 10.237278407995062 9.360556526595738 14.282558616850617
Cu 11.80404109219016 10.902709604736218 13.189215419381146
Cu 11.086411407554332 8.09323018116788 12.398834033799815
Cu 13.127291056018247 9.344884695650535 11.73110037332961
Cu 12.65241294530146 11.620045342255315 10.891132372305918
Cu 8.70777208046788 8.902200610884313 12.44730275314733
Cu 9.173390669407484 11.236724809151292 13.031198221118999
Cu 10.585343764762374 10.268475655141685 11.194418407652986
Cu 9.472944182922998 7.49909096841728 10.60326836735322
Cu 10.739804226791016 12.75034005123895 11.9305959705278
Cu 11.722723890744524 8.29306927065669 10.007181020044921
Cu 6.946573965266796 8.36743254029358 10.826666352601642
Cu 7.145934808591411 10.662693413293955 11.742369029152151
Cu 13.568231515921317 9.883825268582399 9.320727904932019
Cu 13.12531844009605 12.308257604892734 8.626273202166233
Cu 10.890105518391971 12.818837942921785 9.520509305229028
Cu 11.265273913443341 10.46769318919919 8.804048982469977
Cu 12.336309369419329 8.504908449079359 7.621982577142783
Cu 8.835778540891013 9.625168552618135 9.681795772325176
Cu 5.983343942897157 8.926508499889652 8.622981099019103
Cu 10.042875965632279 8.100752678777832 8.174757458547296
Cu 8.82731664935377 12.012593560838509 10.605870593998956
Cu 5.13006469730733 10.003212221963107 10.594994689594829
Cu 12.915393946620371 10.678101978338495 6.882784094169834
Cu 7.825403977037258 7.40010196176375 8.764955483030926
Cu 11.179057088200636 12.326556450678675 7.0951471735849525
Cu 10.418502884691522 9.999036944834817 6.595019250380947
Cu 9.105123331903421 11.600331804119673 8.171840321756257
Cu 6.906635269494083 11.053368689259706 9.289774776608814
Cu 8.060593313226365 9.490505294925319 7.364479665362971
