39
Energy = -113.89838753 eV
Cu 13.60791338254741 14.489903256482549 17.141651985913615
Cu 16.445790040374984 18.266219551593167 16.099762811444158
Cu 15.751492347622417 14.128598672513187 20.839810731512298
Cu 17.491888290431664 18.50138346683969 19.25160908821984
Cu 18.325874924897693 15.635637315981505 13.304551309220328
Cu 17.752296202458254 20.1493629437574 15.086682191915829
Cu 14.319180973634435 17.89692594458454 14.792381436651215
Cu 18.69682744441357 17.673539326191456 17.006285380920307
Cu 14.513200792901552 15.297964440133873 14.86738739016986
Cu 17.273099123456277 14.2550142128518 18.90774548620254
Cu 18.15414229204237 17.913701269599066 14.153353778543787
Cu 16.649626256073308 16.476187008484313 20.421857109336997
Cu 14.895194453519798 15.481857312004513 19.047359872301918
Cu 16.85839559114424 16.472129906202532 17.922466023789838
Cu 18.13608241703762 14.711339000370042 21.100099725870315
Cu 13.954430331311091 18.837967652858115 17.10703127328732
Cu 16.00320179793506 20.00282076093258 17.98179824660081
Cu 18.663628967656205 14.0272243117871 15.147215902234471
Cu 15.012929196336172 13.127582711743234 18.6795435596495
Cu 19.537442113447703 21.470948383821476 16.00372243338839
Cu 16.474545579280637 14.200032036756452 14.077217105594224
Cu 19.918168856442477 18.5510991466426 18.97881523098018
Cu 15.275161973388308 20.321805687532606 15.626399023663172
Cu 12.938150259050618 16.718257718257863 18.405871125807302
Cu 16.081700487030282 14.268550515204243 16.690516417742604
Cu 12.928660658328969 14.255218014838642 19.47078879451042
Cu 18.47061406344801 20.143310659670018 17.709339689576733
Cu 15.094040767526621 17.932422260357367 19.058215129006122
Cu 16.038859092052196 16.62284781501344 13.449450412276533
Cu 19.95056024870497 19.04463668491975 15.37876617246635
Cu 16.084991353910638 19.069087343933575 13.647239611105466
Cu 17.04849621588342 21.812118392829106 16.6566958252287
Cu 18.94868019656276 15.125324198459921 17.253196167659045
Cu 14.72479233609693 16.59959227562797 16.80384827588415
Cu 21.04747412795206 17.473986439580155 17.03501596481375
Cu 18.88232962640019 16.34495842897971 19.359736610869053
Cu 17.30152890242832 16.001970567866344 15.515409873254553
Cu 20.93002414678943 19.973203714180475 17.34874778726774
Cu 19.810964940683352 16.330138144275853 15.187333430888366
