38
Energy = -111.53371545 eV
Cu 8.08925071493805 13.115548007676244 13.708966487724963
Cu 10.21107038163195 13.445723753080554 12.393851075394053
Cu 12.230459287526363 13.409526464377073 10.925024576223365
Cu 8.018409318220856 13.080326024054703 11.275486319199045
Cu 9.825700741053561 11.440751152324315 13.937934298852
Cu 14.073400875713281 12.467052870754816 9.357567735208896
Cu 7.687204284394997 11.066383722832786 14.993148407852418
Cu 12.004819655471481 11.77089894324854 12.81729625150563
Cu 9.98976993736952 13.579554624345281 9.899835240953639
Cu 14.167174640836198 12.038425861634822 11.732460879229938
Cu 11.878153409796319 12.73882441815273 8.515358506038542
Cu 9.846893096324338 11.16633877786843 11.515828945694945
Cu 11.161744372449656 9.500116088958746 13.07893523346997
Cu 7.7490584787579415 13.111122861224844 8.869471705453908
Cu 12.320257849198882 10.993454754868957 10.356818492028431
Cu 8.727218711806842 9.219956999913135 13.675045362382258
Cu 13.460944001637957 9.738191475869316 12.163604345563277
Cu 7.505455402669142 11.05786770039337 12.550230772094341
Cu 9.728743532671622 13.082589721299339 7.505441974811333
Cu 7.66695976951942 11.007355892410862 9.986249331619087
Cu 10.711336029482633 9.049532509057373 10.586890722144823
Cu 14.753137788592591 10.290243082806692 10.091785266374929
Cu 10.13816972599353 11.031766179089894 9.088276577136993
Cu 8.314684165013533 11.059894747837323 7.494910115742864
Cu 10.958865184711005 11.136041527850601 6.787533154681892
Cu 8.290126786873959 9.125644845174065 11.289890382183104
Cu 13.10116044516653 8.562067846047723 9.860982599700387
Cu 13.085610580783197 10.510745036833235 8.06496764250481
Cu 9.970172581291019 7.462403467463812 12.360405291958607
Cu 12.345967576025977 7.610799520202404 11.953865715363694
Cu 7.602505197055878 7.2422705783992996 12.586950218109838
Cu 8.614791533666473 9.014392195670336 8.848594159154162
Cu 11.24092152850605 6.823705897273495 9.859714608303683
Cu 9.58594552123607 9.122547968973432 6.587714478561859
Cu 11.31700518421954 8.76767473766667 8.204937441127978
Cu 8.786344996873629 7.012544156021008 10.269713273964978
Cu 12.234443119824244 9.277286198272032 6.062546692240084
Cu 9.621480562711245 7.006175074086616 7.95381803818995
