38
Energy = -109.42716781 eV
Cu -0.9404773883147134 16.34087047631325 16.439113679432374
Cu 18.650865187942088 12.963846904677736 16.853922140772443
Cu 18.357138859402465 14.401782460780856 14.639147754621826
Cu 13.443738807170194 15.990241392967858 17.886050249752778
Cu 16.759058837029812 17.827696103050375 19.746394150346642
Cu 18.10572418417103 19.37712510348947 15.5999430296442
Cu 16.952726173039128 15.255121168503297 20.11857950343389
Cu 19.06991543311655 17.998051453723846 13.760838974063356
Cu 20.16046129391 16.068524660547446 14.614396913793124
Cu 17.387904765915657 19.5726210228262 13.142969307092319
Cu 13.343796146444669 17.81079687001717 16.137389187193296
Cu 16.771838613230084 17.018239989776887 13.053008013585282
Cu 14.699127277948753 14.328787372226294 19.436958657006617
Cu 19.71243441932281 17.68537240662887 16.475030946620628
Cu 17.2324034992795 14.905442585888933 16.783608007984668
Cu 18.29203315318626 16.592593969258893 18.27587669185661
Cu 15.898896867670727 18.66055764978873 14.765199211424832
Cu 16.25556798371475 13.007574961517465 20.747239801364103
Cu 16.12936825781507 19.956523158007617 18.646600202342842
Cu 16.596339738524815 18.173233712859993 17.077135769534202
Cu 14.566701559140563 16.658469608571192 20.249442366328815
Cu 19.655451565336858 15.168625084728266 16.79189903864616
Cu 14.305997359842168 18.26751727922246 18.391891770115297
Cu 15.174323593261578 18.83682944398902 12.463262165713395
Cu 18.479087660752185 19.073927836391597 18.13138155288676
Cu 18.54642565107063 12.020642869010372 14.6403482179784
Cu 15.808653340218884 16.139529527699956 18.270569541454886
Cu 13.647096576629458 19.381325083115772 14.311667961085638
Cu 14.345128035321125 16.952657564814697 13.779870217233437
Cu 14.844813154746522 14.168136341742063 16.862564936778597
Cu 13.279770706670801 15.405480814902791 15.404687134308109
Cu 16.683632435444185 13.2336504154246 18.397821326207463
Cu 14.736383902214076 19.819815763436836 16.54443795424424
Cu 15.33455374980347 16.454531959083035 15.962817291973415
Cu 16.53542718175299 12.896035518624183 15.630397561769772
Cu 15.908154459942988 14.923210159623832 14.249139234277763
Cu 17.732886157061344 16.725857150776328 15.291078182950116
Cu 14.875080478713395 19.061899685676288 20.613832983957042
