35
Energy = -102.09417521 eV
Cu 12.35612126511455 11.946404361309927 10.480426250836539
Cu 11.87248703310189 9.749195354141964 11.500929760409617
Cu 12.956787315972612 9.855644996762608 9.33808128438547
Cu 10.331668183557655 11.70080300799881 11.705639907129859
Cu 12.101458409069258 11.890157690391792 8.121774343668774
Cu 10.140952670471107 12.709141736625552 9.404103903344078
Cu 10.059831142272062 9.587494159497645 13.057190297963091
Cu 12.036220412261224 7.637270641354448 10.308257901505668
Cu 8.52466442023192 11.39718969515158 13.263217313304418
Cu 10.411391514988233 10.28989058511551 9.399479072503368
Cu 9.77970278080117 8.33386593123436 11.01342427884032
Cu 11.799639595304324 9.725491940783765 7.136657140739308
Cu 13.050582775124331 7.851734852368052 8.020564499984904
Cu 8.166922906372076 12.758616701426217 10.997587733549343
Cu 9.946171946095799 11.40059180559596 7.152169210918747
Cu 8.354251531077624 10.403701586272987 10.94474732894984
Cu 6.373982064320298 10.980991345793987 12.399550471646348
Cu 11.845014665334805 5.8565234299041 8.608890731991501
Cu 7.774007816467985 8.826105435151051 12.650831472047114
Cu 10.482726586873499 7.965776748032735 8.466558845705988
Cu 11.275417202082778 7.431915900243084 6.270423951034854
Cu 9.745735254518099 6.152751174582921 9.90638748413814
Cu 8.083506669703832 11.544374085783472 8.691417210026707
Cu 10.038011083741532 9.5484786175176 5.538480810534875
Cu 6.137451344017446 11.637820323655554 10.096372658207683
Cu 8.216904944505801 8.885906893913406 8.930965609702124
Cu 7.623372716215612 7.190881250599643 10.762390551362127
Cu 6.1829689487745005 9.232114755931343 10.75340542307589
Cu 9.804774551180468 5.697503235684781 7.3950758179558544
Cu 7.945744234310879 10.072647211442241 6.701354381604306
Cu 8.826547668174893 7.736950428035479 6.520121215924194
Cu 6.074428423523549 9.975040609594837 8.346056925548348
Cu 7.768336190275599 6.451341974826327 8.400122607989712
Cu 5.762614880387699 7.5665903001799375 9.124966227916502
Cu 6.5033104591496445 8.070692427293146 6.90214188153871
