39
Energy = -114.62962877 eV
Cu 9.541499696854158 7.182545806302219 7.750600997831007
Cu 11.65142556039665 8.060888355931436 8.598189825027179
Cu 10.398790914146973 11.867669103162767 6.793016626130462
Cu 9.94368946454851 9.561204869461388 7.53882795047839
Cu 12.606787009629254 12.749687562946441 7.423703009883639
Cu 14.181026089469492 11.459750424953688 8.880227070449367
Cu 15.707972849703182 10.181249752886888 10.324038321898058
Cu 13.756521769882943 9.046498305032463 9.403679686439085
Cu 12.158443173721427 10.428459355194859 8.00886113933201
Cu 9.992686408093673 6.804939713832563 10.108288156363894
Cu 7.8288650711025936 8.774649517985702 8.477985954982156
Cu 8.114155248418308 11.168686726929215 7.594272020453439
Cu 8.574057220120173 13.468727380910185 6.8348702608248715
Cu 10.533308303309218 13.865023829374602 8.280299193847616
Cu 12.056563129682472 7.98856271038227 10.989094896456507
Cu 10.00769020332968 9.26275804121341 10.079407582297359
Cu 12.366103613459467 12.924073954153144 9.778112532828699
Cu 10.225581427852763 11.553419776094719 9.210654682004144
Cu 13.954855613096791 9.385492220529045 11.833353735622879
Cu 7.930824625314903 10.70478051238852 9.982322315765131
Cu 10.142914863250663 13.561534280305825 10.70744896795063
Cu 9.90689197183064 8.022955011652755 12.234427301328193
Cu 14.151768224684409 11.811493708646417 11.272466396798546
Cu 9.954762253775858 11.171776942806968 11.780409338706
Cu 7.765654596327432 6.370439679751796 9.15134226695401
Cu 11.689823446222453 9.564998909014427 12.864656881878004
Cu 12.11341526620444 10.539116934437672 10.56546971695956
Cu 8.252084296335758 13.102985055395433 9.191143832198515
Cu 7.868457501749566 8.093091002963686 10.834743292782573
Cu 9.868637510377253 13.485222031763792 13.079003288039871
Cu 13.380751576779423 11.142660166883077 13.502096539805242
Cu 7.786734049762827 7.899417094789541 13.307424404750215
Cu 11.985946864235306 12.607205816406829 12.168886817737523
Cu 7.994542116351493 12.594776457692399 11.603650591362266
Cu 7.787189326118545 10.063311602936224 12.288054885970144
Cu 10.984747609725389 11.560119224930178 14.167489890453405
Cu 8.421483294386883 11.774544123254763 13.889264642443361
Cu 9.418109172475289 11.10441202023529 15.936581502394308
Cu 9.482105128021113 9.577738477214345 14.05249994331918
