31
Energy = -87.23641077 eV
Cu 7.454047668521104 9.727940539602487 11.065857311830491
Cu 10.726522084496203 10.725745303238465 13.305321965912587
Cu 8.453463493982166 8.013660779348868 7.432840586621079
Cu 7.917460669288928 11.555411223055103 9.402765256314108
Cu 13.262836312361834 11.67512496150503 10.115701474063902
Cu 11.401410967807077 7.921633013711357 10.17553097448896
Cu 8.335013423415514 9.89614952100836 13.359435492521419
Cu 13.139372971495217 14.009064710390088 10.660329932255973
Cu 10.29818939681345 11.567662246104462 9.102534317056183
Cu 9.810945693243754 8.76698376214611 11.910409254564486
Cu 12.650824750478748 9.635243053535433 8.924780372506204
Cu 11.600302345313457 10.215207757507653 11.045398060665798
Cu 9.339684021733563 11.192399181649174 11.37335921765024
Cu 13.058602483591459 9.321428505510617 6.575383565004644
Cu 10.886552406028164 8.602318057422224 7.547703713369388
Cu 12.180234699745434 11.874427574638911 14.764041942884266
Cu 9.902161823810784 6.672973886312172 8.780244610200823
Cu 13.72753102544272 11.425476472192836 7.713128125379419
Cu 6.96882139760755 9.555541799081734 8.554913047491528
Cu 12.114816895481724 13.091014807225546 8.554773638906592
Cu 11.441837744536326 11.028287373614198 7.091377645213336
Cu 7.626310748004624 7.659636118571151 12.252988482926245
Cu 5.610058116847944 8.402548311397325 10.272029846524513
Cu 11.094579110831981 12.847546303552777 10.920373695209074
Cu 6.121850904047091 7.401729823067665 8.032224558786524
Cu 5.5954077032182745 10.872612541209978 10.035080054073223
Cu 9.473214212030323 9.270697698578507 9.479962494999553
Cu 7.7856183440415965 7.407481380722902 9.8143396263737
Cu 12.69502919068376 12.02123716937951 12.468631252771374
Cu 9.58385461339084 6.496172429110247 11.19709675613947
Cu 9.020952755233063 10.424151669133316 7.3489507008197235
