38
Energy = -111.22354585 eV
Cu 6.9812673048913645 12.079000679800659 11.171574210127075
Cu 9.892389540182077 10.06653171344546 14.526673606717175
Cu 8.355156513146346 11.083531090621953 12.95156150730375
Cu 9.35016023318115 12.423775567826553 11.14882598506232
Cu 11.086083836399592 13.929759107030865 11.897524870944787
Cu 10.979370152635193 11.539948967884698 12.914472665997105
Cu 13.228387072654542 12.751780095534976 12.329717759336441
Cu 8.047051658327756 13.100917461020886 9.130742349541519
Cu 10.452359288429085 13.764469395687126 9.410626511791518
Cu 10.209855661239192 7.677499471570135 14.64673795460192
Cu 12.806332837296054 14.084376045322959 10.081005407539717
Cu 11.59985307371502 9.10498652953932 13.138228077807259
Cu 13.150322098132133 10.331724010325594 11.730725639441237
Cu 7.131395490047593 9.659109205923395 11.316858534471933
Cu 8.491959895514377 8.600245293315565 13.14076849061491
Cu 6.073634623589259 10.790710646824348 9.322543200339531
Cu 8.48906584150361 10.714650053885805 9.45362005551487
Cu 9.859708148576567 9.828198971582653 11.367581946958262
Cu 11.73382772752241 11.96601410763345 10.643917294033539
Cu 10.84518017272406 10.372893395520425 9.13425180804372
Cu 14.149874833983288 12.077764626032321 10.12968801618745
Cu 8.432506746759083 7.663908586831631 10.871166091280722
Cu 11.880125167711363 8.486145429786076 10.688265601632772
Cu 7.427861194745736 11.396110091509884 7.396439850594569
Cu 9.881296198175175 12.16625797236193 7.6766490443149715
Cu 12.325783826052502 12.337304748313125 8.325029713290846
Cu 13.227463980032624 10.053991410558904 9.197852068292653
Cu 7.322632963154859 8.708579627641152 8.73345742023374
Cu 9.725258584354796 8.29594319395071 8.885230314049815
Cu 10.357009783274796 7.221357184534333 12.280403048953572
Cu 8.3784359001081 6.31201779888375 8.86955026675691
Cu 9.286384174086633 9.903912200166898 7.05345437980941
Cu 11.784899227196394 10.322525793942786 6.972238490670125
Cu 12.100197073679881 8.08391692798586 8.266822596672087
Cu 10.684127912150954 6.420907678553664 10.01279276971185
Cu 10.840513154243698 8.213967682224151 6.174417634111917
Cu 8.532971842577592 7.612710333237054 6.797798278175859
Cu 10.500431151653364 6.270006043323414 7.575478660082178
