37
Energy = -108.10874421 eV
Cu 9.476589192968222 8.291635374590333 13.744375342527151
Cu 9.4778058017525 6.722058032450939 11.713539107433002
Cu 11.259170869604098 8.399307058869155 12.082155894805329
Cu 7.46535934614571 7.441071049536927 12.795159373839562
Cu 11.665408252298361 6.185282970528321 11.022503789173376
Cu 10.25195470016979 10.439918271671145 13.067622584820786
Cu 9.60814449503387 6.1042871349983026 9.292853697564123
Cu 7.606641445315384 9.950920479681015 13.164223667353513
Cu 7.505044354602308 7.0219265849240875 10.298473291504978
Cu 8.694976207119451 9.027939057072448 11.250828694522799
Cu 12.028332518936566 6.2385796119460535 8.69915727639174
Cu 12.614962600285049 10.335278682405765 11.662142270021862
Cu 10.668745490454183 8.25801309150155 9.666046261497094
Cu 13.065872196325675 8.052984464171303 10.324136437136438
Cu 10.41017394449958 10.71288806471328 10.693681966460295
Cu 5.900586666066555 8.65738633361002 11.550697264086972
Cu 8.641025218778346 11.886936696040387 11.933499419287116
Cu 10.453012743885932 7.46433358971296 7.298850504350108
Cu 12.408345724355359 10.102312259565975 9.254960181128649
Cu 12.813770714449786 8.269795140573445 7.801367993640593
Cu 6.407127942374525 8.882321342727574 9.23864737035988
Cu 8.067564815437494 7.5217396742540075 7.918995776043536
Cu 12.325396149432907 12.343432661182435 10.08910925738393
Cu 8.824589220441437 9.720960183346431 8.805391986545455
Cu 6.7328281904059635 10.771439103316686 10.915063961941641
Cu 8.188608817976553 12.111045025196688 9.557467866357264
Cu 11.153034300062618 9.86093338561929 7.099118922550886
Cu 10.429676342645575 11.68414320088865 8.533588651027902
Cu 12.660297740406154 11.813812153192721 7.567298646369028
Cu 6.837663579047602 9.481160413788963 6.960692664405127
Cu 10.08674454205008 13.320336948147608 10.352156477374141
Cu 6.253889393335638 11.21031225820322 8.525793774118483
Cu 9.062993401045915 9.162335798427895 6.218165906167332
Cu 11.507678219008056 13.868308865557598 8.289429964748322
Cu 8.325057069779627 11.428182088258074 7.078465668036501
Cu 9.124132113099593 13.642575862343907 7.911418040120555
Cu 10.541762606510858 12.22016642516365 6.2574900883397415
