31
Energy = -88.25680231 eV
Cu 14.263626353694375 11.334100957038476 17.318049614427526
Cu 11.840835072228295 11.017724688321287 16.749288568983687
Cu 13.539287026926909 14.14485753658638 9.25770201501608
Cu 8.710814799748345 11.649058585959404 11.53894444927745
Cu 13.201446288144645 12.909355624161917 15.74818481971432
Cu 15.025301182456639 11.080036702767122 15.009880244287412
Cu 10.269997988653387 10.624214517777371 13.38446646517739
Cu 14.43834153937706 10.610743999800667 12.621050217838645
Cu 9.144902811758017 13.98662142516547 10.698210440425193
Cu 11.572182068774058 13.10014432260156 7.8952962752108675
Cu 13.725640884359258 11.803148257684228 8.557843215122295
Cu 12.000326026447196 12.478654425024825 10.145659673697597
Cu 11.234767899730638 14.814536280689769 9.77134019373236
Cu 10.719397777160008 15.349869528590824 12.09502497012475
Cu 10.17517914006284 13.104462600993068 12.740877220438794
Cu 13.549648858304762 9.30298559154405 16.323772429782405
Cu 9.421512884905962 14.197771262537223 8.234483106088915
Cu 12.851271353568023 14.283191766653804 11.645080016989889
Cu 9.679965982287039 12.053742559340813 9.315750857328577
Cu 12.195233673106488 9.318364069808057 12.557463651845707
Cu 11.43024833959578 8.954414918037019 14.933492589893968
Cu 14.370532536421647 12.458203542521703 10.964534639684587
Cu 13.983555631188676 8.70796942579987 14.051528946089226
Cu 12.091059527156762 14.173156625612494 13.930227355451791
Cu 10.719485257765504 10.483382872366207 10.947260601422366
Cu 13.179273829041282 10.301900686759126 10.506239423754407
Cu 14.217959216684724 12.929556793512408 13.477147733272945
Cu 11.556087955051478 10.647253836186458 8.588358884798227
Cu 12.267484669798902 11.915044848462859 12.436543037796694
Cu 10.880683071588171 12.379563974021382 14.999550265048367
Cu 12.729973788272671 10.830756913050113 14.528931761501395
