37
Energy = -108.0097033 eV
Cu 9.280649258596203 9.439057813820815 13.82648911972148
Cu 8.4235663233535 8.734530200730061 11.753973251143064
Cu 7.273604235426421 7.812041750642455 9.82218210066665
Cu 8.461731859503827 6.169653319437949 8.409064369692066
Cu 9.60738620603051 7.060003502805064 10.379908755943626
Cu 10.831829829708132 8.124529805098135 12.316291774609732
Cu 10.798819394037004 5.528670436397486 8.861555350758122
Cu 11.642740952859885 9.813431148825552 13.929116049803714
Cu 8.191613042834101 11.187736644159683 12.405825189823117
Cu 6.920284537816013 10.198113337800212 10.469801594094852
Cu 10.001467986528317 11.716899120182616 14.016376213633079
Cu 5.788210266463061 9.246774930607005 8.49117509083894
Cu 11.990496986748235 6.568609024134875 10.775682575985998
Cu 10.474439670357066 10.511964726292534 11.665796477136933
Cu 9.18343471751381 9.439547399190078 9.477455691865444
Cu 7.93189735826417 8.425518527847778 7.5278415227087585
Cu 6.789089379111418 12.595637473208788 10.958266387816403
Cu 5.589685086455414 11.637682028402049 9.006480599574303
Cu 7.47965702092377 13.186493570097827 8.643130014603813
Cu 12.20190218643972 11.990383230845953 13.122683691680196
Cu 11.526175566732883 8.829886638340309 9.972917511240347
Cu 10.279025912311223 7.7215459590027065 7.893006693858171
Cu 7.623985289983975 10.8257830083276 7.956389827276726
Cu 8.90657041808125 11.866838962170076 10.07200177193674
Cu 12.882384635267526 9.928772228826292 11.801062006586667
Cu 12.597470245757943 7.128037922773457 8.423208397394353
Cu 10.17938839652688 12.943882570389729 11.890609630590149
Cu 11.035576369943314 11.07071862466689 8.994965970363502
Cu 9.770058835364441 9.973839714340945 7.014640874210514
Cu 13.813305131055484 8.223423584513286 10.270384721123865
Cu 12.344372554481396 12.227923119781991 10.779831392598291
Cu 12.148827233221253 9.337832351652294 7.529296314771324
Cu 9.508844075217862 12.394757299235447 7.574099436611514
Cu 13.418698292281574 10.481614452353123 9.395558903184607
Cu 10.664868160957354 13.499427940858453 9.488020750227776
Cu 11.605548005339717 11.524023960330624 6.614161408385884
Cu 12.782652455747282 12.676505077153319 8.439928012657402
