48
Energy = -143.94160029 eV
Cu 13.401091889350626 12.290946602190285 8.214595139106269
Cu 14.60457134074592 10.283553624648203 9.245287761728418
Cu 11.216636778114218 12.639912493873581 7.062901082345038
Cu 12.357866893704509 10.408817522945919 7.134898674284806
Cu 13.709153637673309 12.197707220210637 10.609884182834746
Cu 12.446350972834763 13.999737470513406 11.60652728439138
Cu 14.59517079954898 10.316523621353966 11.869637215144953
Cu 11.515822604742175 13.192424486007969 9.49528825243872
Cu 13.283327678122914 12.071179687857729 13.01442219383032
Cu 10.128094568695436 10.481014015659385 6.206716487804535
Cu 13.813617829550019 8.418297361812426 10.617710180254724
Cu 12.27962003399914 10.466194299000232 9.602120139208434
Cu 13.065854064789779 8.375397152439891 8.267885851488936
Cu 9.04150360017493 13.461125248267177 9.162554265100518
Cu 8.751251906978084 12.405853536607234 6.835494166378092
Cu 13.455310802076317 9.659561303460286 14.001970431814122
Cu 10.024689354725568 11.284696782863028 8.61610282334972
Cu 11.189933656099436 13.468701828694641 13.565316190215977
Cu 11.145965787569134 11.886323225462416 11.614468995383147
Cu 11.55185219291048 8.214989408051492 6.1995449675966015
Cu 9.91761235164094 14.05536124115282 11.347957904576221
Cu 12.643551562794576 7.438739488050683 12.579038089446792
Cu 12.130352693992956 9.695517217360596 12.068484452698508
Cu 11.453549962624063 11.121608367212767 14.197678683556326
Cu 11.083427785031274 8.659965308368633 14.178453984817414
Cu 9.094989363190448 8.322005369318582 5.884279209329068
Cu 11.588012701155865 7.615822400065793 10.142285842852145
Cu 8.701227523639151 11.462728597482762 10.788512021130433
Cu 7.7062460850999805 10.191710429390104 6.681594915804629
Cu 10.574016773959125 8.891170977346123 8.223236858853022
Cu 9.659778773076193 10.214667523673464 12.901685491212714
Cu 9.927173950697318 6.731044640315546 7.510996978637814
Cu 9.000355361476394 12.582325926508213 13.047291460601661
Cu 8.214402611799423 9.641907109914897 9.04943714310384
Cu 10.137604456368646 7.698985739387329 12.142577419822755
Cu 10.247210114546478 9.645458524217212 10.502607316789883
Cu 7.599351049582311 7.754454910745336 7.6797964611068705
Cu 7.396773702370487 13.30073671829822 11.1436597819957
Cu 7.217237495970596 11.826506049704717 8.693851432898988
Cu 8.119927114416814 9.043142805949262 11.448593949103959
Cu 9.076451407510062 7.396634416023096 9.785293019585016
Cu 8.383447334093637 8.300911017106419 13.749489282651837
Cu 7.235618659498501 10.918577557813931 12.75060149290658
Cu 6.539619925139829 7.913966210192035 9.953442038975412
Cu 5.926072451511218 9.639828092872174 8.232118045609244
Cu 7.71425728195622 6.747554309406271 11.863365820523056
Cu 6.271608441457304 10.442739707841293 10.543188463512662
Cu 6.034952276115327 8.634534471613525 12.371576412094024
