41
Energy = -120.01674387 eV
Cu 14.892380019915482 10.052339826926781 9.548334172188552
Cu 12.464667255889587 9.83798193263243 9.102522607451347
Cu 11.28670808144624 11.76448521183968 10.016625099070005
Cu 13.559752390275172 12.234377821557233 9.209268849209932
Cu 11.672483692779124 14.110249629476206 9.716364226810768
Cu 15.487897950658878 11.984023529337748 10.90181840158101
Cu 10.204472272220487 9.625090556088924 10.141150077578047
Cu 13.804504500873476 7.830561164213125 9.531363808533161
Cu 9.183813108692684 11.695586970993789 11.31831583536507
Cu 14.556107213237242 8.775424546021297 11.644916924272257
Cu 12.169648744848065 8.558348054729851 11.198568738458997
Cu 11.063992113307302 10.4609529141633 12.241310888726114
Cu 13.33905745754881 10.899673959402465 11.254458216126313
Cu 12.154509613110235 15.724012492775243 11.515425995746162
Cu 13.496027729177463 13.598210582646024 11.238635017750795
Cu 16.01742569999035 14.245985584114232 11.41667708968504
Cu 9.788095017886842 15.219070128960869 11.13874707076893
Cu 10.594187774864439 17.41795540129399 12.216930096964882
Cu 15.206448366565695 10.706899245631334 12.983562471980111
Cu 14.469041066818182 15.688268533175641 12.57327368423188
Cu 11.001339980325625 13.233279103909048 11.980631123850506
Cu 16.553731398094165 14.740161492999746 13.767120253988471
Cu 12.997612769124123 9.531882183658583 13.4705665786514
Cu 12.49198829477173 16.83989851791019 13.77723834107376
Cu 12.646294979433037 14.369316009620116 13.509865178247011
Cu 16.999060146116307 12.431805912085755 12.91371017603009
Cu 9.548315166649546 11.4610254260365 13.751227840440169
Cu 10.436290894259841 15.430202575217676 13.492358906942977
Cu 8.82648464345866 13.64911083834551 12.925288278293806
Cu 12.693001311002913 11.948864378784464 13.319781391301241
Cu 14.777843156540373 13.187310359254646 13.289059264368838
Cu 15.818751874584288 12.859115728167524 15.360674171406494
Cu 9.458638362377602 11.836587190064147 16.120857564309894
Cu 11.614000166593874 11.01547145831182 15.252349211771392
Cu 14.490978787652654 15.180061086522917 15.020290467696274
Cu 13.497284808167986 17.151107032221088 15.94003434326818
Cu 10.71596195403435 13.356403869068188 14.702572153980599
Cu 12.02912121838577 15.23116631391457 15.718153973336092
Cu 13.312035340096122 13.076380876518169 15.545038084565462
Cu 14.187872159723828 10.912750467677993 15.162026763313202
Cu 11.396292075457687 13.032720650687933 16.977006217621422
