48
Energy = -143.13187096 eV
Cu 9.421829720278843 9.930858546911333 4.69024472493239
Cu 8.33646543114829 7.767625681462747 5.0816553714099735
Cu 7.019195014437458 9.809033773568187 5.575298299998783
Cu 8.463193514272799 11.67728109128769 6.33388555265494
Cu 11.161150403495052 10.425385638676467 6.427122270177551
Cu 10.794972378819514 8.046163599968933 5.857168855911868
Cu 11.447899957704697 12.769567948981354 7.432171525144624
Cu 9.62018503768306 4.5425679358560975 7.842812940859016
Cu 8.951643603267437 9.275525065639979 6.922027145929238
Cu 12.934755740971678 8.473404703588141 7.29198942882757
Cu 9.193789994556303 13.69538740147382 7.544609420412413
Cu 7.3012202521227065 5.226194803436308 7.759022831859995
Cu 6.839497719611928 7.874420546731376 7.179889029388812
Cu 7.300182909232235 12.625724436075037 8.577282886637645
Cu 10.955168821420196 14.755291420108042 8.822883278410671
Cu 9.050728834954485 6.832912371841632 7.214076130919557
Cu 11.121519810992975 4.446388644192699 9.663265232331238
Cu 12.399730987158037 10.782158835994277 8.499690051238062
Cu 10.93553399357145 8.563155868153308 8.405231605481648
Cu 9.753992919008988 11.211402430711939 8.285006616030056
Cu 7.04312230667194 10.275156506305219 8.061574022901382
Cu 11.472428027998422 6.23967533352725 7.492065490297274
Cu 8.520310505210361 4.79648140965895 10.069628833228059
Cu 11.430170265435217 12.649044406505062 9.911692849671873
Cu 7.188991208213917 6.900002746835962 9.418583509308116
Cu 5.411325522546135 8.739152278405115 9.057930814950863
Cu 8.778610956096557 8.80645518997107 9.370444400994135
Cu 9.931109438033202 6.548925352291808 9.453659576117715
Cu 12.379076606440977 6.580435517005882 9.720823060218345
Cu 12.929047669816516 8.918153390315519 9.938363711552002
Cu 9.182364449814395 13.516446780530575 9.976766323342368
Cu 10.767689886391162 10.31585652334881 10.304411505805202
Cu 8.27059797541631 11.105630200855048 10.184022978065952
Cu 5.845757397551923 11.038400535953148 10.132495874025834
Cu 6.863124250542018 8.87488434959488 10.903634955368076
Cu 11.004839749699691 7.995899238222835 11.181210123799922
Cu 12.899206404855613 11.0790293801522 11.084333368878415
Cu 8.50016788687115 7.048432656501869 11.474250227271934
Cu 7.114166362681109 13.01941203818511 11.0958997396755
Cu 10.492022105636808 5.676891182015083 11.691449723912497
Cu 9.071142364862448 9.452603997748348 11.808317130019095
Cu 5.028242202278586 9.727892637840192 12.061486833837831
Cu 9.672491619779205 11.925013420410401 11.974726778820521
Cu 7.158797514274836 10.928527755736136 12.436191941357857
Cu 11.27432070259842 10.00841581985201 12.692794310601965
Cu 7.393814649679778 8.59971326514512 13.313529436477953
Cu 9.863000155804393 7.838351584317088 13.390521414643896
Cu 9.13441368126866 10.287674669288046 14.016866777477848
