41
Energy = -119.54049987 eV
Cu 15.727253057720384 9.948887517439678 8.77772430826806
Cu 14.863351398506433 11.387012140725822 10.469764690302652
Cu 14.185995421065023 10.477614218251459 12.779417306053414
Cu 13.528509231075265 7.991767336083749 12.565415447736049
Cu 14.661751063485136 9.000614988179587 10.75291118109996
Cu 13.359033876925794 9.966980739536341 8.945784153262784
Cu 11.984745213918147 11.083151714462014 7.2381480833248375
Cu 13.230026601609438 12.579889769395738 9.046378123115858
Cu 11.245831873080963 13.668917729224262 10.394787925270375
Cu 11.359941603358513 11.22497396829847 9.627774996254356
Cu 12.461254859409792 7.940716881112253 10.268690337893696
Cu 10.872943380365728 13.118723615168205 8.077986078605868
Cu 12.16119761312393 9.08767307065755 14.208167545352248
Cu 12.157329198373759 9.919773818207386 11.723088246277904
Cu 12.027995443966896 11.522005828097138 13.757257181164675
Cu 11.090284660012406 8.970895186153616 8.590670261265581
Cu 12.965000666630162 12.324006356134385 11.55096197618908
Cu 11.082158301932424 7.758886020855791 12.315464941839243
Cu 9.869091487334462 9.611218683086568 10.754491261337687
Cu 9.628887551530589 10.737825503460162 7.6270481817630955
Cu 10.155852458493568 12.447304941806635 5.924789710326741
Cu 8.200191721217237 11.099430800789241 12.218699476048508
Cu 11.233044701244266 8.34516879814598 16.289218506062394
Cu 10.57767729398136 10.520812045379738 15.51980074848384
Cu 9.15277898724557 14.369868170266118 9.358853629926928
Cu 7.247794248525095 10.78919039580377 8.430220318540732
Cu 9.396782620872886 6.1027755867412035 12.498814788983374
Cu 10.558190221749603 11.890892096037295 11.860731660008643
Cu 9.476417934306241 14.763450250732042 6.877892340759962
Cu 8.669799314785957 8.781324272292043 8.721429569698703
Cu 8.969359720711891 11.75703523150737 9.866087314286624
Cu 9.871479511637371 7.775792038219095 14.38374278932213
Cu 9.930429629267493 7.2262936838798035 10.257322162546537
Cu 7.326613817666889 9.633694502960028 10.541686878340169
Cu 8.762721219520394 13.456409172863063 11.631731162774967
Cu 9.531508604609941 12.237944319448795 14.005572264162032
Cu 8.307742796982357 12.80805236014516 7.557244537594862
Cu 10.029913691122308 9.941814983397258 13.285774641746345
Cu 7.032386614932962 13.108581135875571 9.669002681180075
Cu 7.282877022158553 14.96560635981996 7.981332222657123
Cu 8.49110858720344 8.324276991019582 12.315373591832506
