45
Energy = -132.77983479 eV
Cu 12.001801090901832 11.021723631733957 5.3910238813315265
Cu 12.911201708418503 12.303191696956342 7.258737263410341
Cu 10.558681682126002 11.414815077236257 7.276025686698329
Cu 10.65171531060725 9.153344365972506 6.3144401982450615
Cu 12.671957315309566 9.87031435232127 7.440253519536146
Cu 11.12836879264795 13.388587777644371 8.581835287731572
Cu 14.67762206067512 12.4369026230034 10.828771726722955
Cu 13.390342247808265 13.706107325725844 9.236746795512698
Cu 10.59522882888213 9.426896583063556 8.770158651343776
Cu 8.804039225591831 12.997500226037014 8.161354885979238
Cu 11.59640261153939 15.25097495545684 10.055263001543159
Cu 15.034126813355613 13.576352896305224 13.010389401574223
Cu 12.762583747110128 11.2759905008766 9.533895431145
Cu 12.900588686201914 8.798752044060894 9.605271564707575
Cu 14.201567060989438 9.966529345450118 11.22238049415802
Cu 9.943015176705678 11.528878773373327 9.674900991354765
Cu 9.482298377690004 13.918108682170613 10.415042116878217
Cu 11.747058583602936 7.537433865466883 7.873479203463917
Cu 10.891328227822457 14.964241031213495 12.356712062417985
Cu 13.175315534057285 11.663954369776485 12.571195542853701
Cu 13.451058456648111 14.612834831039178 11.484212102578864
Cu 9.21641014169073 9.401703708925808 10.82214276319026
Cu 10.928126976901977 7.534090096147282 10.22814607131086
Cu 14.336043153458899 14.522317430203202 15.183679645229628
Cu 11.633936002010485 12.904648238499501 11.159732365864627
Cu 12.609187321234812 13.794869974149773 13.625506920631102
Cu 9.268545541602407 11.8793394482652 11.904612324667196
Cu 14.220365890969097 12.057994378312234 14.78372504222764
Cu 11.36523274192088 10.310489287301749 11.455599654832538
Cu 15.568020184494143 11.188661347515763 12.84771699417259
Cu 12.052789190764493 15.546707273369547 15.18049485962926
Cu 8.638119398668644 14.034843871922794 12.744010380827369
Cu 13.854223540769489 9.652231709443011 13.751304814392308
Cu 12.628910826115671 8.184853568050682 12.010300139682828
Cu 10.227661558733605 14.038204868825026 14.557201431499283
Cu 9.230303686693352 9.86367034214025 13.205729814846183
Cu 10.186718886548721 7.776300556503248 12.475195740853996
Cu 12.300066586089915 10.76673307464752 15.599502507711144
Cu 11.030937873833828 11.692987951788139 13.728142193482947
Cu 12.444434362501735 13.24223775644749 16.0335670528067
Cu 8.676687626746903 12.061583216760264 14.314244654265606
Cu 11.51113277586429 9.136621809574127 13.948014199283351
Cu 10.546608949295958 14.554696098665563 16.875790083516204
Cu 10.279298918722386 12.233481447507446 16.243063027753767
Cu 9.90636669220385 10.04372795667778 15.496917874663081
