42
Energy = -124.15538715 eV
Cu 6.829614699042996 8.42534696573619 3.7279073764883734
Cu 5.323836359548768 9.51651785452223 5.483106647797865
Cu 9.225875754488692 9.023082110604841 4.292642463423116
Cu 8.157802592132985 6.5434222255049805 4.878990670446726
Cu 7.496035268488368 10.881637416109323 4.890772331415179
Cu 7.057567218764836 4.664080279657045 6.42521952692618
Cu 5.8037707265701295 6.896363253384341 5.692714277198808
Cu 9.575636590233756 5.34011309164811 6.927784921506665
Cu 9.761895802714294 7.809949958204389 6.3427718930439205
Cu 11.689780561665426 9.33129032847676 6.401614134631019
Cu 7.493314668464458 8.73089695749484 5.926094463452561
Cu 5.737402923341504 8.431290073955427 7.686689068799389
Cu 9.425732776174089 10.398962843313887 6.436820292039248
Cu 11.702208958163917 6.931586843863525 7.299613736562389
Cu 7.681504118885528 6.713903196616868 7.268732397644823
Cu 8.238338696387709 12.510089178454134 6.627908582168243
Cu 4.682640468414102 10.347825475114002 8.841041877173966
Cu 8.392392023311048 8.857451849309372 8.12408020569889
Cu 11.111434805053843 11.356479845139681 7.982824484476746
Cu 6.692301119737519 10.756070886140623 7.287327234025324
Cu 10.69180373103442 9.114334089260227 8.563153597446869
Cu 5.565972620020669 5.995789370082214 8.194263486342956
Cu 6.472284627498236 12.054766947460061 9.508445204673885
Cu 12.03172017784474 6.547147091895941 9.634048972620674
Cu 11.814035949194352 8.804281198823361 10.657723231569511
Cu 8.718305363741896 11.25806430073839 8.760758907623384
Cu 9.667985065905878 6.831371911462794 8.917572552387997
Cu 13.018628576103168 8.631819538394657 8.471585272421748
Cu 6.822641898089604 9.719349335078855 9.613002998140955
Cu 7.8583850969690845 4.905753399971365 8.92547416584834
Cu 7.180457083302644 7.309108024719712 9.535112741459695
Cu 4.9694846514826505 8.076148970715028 10.072200927142589
Cu 5.398322276706742 10.449176799403487 11.291719006102722
Cu 10.416362652295167 10.79563095823321 10.413345661822753
Cu 9.106406058198873 8.708635077151728 10.588546305208489
Cu 10.032829986041243 4.846327587361245 10.236868160202242
Cu 10.564785743583986 6.917663457176436 11.464202518810028
Cu 8.021457072652579 10.90655191992221 11.248888175386215
Cu 6.007708421819284 5.580078129021997 10.66226292042101
Cu 8.270755514359232 6.261358019619449 11.35515977941904
Cu 6.8710271817290804 8.398210725295339 11.705288123688245
Cu 7.89893595788838 3.9014543530090235 11.115102544386342
