42
Energy = -124.26872935 eV
Cu 10.954905240817341 13.233608481472187 7.726323380715521
Cu 12.184064286300616 10.783789350366403 7.0651007505738725
Cu 13.210619331873145 12.810656449688791 8.416114207569152
Cu 7.325542921701068 11.406995709061102 7.78799403399288
Cu 9.721222338479016 11.207971955352297 7.119433281545122
Cu 8.259894525428843 9.110615366432961 7.326783377527608
Cu 11.331219108693803 13.58039008455382 10.238353808362323
Cu 9.009647635246965 12.832383597787222 9.236471111528187
Cu 14.195774045214483 10.499485809665483 8.479287464189389
Cu 13.808532710506066 13.941735503700647 10.61239067423785
Cu 12.893708436103788 8.501466449912337 8.019181076682893
Cu 6.835849073330116 11.57679218097652 10.187914419472419
Cu 15.381499322700781 12.353495873530688 9.64665131406762
Cu 11.223087110200614 11.31543708489282 9.184443762784547
Cu 6.735332232414195 9.220680071185887 9.307167640562174
Cu 13.238462799224475 11.579265382118091 10.493585364070864
Cu 10.603456733229063 9.029113947278834 8.042034399726969
Cu 8.071917354145832 13.173383597612746 11.577546572503712
Cu 8.89265707335385 10.431642547411741 9.253655017072822
Cu 8.861616034855572 7.935488824603452 9.503540366885211
Cu 15.37224108106774 10.13701130402463 10.616404651264917
Cu 10.036609275729989 11.712940020564895 11.356313983076495
Cu 8.210456239058033 9.856998070799502 11.462127691749602
Cu 14.882510630502026 12.078072296224631 12.112519346597866
Cu 10.589963258617361 9.415984625526692 10.68230960213491
Cu 13.119303256711664 9.084183657197066 10.36190001233055
Cu 11.380908577512107 7.375831214296067 9.790444286888253
Cu 12.445162696807452 13.030479630726157 12.44293547814319
Cu 10.144170804392026 13.642265218409985 12.80246486694834
Cu 5.709810221236826 9.640935283849782 11.458282839930524
Cu 6.447979165816833 11.564739973785034 12.592639983076927
Cu 12.055983921890434 10.540679310545302 12.264698402185214
Cu 7.081204415226843 7.662697804535736 11.297251160227686
Cu 9.473396909742457 7.577270082792266 11.860365772443254
Cu 14.150769811639027 9.488780462159157 12.661577342885167
Cu 8.667953569870217 11.597608318663305 13.4509674031081
Cu 13.486330089955642 11.488231700116037 14.057944179774799
Cu 7.326393003105736 9.313919071098358 13.496716704387346
Cu 11.90178546792451 8.069997957253157 12.293802584383078
Cu 11.014833459243784 11.715079865072319 14.090348671607295
Cu 9.973773826664935 9.527620097078362 13.279678672361598
Cu 12.233445951131547 9.41488795410535 14.369077472058187
