48
Energy = -144.49121239 eV
Cu 14.389212496276931 8.247434555816 7.278207447108875
Cu 15.477407821371695 9.768367910521158 8.81255059772719
Cu 14.081831133823092 11.136401126902717 6.789449530405508
Cu 14.486865812951248 11.926085560366344 9.241092371043669
Cu 14.045826306654458 7.895355222004361 9.678464673922855
Cu 12.428548458780922 9.035718343533713 6.179050912676477
Cu 13.426609689548057 7.926624400953768 12.047024253133113
Cu 14.145194620589272 10.117343336561564 10.950462346787246
Cu 12.085678667889075 7.637345843356259 8.198796175148889
Cu 13.079928383898542 9.943944463153066 8.48238672431095
Cu 13.32905276513113 13.740059170931342 10.443274003331952
Cu 13.329322536908105 12.151030282293716 12.287157361483128
Cu 12.561652284050714 12.81732050642114 8.078319734319463
Cu 11.53840442950527 11.188608597580771 6.579776507279104
Cu 12.328213310071447 9.999539322076442 12.76197022553866
Cu 11.877510562807641 6.641689256197202 10.477787252581024
Cu 9.931201641783117 7.822658806115832 9.44470390455534
Cu 10.986924986305626 7.958796501224923 12.448249316285262
Cu 10.148486540868408 8.628735776789998 7.024542247796767
Cu 11.919729815756588 9.066459646203125 10.462175421618323
Cu 12.162873077903607 11.556123578417072 10.134040643399178
Cu 11.665635636902437 13.979953847450696 12.355640574269122
Cu 10.988913444110175 13.796907342897066 9.904683490639421
Cu 10.632742212889049 10.245911861257746 8.725364629447004
Cu 9.559366276339805 6.343574853603513 11.383319049040384
Cu 10.097869504118597 12.791354047583855 7.82202325793642
Cu 9.085641176291581 10.840511895908834 6.819911924678299
Cu 9.933147325750609 9.980646331427193 13.60689134193293
Cu 11.687354184265818 11.871749913823262 14.24095311193655
Cu 10.721321917289538 11.812440712865968 12.045234624811778
Cu 9.229007249686294 13.935558846704547 11.632244920448326
Cu 8.291684850684453 9.500177912027791 8.72452355130186
Cu 9.553067749708495 13.041792720461295 13.954213506752112
Cu 9.572141169442418 9.747230864843061 11.143368001871137
Cu 8.600921726522706 14.148518387688107 9.190952610542894
Cu 7.862166713340811 8.107957657025185 10.855493231705337
Cu 9.31006999743941 11.93800629204789 10.009864601566413
Cu 7.571278462192084 11.94067328992287 8.388305639148653
Cu 8.208614298397348 9.258164537465293 15.131600515962838
Cu 8.718744431649743 7.767717832693486 13.21472228206541
Cu 9.692804196238722 11.246926619096923 15.641157900121115
Cu 7.2729243586034436 13.65574399198771 13.125540993173427
Cu 7.018485017792884 13.023701786566921 10.69445236233599
Cu 8.33376168167411 11.662653208642496 12.266403585753281
Cu 7.0554401044573725 10.50883685063712 10.532058058735219
Cu 7.208700543412474 9.5744879209098 12.871579707642061
Cu 7.538499537024275 11.538404198422258 14.523269058260254
Cu 5.93540064537334 11.640933823091359 12.502925571942404
