40
Energy = -117.34705288 eV
Cu 7.291071289651948 6.808344107316316 4.029330746827679
Cu 8.810853033691425 8.925826731745452 4.0821343746619325
Cu 11.276072853681683 8.939118083120992 5.210607090729361
Cu 9.474891874797608 6.808530230525279 5.230691160898244
Cu 10.18307499089132 11.332600553132854 6.114022864686139
Cu 7.037136799564745 8.434854804937734 5.680857441944447
Cu 5.292037506386552 6.8444208422100035 5.681210636252565
Cu 7.57956595035255 10.814701563662222 6.277007334177135
Cu 7.343368997582481 5.496353142477431 6.135944089987217
Cu 9.343477403048768 9.037818423150892 6.4128829800507186
Cu 5.151067663272147 9.011626196377048 7.201164611257746
Cu 8.523451962543815 12.816336143878889 7.57248685065521
Cu 11.129209168194233 7.296505557538798 7.112188654084462
Cu 9.805439133360535 4.931105665096161 7.1362255274023525
Cu 8.60062076934806 6.927639987507364 7.479562413523235
Cu 11.5167335322538 9.82728017481307 7.723021128314598
Cu 10.89681038139071 12.246805911025453 8.48429419036919
Cu 6.1147493158180515 6.805617661281199 8.002877590842054
Cu 9.18749394575948 10.717676005620635 8.20005605240033
Cu 7.447234389020282 9.013303453862305 7.952686756736744
Cu 5.766519346640723 9.154121709857456 9.625513392505397
Cu 3.9769842584310604 7.745070802990532 9.03085093539064
Cu 9.818890656032208 8.498849179570922 8.821255934434266
Cu 7.88215679748296 5.03768763654226 8.819996321797097
Cu 10.33540016029951 6.209642460485569 9.180639276929682
Cu 10.05070646042011 3.9765930115329384 9.582568847938013
Cu 11.918194761816114 8.00850429964136 9.783544503211372
Cu 6.754958862214253 11.276312731861383 8.700088066806995
Cu 7.8529866774969 7.266644124229768 9.803198342297678
Cu 10.665511724844745 10.315089125707201 10.208465654325575
Cu 4.510709685024736 8.524344211832034 11.457985298020729
Cu 8.166475056799886 9.67172343014033 10.14718523515343
Cu 11.334255935728937 6.005015888039806 11.281162529377914
Cu 8.724435409083133 12.049393029643667 10.170264187407515
Cu 5.687217356071099 6.631140592086884 10.46459819921257
Cu 9.765429975752632 7.986064596334366 11.278702007936088
Cu 8.902853310090313 5.591463301970027 11.138331317239032
Cu 6.4435388572957155 10.845223691483255 11.269588057467056
Cu 7.025556798273085 8.365284163678691 11.81907736984639
Cu 8.912655372263425 10.305165195762847 12.197530449571532
