43
Energy = -126.84693796 eV
Cu 8.399168917659663 10.41972350622681 6.155235269416839
Cu 8.041908014107856 8.634743003102885 4.303524715633395
Cu 10.101780714818313 6.981250329476461 4.396078535631536
Cu 10.481369739821456 9.563826281428938 5.000078751210683
Cu 5.267733028777263 7.927890594221477 4.902285711879484
Cu 5.795508836411692 10.38669540026176 5.636851546646421
Cu 7.718337615357402 6.271584579093104 5.369598313356616
Cu 9.83883544301621 12.055281642349398 7.2353851737706885
Cu 8.359774018634095 9.015353796804067 8.25998995166295
Cu 9.285844943670453 8.028331982144135 6.264267048451877
Cu 11.63047965367822 7.600691931391055 6.537717974233396
Cu 6.887632334019723 8.385611607771864 6.433241723529383
Cu 7.1721153994351825 12.329363879284987 7.208099456434252
Cu 9.914633212155067 5.639295909584115 6.685272463261844
Cu 4.527053072642304 8.76123894564192 7.212834814425096
Cu 5.617129707043672 6.3110808032731 7.066203328171642
Cu 4.580507093160036 11.575582760983504 7.474692950100837
Cu 10.687251722922563 9.765490155808699 7.530561555835999
Cu 7.584393399796523 4.420479436474088 7.239556729897605
Cu 6.41022346754957 10.266281614538485 7.989875685389817
Cu 7.966686856950549 6.602525691193833 7.7872653937912855
Cu 10.1676657193129 7.426425799637 8.45932160164044
Cu 6.226037310182623 7.973931111544215 8.82047714380525
Cu 9.31946413602871 5.176125970530484 9.232859821909218
Cu 11.86015248424729 5.948562272827783 9.104686689570034
Cu 6.5619407546455 5.594237678468479 9.49425680868398
Cu 4.235192190788832 6.950307011597123 9.27653030947924
Cu 12.071697438521836 8.595574464747704 9.359323802901214
Cu 8.508236201731611 11.401996300154964 9.11375039330077
Cu 8.183230653017802 7.360341192834443 10.159255228460086
Cu 4.73069661824196 9.642242058047302 9.668671036600573
Cu 6.060958720392186 11.916140844474407 9.587088309214465
Cu 9.805267429418716 9.312154559835621 10.049391973674705
Cu 10.976316638027596 11.275248107600262 9.462817441453408
Cu 11.033779874604773 4.879065031898249 11.12273257328727
Cu 7.187788514819277 9.779029293032442 10.454693787492102
Cu 10.402489489267602 7.124834952301131 11.035125305540332
Cu 5.965681182535399 7.612599568199941 11.150403595707628
Cu 12.723914644507676 6.967196212489706 11.18278428713472
Cu 8.575776942318488 5.4632113712624 11.540848111310774
Cu 11.47936050304615 9.253204436590758 11.700452100322275
Cu 9.264462873037305 11.039020079684914 11.497981975467003
Cu 8.679029859118222 8.65373520062644 12.125437979753006
