45
Energy = -133.61132794 eV
Cu 12.634854774721896 13.673937728422846 11.592968757565703
Cu 14.219350460503568 9.703936692225014 11.825832842170469
Cu 14.090085160658026 11.837212084412402 10.551337367544406
Cu 12.792035256738897 11.523054818230698 12.731849878856979
Cu 10.495394015265997 14.29133110598377 10.332262394095979
Cu 12.326230153697683 12.946069580888993 9.342673641843316
Cu 12.240479635705423 10.268285119402886 10.445596817688266
Cu 13.164649098548276 10.94218171211141 8.269764759330075
Cu 11.034043574413085 13.270416133552176 13.397445436203924
Cu 12.595558862986735 7.909263552209688 11.600305278219823
Cu 12.764670781895754 9.286774831480615 13.837297484766733
Cu 10.416242334740826 13.343277995975637 7.976896168229231
Cu 10.916888644717895 9.723434202807677 12.393798812354369
Cu 13.796652799907042 8.735137643704823 9.542543852258634
Cu 10.771298845144978 12.094337600984003 11.254985372946619
Cu 11.240663289034636 11.120238537250343 14.610678267230409
Cu 8.803676554315102 13.507247642849979 12.09810843144093
Cu 12.62271612974231 12.930074158745212 6.9522819075115665
Cu 11.113950710667583 11.01451514633978 6.606395538923997
Cu 9.342240693861967 12.803970069678808 15.06436416574374
Cu 11.065055217480301 7.497980513199004 13.495523487434028
Cu 11.783621607183488 8.968734617123772 8.052296558971724
Cu 10.498337285659481 11.051308500314793 8.983279884904515
Cu 10.379513818025746 8.535313419966837 10.03381772663311
Cu 10.673971740140043 6.4086210695056005 11.359349360900401
Cu 12.064769349929088 6.902940033723491 9.380399421175682
Cu 9.281017203420545 11.40502399635345 13.178700211050062
Cu 9.556753976201477 9.27014775026318 14.342348805272339
Cu 10.761901881728592 8.533928399545198 5.868711174138285
Cu 7.201379952866432 12.332489513802555 13.746712596345834
Cu 9.041427379442542 10.322789332648057 10.933017665941128
Cu 9.003944868942298 8.04233945925383 12.214092643367211
Cu 8.731459265883153 12.65018578170162 9.70557686397487
Cu 9.102951604348608 10.246505490771819 5.309034033159086
Cu 9.333998827648745 9.456685947021427 7.6338632030529014
Cu 8.69392286987641 11.772349535106846 7.284955926744903
Cu 8.621144712840536 6.847055493042876 10.0675627925283
Cu 9.932106554222607 7.152690126639427 7.947977774232511
Cu 7.147326848696719 11.700094346993607 11.375584390634582
Cu 7.456512043586782 9.834841451523474 12.945969470027675
Cu 7.454953102890839 10.563640029052314 9.07342169786126
Cu 7.173176789756384 8.755431703228616 10.696239251833353
Cu 8.39549052714877 7.90913593068921 6.021535169072296
Cu 7.097444035476649 9.92481859283995 6.698158026719713
Cu 7.458104333671093 8.068104415316983 8.338656298486645
