48
Energy = -143.27289447 eV
Cu 14.400293527275924 7.891321049800367 13.203521195714988
Cu 13.565164944522259 9.400581338906331 14.890652557665748
Cu 14.195734010159843 10.367390577129541 12.63318309985479
Cu 13.958402340176796 8.629184200194139 10.924451935931936
Cu 12.031481843926931 7.288102562401648 14.490665883842054
Cu 12.752963456316529 6.662603283031964 11.93175701170102
Cu 14.404153884406867 11.10523227602115 10.11977649285971
Cu 12.197255212886926 8.940458198187407 12.836645885396898
Cu 12.14770127553729 11.147546928584076 14.021653398885194
Cu 11.203113979360149 9.431816788543504 15.44754326478178
Cu 13.025944616019142 12.441313016876663 12.131153502207068
Cu 10.542707337053988 6.559472625766918 12.70197701014379
Cu 12.248579045353438 10.603068409867252 10.715869841059671
Cu 12.92667080552393 6.811185150413106 9.560317580300074
Cu 12.998986254379172 9.113742500622525 8.761649095630247
Cu 9.720334299634688 8.493457081684449 13.845084844686008
Cu 12.723089415410287 13.119023903139691 9.812784932408313
Cu 10.499537719744941 6.230471298193485 10.250918089478903
Cu 12.766041983669218 11.376045245085027 8.134870351368923
Cu 11.152320266452206 8.436576210079332 10.653093916854406
Cu 10.745213337293722 12.832369880349544 13.09463398341102
Cu 10.360439445324886 10.392740882168665 12.18322904224128
Cu 10.493442501269076 12.380035905186586 10.617842125503206
Cu 11.880341458012024 14.51841612525198 11.66331627804431
Cu 10.848831614742073 12.820058872449476 8.121807528548391
Cu 11.133530691233265 7.641383507761605 8.199342664031539
Cu 8.8045811746534 7.78833662292037 11.607971113049652
Cu 9.539852210482145 10.957156944182481 14.34961259923807
Cu 10.630111920641568 10.159527145864397 8.783173020793066
Cu 10.489955425466356 14.658727307269713 9.653416877903195
Cu 8.777205282427936 10.471809129146804 10.303965447471905
Cu 7.949268009701364 9.789308953385168 12.635883620591787
Cu 8.264316657721512 13.289884828473319 10.099795252033148
Cu 9.009777599406318 8.020195584537943 9.241905008279474
Cu 9.441330936166016 14.42450508813267 11.865148185216986
Cu 10.810704625720309 10.880656711699666 6.4985372031158075
Cu 8.516192406859052 12.12260096264149 12.271608624632488
Cu 9.478778489928697 8.854933518503454 6.920753995568467
Cu 6.955230969183601 8.891141748059072 10.467351678888111
Cu 8.818619603673067 14.284018128578946 7.883878819095966
Cu 8.573395783934059 11.80563666227125 8.11056345086893
Cu 9.722323697359277 12.927421489147994 5.9786982569250045
Cu 6.506568953769798 13.47826570735674 8.498564472968777
Cu 7.5025470457398145 9.569357808315244 8.162026280431734
Cu 6.604843717652197 11.349038043555746 9.775241786466712
Cu 8.296578863414897 10.757507674175658 5.964087926294977
Cu 7.3715344761750945 13.090954803263674 6.251748687703832
Cu 6.157289129041811 11.333565283420544 7.336392013624432
