49
Energy = -145.86693429 eV
Cu 13.754673158554187 13.66600285753712 9.090656001263202
Cu 10.141416417994227 11.975436569836864 7.514575864571244
Cu 14.407161963223333 11.250786433768285 9.320136357433658
Cu 10.984128174738263 13.966559848491332 8.787381520867077
Cu 12.078083406880182 11.772708499647091 8.89696656767269
Cu 12.571371036568186 9.342521800799133 9.104368775821264
Cu 10.2320036424546 10.077764665818064 9.139788251168557
Cu 13.295540456285048 7.667850164124963 10.896004407158928
Cu 12.37999704396857 15.35990256301811 10.191178992873402
Cu 13.264888905525737 12.614949182761682 11.140738983699363
Cu 14.555107325319408 14.963560977126802 11.26291919236701
Cu 15.682146918332222 12.839542078397018 10.676487779524594
Cu 9.41743522660882 12.313838309371096 9.777423804413598
Cu 13.565558258803629 17.14117476698504 11.451632442545678
Cu 9.935629127766962 15.527495843333192 10.55057003963156
Cu 17.03830968709432 14.775538333475778 11.208761703300837
Cu 11.13676548649634 8.765488760985699 11.119282606037627
Cu 12.273290842130654 13.794214354124247 13.302555369363233
Cu 9.023791061138553 10.38185515926806 11.375051814818745
Cu 8.523063487096923 12.829760200269666 12.025320083855823
Cu 11.254094403087114 11.149053175495714 11.184602862591198
Cu 13.529103480404428 10.017061311628373 11.164175779082955
Cu 10.921549691729368 13.574256952492812 11.266335979713267
Cu 15.326509471761177 11.089209074682458 12.443483690787193
Cu 16.95524191123523 12.938790335557876 12.850337830995674
Cu 10.508204170859779 9.730841511624433 13.387618810012073
Cu 13.808265260019754 15.870995279087774 13.572783134834749
Cu 15.048091534445422 8.615102799630842 12.461267870215623
Cu 14.606712247887724 13.334377919969572 13.141727288704674
Cu 12.760053369612733 11.284754793865126 13.141999632700058
Cu 8.284373343424274 10.871434676402252 13.624204799127725
Cu 16.140800003793558 15.226531300939431 13.377320904618887
Cu 11.635838775749722 16.029081337416706 12.370393945777625
Cu 10.418713979737978 12.148929452584344 13.322741025804069
Cu 9.902990874944752 14.629846968420106 13.293106202506769
Cu 11.724057796853405 15.69043759704032 14.856388798977136
Cu 14.473467410935907 9.936576664851767 14.461305796971368
Cu 13.309750494369919 12.498360703022156 15.165591967504172
Cu 13.764854279757909 16.42341703318122 15.968241972872697
Cu 12.707488148599174 8.739330641182661 13.129903015570596
Cu 15.733128535520931 12.024007985084896 14.850730100450203
Cu 12.184300802517251 10.174897561366896 15.267030168642592
Cu 9.955853670299907 11.157346883113506 15.498547097009968
Cu 14.91872918755587 14.408886555775078 15.366078723637138
Cu 10.8312482476012 13.480993625954104 15.40566523368986
Cu 8.521307190443318 13.071664217921915 14.589161908698303
Cu 14.204608652129476 10.962629500142128 16.68140988315336
Cu 11.862342245221583 11.93644841618086 17.000126166211167
Cu 12.800358798641948 14.310183962366942 16.678318456872677
