44
Energy = -130.28979364 eV
Cu 11.338661433436146 11.305809074820692 5.927471324689717
Cu 9.555907164705559 9.826274545305537 5.24285351989374
Cu 12.575357200504213 10.901437858036797 7.947981709084091
Cu 11.651916600638172 8.939424593309559 6.525326671071311
Cu 8.981986136009464 11.930474907929192 6.302750846094857
Cu 12.508547822681807 12.728561971798571 9.663406123432537
Cu 10.76107835299941 12.572742117097834 7.917149421982152
Cu 14.199054705431402 12.42998606241344 11.327123834105901
Cu 13.483008286638228 10.422050306414535 10.253460459442943
Cu 13.957428625966184 9.957702568963482 12.694222516666683
Cu 12.36933496305781 8.697957748983802 8.879767941757416
Cu 9.39688595112396 7.8993570693178174 6.617637835419655
Cu 9.820635650898677 10.12661679674792 7.819156201339649
Cu 12.068339165665899 13.691918348772534 11.891894959460744
Cu 8.457054140103876 12.207383204229615 8.641279179423075
Cu 12.128252854007748 8.701461746450756 11.30849857570921
Cu 13.8445243353832 12.478216537814577 13.623535245641548
Cu 11.143854449857935 6.889857248444301 7.895031432800307
Cu 11.007201614566982 10.777363562427348 9.973788345606062
Cu 7.5434991419392405 9.909483336952366 6.706449317175843
Cu 10.137687737364212 13.208712895089777 10.196085611398205
Cu 11.560364806760257 12.932430963489871 14.181083902563085
Cu 6.2002609736370236 8.477161083241574 10.321084230677142
Cu 6.397058562892182 6.519117120197423 8.856471259502515
Cu 7.836738128501388 8.713176957362705 12.155527066244813
Cu 8.181462328060931 6.876744929740954 10.591715276653531
Cu 5.583868616810626 8.710783024654816 7.8934511503074285
Cu 8.085735595657031 11.032587378011765 13.013852683399456
Cu 6.312201859393677 10.620455028190197 11.441845963295854
Cu 10.281433816647906 10.84080307170019 14.276460255544997
Cu 10.043063682876106 9.865468012845916 12.100548405462014
Cu 11.693781439714737 8.866611742979492 13.63791460690168
Cu 10.087253553690394 8.42437899125124 9.76763044202476
Cu 8.80504350343197 6.192761212888134 8.2685346745598
Cu 7.904971754392782 8.483699289636172 8.592905002697353
Cu 9.87432017530159 12.53912327697948 12.46820495912388
Cu 6.514440501638167 10.718961474982853 8.959562567392968
Cu 10.06253351467789 7.464273311053928 12.151337579010226
Cu 12.688451643955439 10.75006135419588 14.768780304854394
Cu 10.517535608609649 6.115267112933799 10.125171192714818
Cu 8.508025499963614 10.286983970923472 10.234426048170315
Cu 7.1074240137871945 7.269625691250481 6.635798217527744
Cu 7.84092448900481 12.491380033869525 10.988269857412954
Cu 12.066292439228793 11.288755307913208 12.297956123376876
