43
Energy = -126.6376646 eV
Cu 15.726055755052005 10.3734623608063 8.904662132276423
Cu 15.171972009860765 8.801115805216819 10.778693914207494
Cu 13.9132276708244 10.620993647315625 7.243222821344355
Cu 14.329757800455637 11.153980015291044 10.68308850443673
Cu 13.53191145980843 9.168934044620304 9.121734557903496
Cu 14.475934543093604 12.530491363421255 8.671442250987566
Cu 13.446677262405279 9.489119501510773 12.311678172821145
Cu 12.358043083326757 11.719886617568466 11.9695259971676
Cu 12.908975397430291 7.5609816192042585 10.887845580511664
Cu 12.214915807442502 11.88194167704629 9.423046505396455
Cu 12.998786460595687 11.039301559355058 14.25155229370496
Cu 11.588080531064438 10.038550378150177 7.885288441815554
Cu 11.162192125185275 9.839601200519645 13.034069446095247
Cu 11.576109302697814 9.791779602306855 10.57398059942985
Cu 10.762114799938082 10.274251056962187 15.302045070461764
Cu 10.594381706306772 7.720857085060691 11.86861624675498
Cu 11.337446283974604 7.900838150365359 9.035237504090324
Cu 13.108480506875821 13.457468218029232 13.381303264503638
Cu 13.203518102764779 13.637137514846295 10.74062106071927
Cu 11.058975749679187 5.911169823469818 10.373155656668992
Cu 12.769807572315687 14.216549511479723 8.352912810421211
Cu 11.031363112523046 12.411847752005933 14.100804897184593
Cu 11.048716074350411 13.883949602637001 12.054391031235848
Cu 9.134142561981623 7.395677170238718 9.896640187425675
Cu 9.2229067227102 8.641787062770192 13.805452839158104
Cu 10.73794480360397 13.976528789576252 9.628760691692932
Cu 10.076739977724904 11.83717981387225 10.839159538602152
Cu 9.14723157708012 9.698219483088243 11.513077614600821
Cu 12.176154261670577 12.275672394944847 7.01182280689183
Cu 9.483394176064685 9.663876216046306 9.02887595871482
Cu 9.972868372260415 11.90157007226074 8.191774796266035
Cu 9.014060084113401 11.069735558135598 13.780039294937684
Cu 7.9137036161836365 7.5582154687937075 11.980380696290236
Cu 9.007892932037755 13.478931738339156 13.320854355428125
Cu 10.517274159077962 14.104060427861306 7.233571598567912
Cu 8.69401347932647 13.876165440695193 10.94472694187332
Cu 7.2860295574330625 9.022107986206207 9.999545948446293
Cu 8.46911335981667 13.71972213676404 8.531897303986113
Cu 7.091635265873577 9.707322628322633 12.870338686798648
Cu 7.889849776936281 11.50175112725826 9.59307573414498
Cu 7.67728562124719 11.921892034619951 11.968727320561873
Cu 5.587418983019632 8.362511759262382 11.625124388225812
Cu 5.858794744835156 10.705255781363803 10.927640635919769
