45
Energy = -134.10107537 eV
Cu 13.468825019841724 8.543924034319234 9.64404390739598
Cu 13.187948579485353 10.504062099653982 10.991989882217434
Cu 13.138948857504808 12.695737603874393 12.166999916636593
Cu 12.480733793544262 6.301270861529969 10.365143289808737
Cu 12.740883229194102 8.223803519565575 11.97345096709432
Cu 12.802846066788621 12.59988508064159 9.810781915161845
Cu 13.1424721972156 6.858656199983849 7.963487099772571
Cu 12.545529190845075 9.217905246382484 7.3866195273529724
Cu 11.454376596204261 10.471703799791392 9.22364505473336
Cu 12.246324383554285 10.559143209189953 13.168647523881909
Cu 10.739693182791678 9.443977558290626 11.379378814137187
Cu 10.977291804752806 11.487041386728823 7.018203943221844
Cu 11.110939334277314 5.604009419856405 8.250658137992714
Cu 11.239352037558465 12.774686641132202 13.628853040098619
Cu 11.03527533149974 14.135722195764426 11.33866639499178
Cu 11.149253635701902 9.655235394143947 5.34003004970286
Cu 11.247878674072236 7.295434818115378 6.424690224318154
Cu 11.162390434159896 7.8776182353025686 9.217329628018451
Cu 10.886181266680532 11.834799807263709 11.278316322750614
Cu 10.64853204348683 12.94606816770975 8.929244373177937
Cu 10.475174157764156 7.0516533423972785 11.804517268031244
Cu 10.98908629220794 8.545348249608416 13.699738243579993
Cu 9.039834286398715 12.948039325547304 12.718242563119551
Cu 10.094915056735713 9.233115046252564 7.471909923857377
Cu 8.96417605514516 8.792954473861561 9.758119936406562
Cu 9.806778514765957 10.7602241112099 13.426882729002948
Cu 8.820770777641695 13.341353067552626 10.337615546214808
Cu 9.080533166572236 6.9748573320672635 7.647985360289281
Cu 8.734597444247571 8.713084205644517 12.734786115867694
Cu 9.38817457718851 6.163888916457159 9.868536618137476
Cu 7.935514165391354 6.692930992040892 11.705759694855145
Cu 8.72004435331565 12.95137871435566 7.353814010019824
Cu 9.130977133636904 8.245445633033967 5.476660608342819
Cu 8.943790920721582 11.060746251510988 8.698422830626917
Cu 8.87803757376536 10.73562802584719 5.960256829471696
Cu 8.478759152817677 10.892711118494363 11.106730844935386
Cu 6.854259777672885 12.942418962330597 11.799853550493687
Cu 7.155170709106765 7.3481643343553396 9.374997211510465
Cu 7.311561072611776 10.804772718562772 13.1262458091166
Cu 6.853693589953881 12.294012701866714 9.41914238905882
Cu 7.666709325871046 8.93665653316795 7.34420046163926
Cu 6.880919181449221 11.26976334490796 7.231943997284867
Cu 6.726966514433553 8.805777551527552 11.458274359742557
Cu 6.670718368801103 9.8728897582056 9.29775785765903
Cu 5.653945999867548 10.983998179973302 11.209532788878324
