44
Energy = -129.90065038 eV
Cu 13.690009917823568 7.896845885010237 10.397336670745482
Cu 11.410867949200114 7.237311740174687 11.287397472530175
Cu 11.744177107766633 7.647605679042959 8.92812555933456
Cu 9.89250192056192 7.247788416166936 7.472387093042586
Cu 12.723182018574072 9.18854687431411 12.113204940504982
Cu 13.073414758557593 9.73171839733987 8.93055317084116
Cu 9.902349021806454 6.13984472300267 12.794089591631796
Cu 14.477884008369365 10.413268596375389 10.942183905348237
Cu 11.480374538005867 9.16989007265515 7.037399638519092
Cu 9.41334109798006 8.842790092740183 5.709794295666277
Cu 9.480164657941755 8.469544785244485 12.257812029558492
Cu 11.289575578003884 7.867651570579538 13.708763532773611
Cu 14.697440954234672 9.824520063082439 13.420734177852944
Cu 9.230939767583289 7.675544531523227 9.891357457354124
Cu 10.773750124427181 10.610976613689159 12.581784828268795
Cu 11.251766862447848 11.237827055195577 8.414369326488062
Cu 13.734952832078738 12.176819625416153 9.019363057378115
Cu 9.271101308661683 9.457820388306507 8.096785572762904
Cu 12.457609569732943 9.777685513805658 14.492195717264245
Cu 9.932179214496378 11.11752147474297 6.380993328735051
Cu 10.789603846230856 9.518518503970256 10.267437412731136
Cu 12.294575715151952 11.37059654053667 10.758259433719548
Cu 8.784447060361849 11.843875873880325 8.467710501558239
Cu 8.334260931510778 10.097995462361256 10.266051053744848
Cu 13.935084701565478 11.461646236949255 15.27019085414796
Cu 7.20978925457264 8.404861376691334 11.450311337756512
Cu 11.629156321097822 13.368009755016146 9.465370273466844
Cu 9.92509271261922 11.949051809257533 10.645821321440566
Cu 9.888104238464182 9.852085376390567 14.597316806191923
Cu 13.433976906152395 13.501720444370418 11.153414973379121
Cu 10.391062685446926 13.362150701817505 7.366615129257246
Cu 13.331626486668126 11.709523172702765 12.937897781528521
Cu 8.089458020682274 10.324483528876868 12.906339046266813
Cu 11.56186021189269 11.99062307505097 14.658477845639213
Cu 7.558354731992039 12.521156634251707 10.489511994509483
Cu 6.225229504739505 10.683892964342208 11.441027144545695
Cu 11.121460641081505 15.500929978722798 8.513196743672541
Cu 9.335693857255233 12.248782804319257 13.71504129700051
Cu 11.314779263422231 13.113322520433382 12.42529163551405
Cu 11.067776874958668 15.099680832571856 10.977992705802405
Cu 9.009346506367988 13.918653877278135 11.939539229138166
Cu 7.075399861519598 12.531686902853961 12.856391011067647
Cu 9.262024715691073 14.117007807567415 9.497617119952276
Cu 13.455028808404656 14.728998787482828 9.007323047471445
