41
Energy = -120.06184886 eV
Cu 7.632975820056751 7.155751030068798 14.41923929731641
Cu 9.807970890973182 7.992074104849689 13.928778605410892
Cu 10.814383610420322 6.93439677094691 11.889730943760446
Cu 12.00299066729594 8.84945951845443 13.41820344217405
Cu 8.267797612840663 7.660471084313046 12.107626973469943
Cu 7.827028079803381 9.485526253118827 13.778635198479375
Cu 10.09482755793606 10.412492808309347 13.957246182119707
Cu 10.390688257745188 9.233253455882396 11.603291959237412
Cu 14.042434398806916 9.84994113055222 12.612527236766129
Cu 6.98522575254937 8.36469963746514 10.072370900125685
Cu 10.452485829588852 12.841885042143641 13.907862817810008
Cu 11.613947825997615 6.92911431108318 9.55634799036255
Cu 12.252740312280615 11.325388099316811 13.227189996911493
Cu 8.004506955911575 10.102289880059857 11.44234070037993
Cu 9.32519427882127 7.632763078448614 9.94740292073548
Cu 12.808568045405258 8.333197201502731 11.125713445320713
Cu 14.440265959475381 10.015620151287902 10.235921007880131
Cu 10.193260669002882 11.624339994846617 11.747996740694266
Cu 12.996728300920896 8.753791494630708 8.674951389272591
Cu 8.223244856013322 8.84684367374996 8.041246809432694
Cu 13.86536765963925 12.055882414489616 11.58598152225357
Cu 13.531018994291486 11.116798291302455 8.232098737618571
Cu 9.581753385111522 10.493850290336075 9.511441190365007
Cu 10.639346888713035 8.595678542886661 8.112218054678396
Cu 12.060015432879469 9.976821256567723 6.692247885687411
Cu 8.218096058291245 11.888952288830751 13.145707006457604
Cu 5.824569955434437 8.983629390771892 7.963674210374407
Cu 11.983156578994212 10.708349082626922 10.237874229148057
Cu 10.328203744487388 13.193922337433824 9.810445757032673
Cu 15.138953365241166 12.294584601181713 9.576517605103875
Cu 11.835948935981774 13.439481766060256 11.857790396099995
Cu 7.02347710709215 10.685893035265996 9.218936555154997
Cu 9.611249681402787 10.397421880463122 6.784382974952933
Cu 8.1071888308897 12.398360515139988 10.563966555168825
Cu 10.97928222614143 11.908002710386913 5.535902195194688
Cu 7.131362595942173 10.721998186670294 6.7952541431070435
Cu 8.640493208999873 12.300530944675382 8.101249967344257
Cu 12.76893013855883 13.04622419779479 9.588100346141472
Cu 9.382394414078892 13.906011663598019 11.994635867727414
Cu 11.20894872407699 11.896210150636037 7.97221355084051
Cu 8.590126209493011 12.275247549436447 5.651886509474957
