42
Energy = -120.23345351 eV
Cu 15.945201613328464 16.779321320067876 16.061996229319806
Cu 13.96844865780104 13.41672322536679 21.07518094771908
Cu 18.804239453910075 17.937244159582814 11.41603156513897
Cu 17.99891069878834 16.279836009998743 14.584324133986865
Cu 15.575348772883975 15.170833181753954 11.610055260735132
Cu 17.127896003679368 16.519083146671083 10.23500643874239
Cu 14.845064968737992 17.378441048412643 10.767315543192993
Cu 15.115253940951341 19.131392388486578 12.55971850791587
Cu 14.961967521238224 17.74856517748395 19.081778114481608
Cu 16.662342532733465 18.89972198059908 10.57754401172893
Cu 15.731524036833774 18.994025468772715 17.030263352473415
Cu 14.292525736547791 15.69572329097824 20.22762354070404
Cu 13.800811418039862 15.904984686382639 15.246320921349268
Cu 12.337288796926954 14.525596668048141 19.511349144378336
Cu 15.630038111210384 11.872761286473166 20.25676066506633
Cu 18.103870979547352 15.173326890726344 21.742733530627486
Cu 12.58883194365197 17.114811946105593 19.10540738671381
Cu 18.16145051460609 18.073687406771437 16.26656838190821
Cu 17.828961667559085 15.017268774723057 12.470579901270039
Cu 18.225225890286005 15.386051513604125 19.352841614534398
Cu 15.875539848316668 15.20126880875945 14.050565047934414
Cu 19.336478880929928 15.639236098799909 10.634464916704477
Cu 15.417756197401507 14.342275912172894 16.351359092799882
Cu 16.293670635017435 14.178761719501788 20.52253249473854
Cu 13.549583831721865 15.390450229589353 17.625628232294662
Cu 12.762381237320312 12.139295923764635 19.432227972030688
Cu 16.63530971576038 18.857231629460536 14.61320367283904
Cu 14.27233461447046 16.76504605137219 13.02006029854429
Cu 16.004002012513585 15.516039157524867 18.391768099377078
Cu 14.3124534318864 18.36652622323522 14.826165117139743
Cu 17.313694457842395 17.569613227002666 18.41237236683293
Cu 16.54123669589627 16.63794194470532 20.617252498459973
Cu 18.967306857224088 18.39033463944953 13.90680120598357
Cu 17.946255104881367 15.59938740406131 16.93099230568521
Cu 13.55832818598821 17.68961489848971 16.951050025297643
Cu 16.700151965718256 17.30167579406772 12.635543317563878
Cu 17.533284583610087 19.803832449311738 12.570976638348421
Cu 19.811561367365602 16.30579750481439 12.946833564576796
Cu 13.693975638623922 10.955161832367232 21.246197386014764
Cu 14.657505054771416 13.500785881780962 18.681073910963804
Cu 13.60904847727763 19.550752766169445 18.40004811325936
Cu 17.394548911704835 14.130539046808856 10.278254611489972
