46
Energy = -131.55918511 eV
Cu 17.619618615215565 12.423643643738703 19.398670325198285
Cu 16.794851276367005 17.96937441058042 13.902672027906487
Cu 17.647392690787065 14.41529565270804 18.140901823501856
Cu 16.358295392417013 18.23832984222366 18.55350218794652
Cu 17.214972055143722 10.216840184887534 20.17632849771149
Cu 15.486577323208392 12.059658508879398 20.43028623439203
Cu 17.796090920010162 16.47823247925653 19.340225935041442
Cu 14.091574191031459 15.811740346976952 11.867028622856601
Cu 16.37038020033189 14.459008579027184 20.198362156804393
Cu 12.779368887046376 19.231719854048148 13.488733562141892
Cu 13.43765056908707 17.385538623560084 16.56193037316878
Cu 19.566724968658388 13.88046613663055 13.859547015119258
Cu 19.659066145470817 15.925526613215386 17.660164505277823
Cu 17.49176450951441 16.4072740538838 16.73326053993659
Cu 18.786434284565576 14.130873951082647 16.092131819781486
Cu 12.392800252588978 17.50668326949911 11.899616202754222
Cu 13.487307978156446 16.736132470600403 14.068418015392103
Cu 12.227080986790346 18.90090520494859 18.152014709915107
Cu 15.438204689009844 14.830060103473707 13.734085734029696
Cu 18.71932025215844 18.260784550386177 17.785969052869728
Cu 14.03937999089682 17.666600944846476 19.0075053400517
Cu 18.82401811657255 17.89725338834125 15.309122001100684
Cu 15.652832538550646 16.755244897494904 20.481682167507174
Cu 20.85685037736411 17.795531652847757 16.62671525433566
Cu 14.695370713880633 18.894469364371936 14.888360717579399
Cu 12.23982908622754 18.108335891293684 20.42127912266803
Cu 14.773473492758304 18.0924050121156 12.508976760563451
Cu 12.53993098518066 19.62116160669132 15.88254391436658
Cu 18.346027082534523 10.632782874117785 17.96701792257449
Cu 16.474526723204075 16.340955191648916 12.100220764192267
Cu 16.738364709501543 18.80111706425976 16.259765872653865
Cu 17.22034976885464 13.15035024594236 14.365111751295727
Cu 15.579556643630491 13.994543066928328 11.452818216199184
Cu 15.446289031020402 15.831468973918813 18.119362812564745
Cu 10.74314264906978 19.235606152647794 12.290165273509137
Cu 14.562698652532749 19.40646723271566 17.314976091948513
Cu 15.884961408732034 10.912268287247889 18.308739191420084
Cu 15.411877218364184 13.272208409192563 18.25803369268929
Cu 17.776423238042725 14.29438947009665 12.296247839862001
Cu 19.054169582290395 11.836296760208937 15.353396822471241
Cu 15.438232408118887 16.602469591224857 15.506943805301601
Cu 17.14700227877053 12.302289769097973 16.735295714613443
Cu 17.80607427670378 15.73549841664568 14.287601850583547
Cu 20.18486081427614 15.890496172205506 15.215855802513506
Cu 16.037213662107554 14.397551139886763 16.13464234846216
Cu 10.982620188165134 20.535142504727094 14.311338862930835
