47
Energy = -140.69695363 eV
Cu 6.5865281810362415 13.886262071459162 8.818450157347897
Cu 7.315011553385944 11.587531089438091 7.407982813729199
Cu 5.611814135006886 11.772735458727581 9.320077619039328
Cu 8.640896544246118 13.8276438871866 7.620592746491516
Cu 6.731825821550433 13.07600610016134 11.136193556955527
Cu 8.59110664387371 14.52607834968975 10.184393924774588
Cu 7.06968794936165 9.88134803278439 9.344882297167434
Cu 9.908376072646725 11.775015737036426 7.382886586950832
Cu 8.239364375315594 12.150425460156832 9.473295861161308
Cu 6.007154253614191 10.705477802869153 11.466898047649547
Cu 8.935309008088032 9.608738354075387 7.77244852434339
Cu 10.458295783711094 13.368477922987196 9.19450136412996
Cu 7.326235552348664 11.894714655934347 13.121601425454966
Cu 6.997256905515535 8.475013998711667 11.413413525774775
Cu 8.491829898993517 10.417132335639094 11.460804536998966
Cu 12.24231576492071 11.951923072907274 8.305501309697748
Cu 11.443943062439494 9.760550346011547 7.623779600441382
Cu 9.416472986907399 12.667640524200799 11.631101422899594
Cu 10.25022900507803 10.747789499360028 9.676562831837638
Cu 12.793893818347131 14.082327205221098 9.508314307719203
Cu 9.030797945508628 8.505562747451012 9.937051394019354
Cu 7.875148668427152 9.453848435903819 13.632151072839344
Cu 11.075149433667713 14.455087630329547 11.261433521065342
Cu 9.234227610700184 7.930992040874077 12.270164381487742
Cu 9.527810487026716 11.288625459608582 13.742320732860453
Cu 11.964219398477043 12.098777089175734 10.794293005737767
Cu 10.457038272868145 7.588770998421568 8.194031510228877
Cu 13.492903166664371 13.642543267463942 11.846532064821696
Cu 11.388340133723915 12.81336246191485 13.104491320110181
Cu 14.246904933998916 12.164671680066515 9.833449062636522
Cu 13.669186559246498 10.033574029458306 8.72670936933896
Cu 11.033395063050762 10.186716689537652 12.05560319356224
Cu 12.901817108909372 7.789770919966087 8.072306682362695
Cu 10.39507537228435 6.602153208096292 10.510588714611446
Cu 11.675339195832823 11.00918657803893 14.732574212043241
Cu 11.68393047283866 8.744832662441468 10.009867711196799
Cu 13.41002793524185 10.042100450570278 11.230010292900177
Cu 10.37215446514934 8.994862979119109 14.108224932930094
Cu 13.510417779277631 11.599781253979907 13.249920451076092
Cu 15.462613125251389 12.100796319612083 11.913842489064685
Cu 12.830971952331188 6.595522857131279 10.344111988288098
Cu 15.674387785290158 10.206115647620551 10.386201787155365
Cu 14.64981151715612 8.1079560095428 9.796023869668923
Cu 11.662615270537612 7.667358469662419 12.313485315226078
Cu 12.922995802492654 9.250861885137683 13.644309271458237
Cu 14.100506533360495 7.754253152900642 12.108267353678484
Cu 15.217253513102266 9.829957005278734 12.855958138666763
