45
Energy = -133.98527705 eV
Cu 13.675847711489855 8.176842225014555 12.600574024031836
Cu 12.17214045726449 7.682733608468742 10.579596362215785
Cu 12.12321444903823 6.168244716779345 12.570056654257119
Cu 12.392665171388524 7.342478334732836 14.721785579746353
Cu 10.197415341153555 7.85013591231607 9.070457881779017
Cu 12.825671339646092 10.435610773149897 12.127682648218343
Cu 10.100530917253444 6.6065183698786685 13.940920329239885
Cu 12.56818358973965 9.762146650962604 14.52515116633084
Cu 12.421085813748078 8.610992604779893 8.33588823832327
Cu 11.897652058499437 11.108859279547525 9.951804776506771
Cu 9.9713552461277 6.956585084135589 11.429730344997111
Cu 8.486032750576364 10.441607776181842 14.54942244048581
Cu 10.795371236384238 13.601153325998984 12.943337420676341
Cu 8.067969559322382 10.52250005972271 11.990580968683007
Cu 8.15954959753739 8.419436244216376 10.56398926813583
Cu 8.838695077223457 8.5023394346501 13.047615990274904
Cu 8.163908133519799 8.742861048735563 8.114231071787472
Cu 12.641757139004765 12.895182686670992 11.592553126694838
Cu 8.427716103468955 10.837436378090988 6.974997564035666
Cu 10.300683126545978 8.812212009098776 15.084130096623804
Cu 8.56585636485299 12.53918289828273 13.214627315883684
Cu 10.263769195176549 9.564353579461613 10.953055306549066
Cu 9.94973130998654 12.089901850726799 11.197759300608308
Cu 9.956552855394303 8.800427212808849 6.408669401531434
Cu 7.5527084847310055 12.661717122323742 8.28663364672911
Cu 8.407678374817426 10.697532923710353 9.539162369787004
Cu 10.241744827479582 11.142227773809255 5.459017354437525
Cu 9.34905458352934 13.169984009336384 6.640895955424826
Cu 7.5680821415708595 12.652231654128627 10.75769278847179
Cu 11.328506982490971 8.434019506244605 12.85111339356153
Cu 10.47993439398842 10.76372765658302 13.190297895504457
Cu 12.177814931493762 9.976003408351135 6.295217025721275
Cu 10.740329031532552 11.194044844591874 15.517046934856655
Cu 10.541193456248653 10.190905168909662 8.179130564343614
Cu 10.086839587201519 12.479848396196168 8.816284857627862
Cu 8.859103772363003 14.517770189653653 9.128668893116627
Cu 13.89244514994142 9.30066070605042 10.194243572914527
Cu 8.910528320737237 14.408629079046925 11.632077709933961
Cu 11.762422256402555 12.310679565544971 6.9764286638216735
Cu 11.044150517827983 14.512701681637328 7.910289713578697
Cu 12.454547602783883 12.119764069874206 13.932428398712617
Cu 14.273858807514687 11.661345170568097 10.354409920152213
Cu 13.49811614315505 10.84694890074037 8.15644963931126
Cu 12.806684889207178 13.192941171236255 9.039179835624088
Cu 11.022044575359505 14.30269507512179 10.417889843400037
