41
Energy = -120.95154088 eV
Cu 9.040229425873806 6.250520201727342 13.134619110220473
Cu 11.077584187669885 7.604166945396185 12.713077241880809
Cu 9.229870955132485 8.37732575611668 14.178847009984288
Cu 10.150083512752053 6.196210462152746 10.88522415271092
Cu 10.980704640501392 9.939737562303874 13.529269186739285
Cu 7.036703385934219 7.842639215719565 13.021324186539278
Cu 7.627852608876817 6.173690400730174 11.221411287625875
Cu 8.869655391225304 8.37288518241746 11.682844530752932
Cu 12.519007937293747 9.278975700739853 11.731664640618824
Cu 10.274078088595909 12.245721502586367 13.30443284183188
Cu 12.410510173459347 7.030495083521449 10.718149115758512
Cu 8.391507782311914 10.486987196569014 13.311392917717686
Cu 9.866053130572853 10.647100824172057 11.41397330303592
Cu 12.405404359934625 11.666717480847355 12.251655788467376
Cu 8.696937974474448 7.1669535143325245 9.256522490725162
Cu 6.622867999785209 8.255093138858117 10.547878770060517
Cu 11.101257372088263 7.000141057168998 8.535619034991992
Cu 11.771035284465645 11.03089058263355 9.947733019627744
Cu 7.068137903228117 10.711919817575588 11.207598899665117
Cu 13.087845834122142 8.915713110233582 9.315720028280573
Cu 14.102261674280154 10.812670889173924 10.636465861095575
Cu 10.659532209737009 8.752551612621787 10.043322644093525
Cu 6.949068239248099 8.197932453276021 7.971393190601982
Cu 8.353843914225227 12.649711624600853 11.896756933365294
Cu 9.359484274179243 8.534545075450444 7.288701348746979
Cu 5.886168883828971 10.055873879816565 9.082220991247445
Cu 8.354431613403502 9.636728641141765 9.486910179872956
Cu 10.86411264849886 13.160890231001039 11.080684659012409
Cu 11.790909757538863 9.110809434086173 7.28600890209211
Cu 13.141399842841375 12.998796909381555 9.845035179462311
Cu 13.532237210076026 11.098243145045235 8.239617316142848
Cu 6.9507895347084885 12.16718042910498 8.964210767762985
Cu 10.165397859319249 10.647061685134556 8.19743676341351
Cu 7.6477575646880265 10.458229831682628 7.283675977938962
Cu 9.14834467307421 12.24957281574695 9.68441702352383
Cu 9.695475153719574 10.668197049474538 5.871491530846761
Cu 11.89687575709443 11.429662994805224 6.53314487103908
Cu 11.099389288220648 12.990508287831952 8.446826644881178
Cu 8.851485836330413 12.59626673261499 7.269555823910099
Cu 13.130592928889442 13.388232392290059 7.276068222267172
Cu 10.810602122087175 13.437321994877719 6.045470066178191
