46
Energy = -137.02634268 eV
Cu 6.083514927424366 10.230544528208265 8.831420668067109
Cu 9.452232244496756 9.189055798230559 5.520698316664754
Cu 8.188526305029416 7.3731935890708495 6.556022325851844
Cu 7.746245009937359 9.724040369941253 7.138802903689803
Cu 6.316103909696622 8.848884030180825 10.850341984816115
Cu 6.800953899387048 7.836453644732248 8.552158432825196
Cu 7.033236438050586 11.346249664168132 10.835279442757134
Cu 9.633497200240638 11.328577858753954 6.8104046028921825
Cu 7.980994088431445 11.839585769509187 8.54606228597337
Cu 9.194198619430177 7.171163913582675 8.744306670186717
Cu 10.660373343021506 7.30692980604431 6.6148069835840895
Cu 11.787416030379118 9.538896661806902 6.017946889261156
Cu 8.319181209071115 9.503144557495458 9.596672594055338
Cu 11.623558860809217 7.242961323537218 8.968211713605603
Cu 10.22991444786013 13.307137895845452 8.483609377187639
Cu 10.369479679087103 9.2478783771858 7.933788556588671
Cu 6.625759084863625 7.479546139995343 12.803329270503518
Cu 7.057464255038615 10.002903646105192 12.910966770703219
Cu 7.663242013625068 6.727280310877758 10.633596938989188
Cu 8.798530385266345 13.127744074549751 10.520668174098878
Cu 10.206332936285758 11.180076284832147 9.420629095022758
Cu 11.910734893587703 11.355456688532875 7.64635657401136
Cu 10.887786841519338 14.65872250496884 10.542100142882687
Cu 10.2116437495086 6.548551847243216 10.90304930408647
Cu 8.668568500466481 8.443231805885121 11.990368035687384
Cu 9.45232282761113 14.192959744614965 12.546703204518163
Cu 12.615453562438057 13.003265503971223 9.291813592980638
Cu 12.945349751357123 9.101077088487752 8.143671025878461
Cu 9.30593310267919 10.808589402614501 11.636542376977419
Cu 10.546884889218374 8.922406799177985 10.414363104202575
Cu 11.25066349336776 12.461707024367305 11.304707171296359
Cu 8.834788280053987 6.227611774661866 12.874760245545655
Cu 8.028076581772781 12.276301580451525 12.987486090630242
Cu 14.19502660220129 11.24036005636574 8.413808266018874
Cu 12.502424104042614 10.54325240652954 10.148141193185765
Cu 11.78215213428724 14.2003163899542 13.051344080083284
Cu 9.429981944416296 9.916763392267315 13.847855747205866
Cu 13.408896149997483 14.035972968745659 11.315396791582183
Cu 10.853991177282069 7.8752799231808295 12.851243315953838
Cu 11.571142467703472 10.15639230236037 12.49857814205513
Cu 12.719143901138308 8.121144026354756 11.056050548624714
Cu 10.458538675054475 12.176339053750231 13.5988423959447
Cu 14.432492544229305 11.917582435442268 10.74371213053874
Cu 14.618882832376812 9.316351305157808 9.935847240250052
Cu 13.06936398209019 12.109427851318415 12.868148158607513
Cu 13.985321150468542 9.928489093605364 12.193843895175938
