45
Energy = -133.48163747 eV
Cu 7.499472351297499 9.879144697279571 7.726157416224412
Cu 6.3666251135654175 7.056310310666783 5.056523522146224
Cu 6.882884296819505 12.118393318525262 8.828557355680925
Cu 6.655991959705494 5.080985392917159 6.883458688099167
Cu 9.603126395646829 3.909466995538487 7.319073090359377
Cu 10.775271083419746 12.324699307285869 6.956444096042552
Cu 5.393401784396759 10.183251498214693 10.964703887793515
Cu 5.024330380901996 12.489357530208128 10.277727238913416
Cu 7.260210447790573 10.507232682874218 5.137060685396678
Cu 10.152978083536174 7.037003815881387 9.65950327236428
Cu 10.144845330589593 4.57651634061763 9.740527492317543
Cu 9.38307509783712 7.9105057004478905 7.545227664024502
Cu 9.281604022108233 11.770309502756534 9.13877744237295
Cu 7.026997382521644 7.4713547589998575 7.213858602225704
Cu 5.446678508649357 9.197083184539729 6.508353468595013
Cu 7.639676355425425 10.094071777284714 10.182452518819781
Cu 8.42704485440961 8.505008170015907 5.380151891559897
Cu 9.478779534472405 10.840786741831739 11.562090595049655
Cu 11.938161862417953 3.996658857910863 8.264392228707225
Cu 7.63329855141756 3.892152341645015 9.254640547260095
Cu 12.279825401094993 6.034099038052139 9.612573882986752
Cu 10.876103670853118 8.294729159883994 5.753042364009476
Cu 4.837093508701753 10.70961692113338 8.596785344173751
Cu 6.213953192252802 6.045100240448347 9.238214138525843
Cu 8.354866037951716 12.01396022979575 6.7329346845143965
Cu 4.79287967085437 6.8233476561879955 7.157862602039259
Cu 11.765063317777704 8.387405850416537 8.203922715883008
Cu 9.088806088006804 8.248318514111789 11.661934122602998
Cu 10.655991054499069 6.1324337790654155 11.730136955431302
Cu 5.509212787237101 8.44742158778241 9.019762043626047
Cu 9.820894334416995 10.654063088546932 5.030148457534897
Cu 12.143405120783545 10.296384958268066 6.417021290314367
Cu 8.230274521408559 5.90022582451152 10.839127715196772
Cu 8.82980114089408 6.1154723262212825 5.89433944128868
Cu 9.953694408417194 9.450328370450983 9.644095805379253
Cu 7.27217611496274 12.14570750812123 11.267236033487272
Cu 7.8856768016178505 7.890712447760764 9.423598089101992
Cu 9.94138245132205 10.169334535036047 7.308267449143708
Cu 7.377737097958064 9.92730001736823 12.565170644047026
Cu 5.860576918077449 11.679560834040487 6.673950976822549
Cu 11.73314423018195 8.289122061728712 10.876704830577308
Cu 11.711036458595856 10.877008558758789 8.83665168992032
Cu 10.942939515221102 6.027462295083349 7.414164633244042
Cu 8.512976191034483 5.774076727483944 8.289557862521658
Cu 6.50320723394062 7.933685209293335 11.320285188666542
