49
Energy = -149.31752933 eV
Cu 9.38071094676376 10.695409901873175 4.906771785144573
Cu 8.762023461872992 8.375372995683788 5.6163110352254675
Cu 11.175132653500576 9.180711816672645 5.78836689040988
Cu 7.177614424632652 10.37626384926081 6.079956143491769
Cu 8.125469017972671 6.103120923689527 6.50751972464479
Cu 11.181320992741483 11.663567672137564 6.372486981152757
Cu 10.53423119614815 6.848753527742778 6.628968491198399
Cu 12.871224194003757 7.694885587748437 6.903294774835507
Cu 8.611224194178586 12.421719075341455 6.566058923636658
Cu 6.559133426625747 8.037941937129515 6.897026364251559
Cu 9.399947280364282 10.191828389467563 7.237702982226037
Cu 12.914141861535734 10.169563300184151 7.356827055603943
Cu 5.117721046405573 10.009638658001345 7.430114210293454
Cu 8.755598522187539 7.853469816963177 8.0478606210754
Cu 12.847904014555038 12.579399375771086 7.985708770428637
Cu 6.465910703554944 12.092404503967215 7.8213563414432175
Cu 11.1642920250004 8.674181428885257 8.255805411995938
Cu 9.470709535478585 5.5316074950540735 8.574316687886357
Cu 10.411213923042457 13.397095371867128 7.964280357148873
Cu 11.87655504703552 6.330899799665544 8.780030903561933
Cu 7.2312149189490995 9.85190416039074 8.523018812909926
Cu 6.979148434899839 6.254572375541163 8.754310989612685
Cu 7.916904372273282 14.043425378899878 8.31485517243657
Cu 11.163051904869496 11.229489252912265 8.895565768876834
Cu 10.08772946880565 7.402840321684124 10.175594769030303
Cu 5.342338083490611 10.746809877980352 9.822910884002484
Cu 13.46450816908922 10.759695037335796 9.705244401667047
Cu 9.408196442334622 9.676104912969128 9.620539953996978
Cu 5.421347941387604 8.275206735596504 9.2278758066536
Cu 13.372761981436193 8.322440459892405 9.284544369707765
Cu 8.71489767800341 11.971136871819182 9.078832197964703
Cu 5.970397280494722 6.607178601873703 11.009751018669899
Cu 10.757178289103063 5.176980063485956 10.690761563168603
Cu 10.041521262586521 11.432996614242734 11.149499901402493
Cu 8.325672971083947 5.77912433314738 10.901499265985985
Cu 7.639076199213677 10.685275886329267 11.003056664433714
Cu 11.603452201279428 9.49230625397646 10.735897553635745
Cu 7.663613591881087 8.128053671822101 10.324724326494351
Cu 6.660061661699451 12.820523233795871 10.18565983863619
Cu 5.752271472373242 11.449958689812526 12.172930135461183
Cu 13.732475667345176 9.061814812382577 11.63416573300766
Cu 9.426301296712516 9.16088899897352 12.029429063982052
Cu 5.774623069895177 9.028353218160339 11.635777264776822
Cu 12.32250243084178 7.074105724766224 11.184319223737715
Cu 10.04723956566104 6.721251728413021 12.54353439466088
Cu 7.630374640634739 7.443947706241791 12.693851300619581
Cu 7.409734589432577 9.832494995456402 13.320381351237845
Cu 11.624602403463857 8.575200331520602 13.036566198162859
Cu 9.330046455192166 8.383407235504434 14.239460531446195
