41
Energy = -120.35779337 eV
Cu 12.163748825283866 14.466668316072727 7.536656347026008
Cu 13.414459807408189 12.634243152733575 8.499353764250955
Cu 14.200153548689281 10.362518996841864 8.906022760412247
Cu 11.665547896361259 10.848040837303731 8.973720984453559
Cu 15.358393335732872 12.375217817519834 9.910492829974034
Cu 11.339643433779862 13.309045252980328 9.469274096724412
Cu 13.609421042203438 14.952874707706966 9.385092833071512
Cu 15.727058729581127 14.654719819021956 10.940236397956879
Cu 13.132941113131523 11.324663042701602 10.839744105389396
Cu 12.908299339317677 8.928865138859674 10.465367587681275
Cu 15.233567061231554 10.180893333407601 11.152560570772351
Cu 13.649805780617031 13.601172052836352 11.303200909967606
Cu 9.513888854387051 11.75733949022958 10.237339933245586
Cu 9.32883952627247 14.061535807683173 10.791115570281676
Cu 11.424706131855885 8.24149035329545 12.547744710343231
Cu 11.511175598421609 15.20069687206669 10.979099668786569
Cu 7.438674310912917 12.61905180299883 11.17313077942709
Cu 13.742176861657068 16.05839202893413 11.6637363535046
Cu 10.886076466547609 10.079659039996175 11.135524101761261
Cu 11.361754409815376 12.672793317544963 11.823265917742537
Cu 11.443218111439645 16.74630291749631 12.88578104886311
Cu 15.791291353016879 12.469966706622522 12.27995826335287
Cu 14.89293485147638 14.428455229407364 13.360931780893956
Cu 9.189886813371162 12.295372394069506 12.793533589961456
Cu 9.985660126490377 14.720834577138076 12.991527672990717
Cu 12.482447263795013 14.651814584278783 13.19056994522751
Cu 11.149436496810539 10.58854999048716 13.440142939775697
Cu 12.061627799267763 8.798170951434555 14.851237801543505
Cu 11.186271684273759 12.819103549246286 14.286718522404746
Cu 13.42240250638871 12.131440703088957 13.288549568127792
Cu 13.373073729483988 9.630487011390857 12.790466997610269
Cu 11.10913242265343 15.228725167974169 15.091023904308907
Cu 15.559829882874192 10.447065101548171 13.538268687281127
Cu 15.23589461258431 12.464125575482694 14.922873793926593
Cu 9.143555205982954 13.621867744341126 15.084187119220642
Cu 11.391771991857103 10.966239577161224 15.873192636627875
Cu 13.765493633664203 10.456729891068207 15.121388482872076
Cu 11.202415973698024 13.299646705287616 16.630503627046803
Cu 13.272180108955006 13.847823646490768 15.314653460525305
Cu 13.36526444712548 12.01191561345806 16.891108092532203
Cu 12.858296290257725 9.537898560466234 17.133119220808442
