42
Energy = -123.96262467 eV
Cu 13.627535288422093 8.8810859814781 7.839148624169807
Cu 13.584306618776647 7.798809766966393 10.067177064727643
Cu 13.913246011306757 11.200905859513414 7.487167792127672
Cu 14.5678377985401 10.132622921099825 9.76558505301264
Cu 12.718222314947324 6.671720059436446 8.05033238294719
Cu 13.563914980600915 11.958737061577882 11.580499796524313
Cu 11.79135419299502 5.8606198449691735 10.025047157568228
Cu 11.553354566268425 8.129729635844 6.583074102815807
Cu 14.203292243696275 12.60575190934386 9.347825331022992
Cu 11.440031009612841 8.627544273426386 9.19358122267838
Cu 11.591159287229473 7.549962476701187 11.632157090405451
Cu 11.823632827651215 11.339729486516195 13.22863628490679
Cu 11.6223803612544 10.422221953755221 7.2935065533313175
Cu 13.043147132042993 9.569228658110344 11.749063336358702
Cu 12.283348061721691 13.650187348429299 12.777445694934993
Cu 10.14446430728698 6.7872087901029845 8.398122688815597
Cu 12.385416959210945 13.849962568033012 10.283625370088263
Cu 11.958515932897866 12.754766981539488 8.129812996603524
Cu 9.542042862263788 6.352411158368928 10.776062598366222
Cu 12.346604665384413 10.939469930540586 9.677973587266468
Cu 11.35615797630921 9.03530066999978 13.504083518799463
Cu 9.564952998083173 9.092376890097897 7.622098039158285
Cu 10.615895489248496 9.875202842655213 11.212189237129202
Cu 10.51892203900692 14.786207329563869 11.57220749548496
Cu 9.433073488003213 10.604677103868912 13.285897223547936
Cu 10.041800142969027 13.717955301383155 9.329478048073787
Cu 10.69451670934127 12.308128720192476 11.202353984000016
Cu 9.846762268564143 13.060830648348354 13.350728532148363
Cu 9.933696214510816 11.144903628161462 9.042066135666284
Cu 9.33384202545251 8.127846554958646 12.524805695258076
Cu 7.382215494442175 7.282852851306897 11.475477744723554
Cu 8.837386982858952 8.509839618627897 9.895782901804465
Cu 8.252849267132646 10.959785130451067 10.977853750549055
Cu 8.5055449652566 13.583763726210933 11.340433749512554
Cu 7.299311238376569 9.440624481340526 12.7572033781473
Cu 7.52343412416503 12.12344040877507 13.029020450202713
Cu 7.809552120065236 12.64642249922217 9.17301894601075
Cu 7.662349003258963 10.251756233011877 8.563309221846017
Cu 6.455618935780707 9.210894880267523 10.398020066322314
Cu 6.206708487098773 13.192920656827589 11.00007054563123
Cu 5.726983175281232 11.00079310086291 11.840778655675189
Cu 5.70979937475263 11.375980000180874 9.432457893703933
