49
Energy = -147.38844038 eV
Cu 12.882515164927131 15.398996493041087 11.89898287619479
Cu 12.970248100087085 13.945576587730327 9.71654720586659
Cu 14.771835418738366 13.898764152782018 11.601579346328354
Cu 13.45411211952942 13.915421055590098 13.951013580310184
Cu 8.83706114258922 14.594496231642076 12.15787389479532
Cu 10.818289398276502 14.758258102613272 10.697638031867582
Cu 8.540513438714832 13.784264297693676 9.891415479787169
Cu 10.719244007170417 13.16767233193756 8.77425942848601
Cu 10.97562761382482 14.373096932837981 13.211591871683726
Cu 15.596844724794705 12.756755428893058 13.646079164971916
Cu 14.796797386016431 12.304635094796058 9.594440023554379
Cu 12.88544897462803 12.065678397184449 7.77737751818753
Cu 12.533654592302995 13.004023521277006 11.957541630801849
Cu 6.951237226128745 13.030192664255713 11.958194980722249
Cu 16.3896863722365 12.142508161230065 11.492850044710439
Cu 10.23642574569308 12.439782318939953 11.201948308117412
Cu 9.174552836329754 12.529700762123513 13.376899258260197
Cu 12.225049639571191 11.59566188950301 9.992827133390664
Cu 13.700187715464713 11.408755192902152 14.06964979942271
Cu 8.477083693524573 11.963174677667572 8.179576485335275
Cu 10.585046878201302 11.4854431347126 7.039980446210006
Cu 6.393459420860254 12.568257021462149 9.402517895022887
Cu 11.412289913083539 12.371381873979407 14.53991624921097
Cu 11.698386098909957 10.878828465937548 12.668813282388566
Cu 13.99840995816571 10.947113782536407 11.519112627770921
Cu 5.803629959702079 10.916371460837171 11.153510718117477
Cu 11.973287890235902 9.937313985438314 15.004052823384658
Cu 8.07393912361203 11.450498449904098 10.64108705879791
Cu 7.458958906031442 10.75901090390001 13.016670128838403
Cu 11.852627092488012 9.32614459884835 10.744632147050323
Cu 16.04154083580715 10.117917452899269 10.339670790535315
Cu 9.687926492380692 10.386047086273573 14.36228224905332
Cu 15.67418265797546 10.226426169460728 12.987720719758357
Cu 13.983539172063589 10.052289361244164 9.052890879726707
Cu 7.050916525976019 10.091821459738313 8.92260027445175
Cu 10.019123047743774 10.511373518255912 9.485410375822381
Cu 11.846870574229953 9.718169112117137 8.000998015783596
Cu 13.347632133305522 9.077183748820541 13.132209369820762
Cu 9.110568660104892 9.50190461479612 7.533447984136484
Cu 9.574191127049598 10.084402692410357 11.90538229253358
Cu 14.360377245693993 8.513868195832778 11.032160618819486
Cu 7.384227467829882 9.003560691506026 11.211083905909602
Cu 12.979438303210056 7.789826575588186 9.148318946543936
Cu 8.44668619248549 8.462874275504525 13.384880622848472
Cu 8.157702875226505 7.947088485229627 9.220500507266406
Cu 10.947123343451407 8.472212451324598 13.233645993314727
Cu 10.559389616243045 7.976121062187826 9.065842357417448
Cu 12.187173469508041 7.161513523690918 11.514836030327778
Cu 9.590321097599473 7.706831006342783 11.275968948298827
