49
Energy = -146.91728748 eV
Cu 7.3514765946195455 10.562760561493375 5.56408924705477
Cu 8.103137479732366 8.525263194703431 6.823891743926138
Cu 9.67697967124299 10.401903843049746 6.402741183124203
Cu 12.028769817972092 10.248768926854183 6.920572869244101
Cu 8.451085737186322 12.587795425456642 6.601799015964085
Cu 5.999595280166296 12.031800279431792 7.0858518640425086
Cu 10.562486276325052 8.25787055189937 7.237132481776039
Cu 10.910670913829115 12.518988889731382 6.716442555880735
Cu 12.881352562102546 8.016380328449172 7.971885988492065
Cu 5.768462688372041 9.55448241049663 7.182469121576187
Cu 11.323637600282433 5.987690541592418 8.084288138348375
Cu 8.93613711112515 6.872338128011516 8.441876272668436
Cu 14.096108457493816 10.160632391787171 8.221028795811497
Cu 7.453610961318774 13.031110970698274 8.792260093688208
Cu 9.608085328522444 14.000192190432829 8.324348875296202
Cu 7.758202510093484 10.659130453123767 7.986429379023193
Cu 12.599804494094155 12.116224497069194 8.444763524275436
Cu 6.941260697298617 8.52331594194366 9.113461575435307
Cu 9.303864251975618 9.212728712473753 9.247744780117205
Cu 11.864874643011087 9.94226809963994 9.379309620543516
Cu 9.995683532818859 11.61602923062376 8.79173092802193
Cu 5.743131561109808 10.87328896072342 9.362184495287893
Cu 13.13168914999136 6.265804663115514 9.849480253502213
Cu 11.152131514799441 7.644362834584861 9.727620572073414
Cu 13.78776698910338 11.103617187175562 10.477060228125975
Cu 7.951718678286775 11.082456464170685 10.429259209156958
Cu 14.004350716742534 8.567833167213875 10.098461323097277
Cu 7.635518441469723 14.71813630318867 10.504622907527585
Cu 5.964853501623291 12.945478112732385 10.66778374319562
Cu 9.6587225208874 7.746745993589881 11.651441308858002
Cu 9.417287173343684 13.165358372570132 10.643019909107503
Cu 11.65725565435825 6.204354827116226 11.809019926460255
Cu 10.190084897079362 10.366725102516098 11.200787885106509
Cu 7.492407818073329 8.909662917682407 11.481918133448612
Cu 6.0922529090251425 10.924750614867525 11.964728438115563
Cu 11.654059445829954 12.300404827864487 10.667624092076009
Cu 7.77056403538064 6.67205575300937 10.551169120382493
Cu 12.012698234702246 8.733279752257259 11.753170691982312
Cu 14.41255876472746 9.592622185017216 12.269171588188573
Cu 7.735275683329141 12.949820604624833 12.357362813678465
Cu 9.961273268253375 5.550094843515413 10.221235283280052
Cu 13.852188357935479 7.19027978053982 12.143360019550732
Cu 8.548348490675128 8.330987216753503 13.695053155945459
Cu 10.188415428698741 12.227446426268568 12.785640294213506
Cu 8.31172100190526 10.66050992218845 12.981268528095896
Cu 10.872289370399578 7.3995859395352745 13.770229993275326
Cu 12.419692754171725 11.020265323867187 12.617531943358022
Cu 10.527672453999818 9.795584964198468 13.610467942715335
Cu 12.847551836584605 8.839578632219386 13.983975407953771
