40
Energy = -118.04364732 eV
Cu 12.620229934979548 10.95306203054409 14.108352340502242
Cu 14.31155457203365 9.840027869215888 10.451419071644413
Cu 13.86121638680359 11.584003133808336 12.070320246215228
Cu 13.076574912231772 13.828498523725436 11.324435457941359
Cu 13.341791351831123 13.357794032671935 13.728909424288364
Cu 13.618750672867316 12.128266677662987 9.614204960438672
Cu 12.973975519539385 10.032390702891515 8.475766030006168
Cu 12.4984204969039 8.185444542178232 10.185754973289646
Cu 13.02114952371412 9.192797048903177 12.416115010724875
Cu 11.120578020972932 8.400615104213411 8.183519509735108
Cu 10.77655453690969 14.59585022497363 11.736340624347628
Cu 10.274216006406503 11.713622768577727 14.529629692442958
Cu 11.910890143766787 10.662561299838673 10.659178751903848
Cu 11.474816304488256 12.358693846135683 12.46882423716781
Cu 11.239977791659511 13.034560880448588 9.898375382294772
Cu 12.046629603369936 12.309164229826612 7.694092294537872
Cu 11.074272126133035 14.08946354010886 14.136429922244263
Cu 11.736240719170947 10.132497308473214 6.474026135575468
Cu 11.118452567783033 7.592629223381504 12.152709882755456
Cu 10.717940629315995 9.913527843580418 12.894374074809177
Cu 9.579428122725966 11.445786777267033 11.087106684768202
Cu 8.403100111723848 10.726006295362982 13.241189734428408
Cu 10.271104836780836 10.838412573542472 8.559710417951726
Cu 10.506407505666461 6.707909394279615 9.905902965488597
Cu 9.099334070157951 13.166948924678945 12.920720942507277
Cu 10.193013289433054 11.925986963481712 6.1294116535483285
Cu 10.015911520675582 9.092985570552676 10.44018606695462
Cu 8.834005276727371 8.362412647432734 12.551050894865382
Cu 8.846109907179294 13.745065580257336 10.473410123101258
Cu 9.543681199766931 13.147969146254043 8.146867775987468
Cu 9.432291150612485 9.33322729701461 6.693967410557961
Cu 9.215589985899342 5.9990856879809105 11.844052356705658
Cu 7.230874540917833 12.229389031940709 11.702856818435496
Cu 8.96313592932558 7.223925283113565 8.037445813905556
Cu 7.760313839595298 11.808853806010601 9.409019260493166
Cu 8.096370586574007 11.356472724726734 7.125883339339218
Cu 8.562801213256012 5.29900094766351 9.534960074239784
Cu 8.106272338823215 9.43704893948292 8.733397182409199
Cu 7.544812760428583 9.861825488009284 11.065471397525894
Cu 8.064824090285656 7.534106008394129 10.324548396610382
