40
Energy = -117.47554627 eV
Cu 9.655190223195998 7.318263644556243 4.472665270690502
Cu 7.39987638254542 8.34441180755837 4.225910996741616
Cu 9.389230378463546 9.786368647484979 5.054286511546797
Cu 7.694380780559561 5.9173659909402705 5.34720249985308
Cu 10.903176161941762 8.311365758791899 6.520641419454532
Cu 8.320047669188325 7.910777948619118 6.322220372041475
Cu 9.90993256567225 5.979113713821354 6.702768538320816
Cu 6.985449402825964 10.02156905884933 6.201764623182529
Cu 5.982218018743648 7.577816271414177 6.204919460672012
Cu 11.099536453821438 11.04226396781977 6.868667214438215
Cu 8.7134912858867 12.177809575642144 6.949894779984583
Cu 9.069719098034989 9.856779542490516 7.402213102629866
Cu 7.5372122309181915 6.167614682547485 7.939502614288443
Cu 11.688329407745243 6.8296715472811504 8.708332164649336
Cu 9.409906288616101 7.579762896289295 8.377976234712628
Cu 10.672502617837372 13.396858535861334 8.128010994736258
Cu 6.886179034543261 8.588218382664792 8.319354133382044
Cu 11.353258975787 9.341641117698785 8.717422843130983
Cu 7.15923117505697 11.074830510611056 8.62825956759506
Cu 9.854252152830826 11.423684873930402 9.001308880611262
Cu 8.279840216914877 13.16654300501686 9.418310466512503
Cu 8.737398289563572 9.467901363842026 9.70310911351894
Cu 10.355776424265102 7.849292887131528 10.534915061392727
Cu 11.675187531198073 6.121138758386292 11.276395139342089
Cu 10.588745687753697 12.866360608968009 10.673506138608921
Cu 7.70274952397821 7.245697988735879 10.29960084544433
Cu 10.918203912932992 10.318841729360914 11.04241279127187
Cu 8.647828072150288 11.478489901280703 11.28815556365908
Cu 6.559812376226468 9.539878226701125 10.736478091448937
Cu 6.4138833433675115 12.008167918918248 10.785455395697078
Cu 12.207201185011899 11.606498647264527 9.176180076804453
Cu 12.616283517658013 8.44014004443681 10.676144668087062
Cu 9.592146892189902 5.628950594010867 9.788105067108189
Cu 8.804764876947468 9.005100421801975 11.966743490226206
Cu 9.862130813679677 10.633413291849203 13.320106093417131
Cu 6.907483404457247 7.800475122534582 12.628468016215416
Cu 7.1866880001682745 10.36130680495846 13.024363790664122
Cu 11.015651911642944 8.363004954200765 12.790017522450231
Cu 9.204037210341935 6.591701810117116 12.274400501963223
Cu 8.771404233246301 8.591245173521772 14.234147671415455
