41
Energy = -121.12757852 eV
Cu 7.552730547145223 8.386425432383145 4.235710234139118
Cu 8.221381786173087 10.613562497301517 5.09443899758874
Cu 10.746102683262249 9.571401781758595 5.466128390924122
Cu 6.185975010927164 9.587949024518588 6.070954783720978
Cu 9.033649718745401 6.532674268767953 5.418217876633458
Cu 6.576284694054736 7.028533870715076 6.064269377773333
Cu 8.593342804586939 8.653790653035577 6.348469134769581
Cu 10.62030151810896 7.514451322852982 7.238187183929434
Cu 10.325424714039638 10.243585728251476 7.652307574575782
Cu 7.833222357113999 10.773812495898714 7.69818062186288
Cu 12.47895267753795 9.078193583463527 7.5481808894195535
Cu 8.933222379552335 8.626043648668894 8.69688347159697
Cu 9.8994439350907 11.975680610798506 6.082817049974032
Cu 4.489918419816976 8.20250442431706 7.43931424907826
Cu 8.308790500619924 6.321911098976799 7.760681362566607
Cu 10.534945471947328 5.13455130939297 8.081939443135816
Cu 5.459852959514056 10.386725046173254 8.540216585585297
Cu 5.835037046975054 6.18126654847572 8.383997269247926
Cu 9.37816290207843 10.66940450281443 9.859150463255466
Cu 12.169664736053596 11.461341852865882 6.871323241509266
Cu 6.71282352246256 8.35098031447074 8.047747977853932
Cu 9.511845229261802 12.568370133157979 8.454244044414988
Cu 9.96191576626861 6.773945702669754 9.670291389781783
Cu 11.617375672667826 11.431439893737384 9.421038246733604
Cu 12.263530181390296 6.798310335250075 9.046550917541182
Cu 11.277014064259903 8.957867345371943 9.65977622228393
Cu 5.204944110712747 8.240738313858508 9.991115328238093
Cu 8.634597222487955 4.823447958988569 9.798456183283646
Cu 7.365771860372094 12.019183879249342 9.950087992136792
Cu 10.80400858619612 10.2593595030595 11.783806496955977
Cu 7.422243734067464 6.989967747343626 10.107173456507748
Cu 7.182845136917904 9.61405670767819 10.055633199976194
Cu 5.64847644884114 10.547699598541735 11.473640248395714
Cu 9.165003897443869 8.571812180748601 11.104979135151655
Cu 9.833623704140713 12.601659619045439 11.019184017266895
Cu 11.270996670515594 7.456145569535458 11.66080231211446
Cu 11.078787578434405 5.022582651286934 10.650385300195735
Cu 7.003930055665916 8.426384151789161 12.180642758737545
Cu 9.028528583188379 6.304057664895499 11.924516116268064
Cu 8.203808898854037 10.698935063910733 12.055895279977218
Cu 9.588658729265546 8.556382480737907 13.349801691657072
