45
Energy = -132.76327071 eV
Cu 11.044515903797544 13.765890741333823 9.483045158328713
Cu 13.335318591364013 14.5024348538297 9.909042449391553
Cu 12.854184284177103 12.340344352602514 8.743109030286032
Cu 9.172465293911651 14.985666049888339 10.622713539890587
Cu 11.329395421995004 14.95204055036445 11.670735589016116
Cu 8.708361504101868 13.531860224235144 8.738634501923425
Cu 10.563819297102816 11.805203150102015 7.911885004144091
Cu 8.213052731981676 11.913280097857916 7.085092243219391
Cu 14.699108862927286 12.412159395366103 10.28868448618965
Cu 13.600664036133546 10.00178227467953 9.378312560108176
Cu 8.946854729963528 14.18519598545486 12.972684032532248
Cu 11.336806726100777 11.140733983841141 10.199755624428347
Cu 11.356835248172448 9.390174353963387 8.454023452880902
Cu 12.601866123001049 12.936376407972595 11.521708167577561
Cu 9.997825912363544 12.708324233014125 11.479567589540677
Cu 7.5159863362997905 13.246447876042401 10.86564736467061
Cu 8.998543597881726 9.691915542068614 7.595943818744467
Cu 8.864997599112405 11.251077033884279 9.623673007971306
Cu 6.612465949285972 11.892861785242225 8.959825430307685
Cu 11.29082537299734 13.32896817720744 13.562263863597597
Cu 6.59606241442949 10.169161315888749 7.113558266936352
Cu 15.714935018712701 10.214051815840165 10.669343304374243
Cu 9.960265738928726 7.475745861758032 7.82422395837113
Cu 15.352801143468062 8.243531625620667 9.284189335018329
Cu 13.585946933046856 10.746901084253144 11.665705191079182
Cu 13.525444922599707 12.055828626638993 13.684487231391394
Cu 7.092131561635587 9.44936146579224 9.333434364666324
Cu 13.041878976294262 7.553328805751961 9.395212290211154
Cu 6.882837191578707 10.907683532394277 11.269259052009614
Cu 9.360928185540276 8.677523392684542 9.836831672951659
Cu 9.444038611782341 10.216603400010246 11.772987050347322
Cu 11.525319396973844 10.93484330661953 12.905605316345833
Cu 11.756463003122086 8.937066035716567 10.96730544883249
Cu 7.128774701682183 12.515046725663321 13.100746245904958
Cu 10.833630647353138 6.793980937798242 9.992705074722384
Cu 9.356475816707343 11.832721468151952 13.820098512709022
Cu 14.255099851209298 8.352637762639247 11.448355469038267
Cu 14.26860841484592 9.65281644734942 13.664275075752064
Cu 12.455133685661211 6.683957620354649 11.795097824230679
Cu 12.133836848401964 8.529457223330642 13.363506341643683
Cu 7.600499904300147 10.134497509413356 13.491062938862012
Cu 7.691795748852094 8.53654843540858 11.597730456618859
Cu 9.910210695509617 9.384323840199253 13.99308862746684
Cu 10.009706763436064 7.721882976698448 12.143325717907171
Cu 14.169953568705463 7.192850158642725 13.542581001914652
