45
Energy = -132.78804892 eV
Cu 7.120415345828537 10.223562744942228 6.946794860451949
Cu 7.433790652329675 9.901157450487904 9.313873532250128
Cu 8.960138292372763 8.761506213398107 7.746328046568502
Cu 7.937430747287473 9.421333996041604 11.6463848718328
Cu 6.870307175939802 12.151361141271638 8.551648267659465
Cu 8.217641119401824 7.666941819824691 9.761561247112729
Cu 9.072402999603847 11.208956719550454 7.927893034403673
Cu 7.297156933430753 11.712233953220348 10.979144083537198
Cu 8.369403869495704 11.273541625600444 13.184611048466557
Cu 10.71216700954029 7.525304649370043 9.064928827552288
Cu 9.73329253029096 10.752809780738051 10.437897147417626
Cu 6.839491459714617 14.050848953186838 10.157811160243728
Cu 10.612535440418764 10.026434943589953 12.649344613361654
Cu 8.05977308381576 13.6741938773235 12.229810433397763
Cu 8.910863265043634 13.024813191479282 9.623843728508806
Cu 9.891147145587675 8.116035611864422 11.33159769746507
Cu 11.095141444374509 9.835059261873234 8.144185098838054
Cu 9.068074428617628 13.356390579436042 14.417911310453858
Cu 10.399108280674607 11.346072508161386 14.711814311882382
Cu 10.273217047334517 12.500097290580365 12.408382582487496
Cu 12.880942146217258 6.232060943617508 9.212859065225143
Cu 10.978151901506696 7.759715911240096 13.48776199190631
Cu 11.952871926289887 6.919359497730215 11.339870419673334
Cu 15.105878911893507 7.074002854741621 8.60759036620306
Cu 11.894167199375119 9.29444887385642 10.416689957414182
Cu 8.987237040597616 15.320597256557697 10.68814130169182
Cu 12.072543252956503 11.654188361443282 11.050850888034027
Cu 12.053469947697918 9.564116373259257 14.778725330096282
Cu 10.178839096838557 14.896155769516263 12.814468344382345
Cu 12.924438946703674 8.868023431607199 12.632864592115899
Cu 11.134294689719063 12.186761299990438 8.77455658571185
Cu 13.110295423492857 8.473258263662455 8.34824522945268
Cu 11.565954365693214 13.470342907809231 14.39270381458577
Cu 12.776263935860552 11.48682827334508 13.370407368493803
Cu 13.259330829794068 10.923340986071338 8.850201711593025
Cu 10.97727079974781 13.946088705653011 10.388828362987724
Cu 14.08039941456044 7.88696239670664 10.624530163038164
Cu 12.503235455944953 13.987491431699466 12.21301820920048
Cu 14.217843069854267 10.28835917942973 11.201369946419799
Cu 12.580960725296565 11.755832477099366 15.77838902076938
Cu 14.413650461824032 12.58288853090601 11.872420072984706
Cu 15.248249122704983 9.475404323034587 9.093617497439704
Cu 13.283362983887846 13.316558484649885 9.777138421850596
Cu 15.33382339893949 11.86854288946832 9.71694449521865
Cu 11.45253015138459 16.079517734849507 11.171544409504145
