40
Energy = -117.39424345 eV
Cu 10.44816629999014 15.618431310625573 9.679915029627239
Cu 8.21447035518578 14.529532553672038 9.838549044557427
Cu 9.472819143705257 15.073187721025455 11.829337044513153
Cu 9.667252492913201 14.111281376803374 7.952635586857492
Cu 6.3342074652510405 12.980049877744872 10.127186168852692
Cu 8.349604422390541 12.190867453713325 9.013503456785617
Cu 12.047289279685097 13.918050997644675 8.792540767414305
Cu 8.223097960962706 12.847637899679997 11.661112844666459
Cu 11.91658658838713 14.562529289132884 11.403161736552285
Cu 10.352747037910756 13.086834095423331 10.30332201323918
Cu 10.427968621438113 13.186200011371263 12.887898556363533
Cu 7.125280723715407 10.725078848966032 10.747818676225307
Cu 10.67267937815529 11.974536898830527 7.989719282627194
Cu 9.464861349298415 10.848376379723344 10.795590353101991
Cu 11.530344809539551 11.01729531715172 12.157108865650361
Cu 13.070279157688372 11.771995883232771 8.12257837768249
Cu 12.816902742862451 12.991258996247181 13.083954494549014
Cu 9.354543411822558 10.024243804287005 8.286629556115653
Cu 9.107744293783181 11.275608206810622 13.376593123334567
Cu 12.944754433655467 12.45367331884401 10.584384459717988
Cu 11.656383576689564 10.421692287038418 9.7309347300177
Cu 11.700219339470815 9.784239993131537 7.326582830548399
Cu 14.182238866483237 11.111159915539018 12.30041257590062
Cu 11.332514303224407 11.566579175183106 14.57657202701707
Cu 8.45439252133772 8.627239743194679 10.036789387607545
Cu 14.168301308217195 9.787376328359288 7.326249529576331
Cu 14.306324450303913 10.498302338484791 9.814855930761471
Cu 13.783829458523781 11.64002280905786 14.816226172957712
Cu 10.620536443582026 8.757658867178018 11.375160325280005
Cu 8.341140354458203 9.199338704804125 12.416839087441266
Cu 10.66738876010274 8.095099897634052 8.893049223086654
Cu 13.100862741637146 9.09054970386791 11.422531170785035
Cu 13.095761309488742 8.48743707243221 8.994272422829935
Cu 12.856971783650037 9.6840440323115 13.84080855840145
Cu 10.422263470520313 9.318880274561108 13.881754662843681
Cu 9.685784794363773 6.591838642408787 10.583050719444165
Cu 12.139868975939104 6.9259218249162195 10.603766986507807
Cu 12.020905061005374 7.531949840252412 13.047032711215456
Cu 9.573925541002529 7.180705592719652 12.993665098976772
Cu 11.09846460873609 5.401074528722765 12.223822658172512
