41
Energy = -120.86418622 eV
Cu 13.876355388127594 9.594811180677427 10.549973339143722
Cu 12.818295488682864 9.981298392220106 12.731872216802651
Cu 14.624444729245655 11.44616862060668 12.04195126968503
Cu 13.528716963338658 11.750615467377328 14.300825038900749
Cu 11.297243529666748 10.759017495812612 14.468276375160558
Cu 13.756727506337565 7.1245907530532095 10.194087907776519
Cu 11.887685655453536 8.38428040815599 11.124014283235729
Cu 10.586009456212714 8.837861605672613 13.105975301168472
Cu 15.571545959330772 11.072727993617962 9.722075251507427
Cu 15.10079964603484 8.645202768091766 8.737106724882665
Cu 11.053403053288983 6.759375158046924 9.523920325848225
Cu 11.497648004339915 13.183646959717352 14.4901287075891
Cu 9.01640694845306 9.7883715108194 14.64223598824713
Cu 13.327860563318367 12.042443841186147 10.091469975050106
Cu 9.91997783294067 6.879976021257482 11.652443534775223
Cu 10.715312199859666 11.048816989679235 11.868041136131502
Cu 12.500873541785753 12.683896103859338 12.32805703329359
Cu 8.281548599426971 8.067315491145711 12.957743442248521
Cu 12.617583892771282 8.426776209173621 8.577987404779888
Cu 9.36834736905231 12.11120727792319 13.878911465539655
Cu 8.273817108825389 10.459177724650052 12.393419717612163
Cu 13.741735875819815 10.595246435861648 8.174327087163835
Cu 11.4221488398497 10.465373460915428 9.534369800066596
Cu 9.550522458851768 9.110792270182943 10.709299532783266
Cu 8.55479120334703 7.228174152947786 9.576919548347297
Cu 10.30748281135112 13.804222534773642 12.377799483880269
Cu 7.116961473732036 8.776440807559124 10.916457880190146
Cu 10.147040727956444 8.658201946029635 8.284311269904903
Cu 8.089232802827407 12.850631168296689 11.925406020482741
Cu 11.74090932097472 10.008348773919893 6.939942142560424
Cu 11.16371693818783 13.07201660254224 10.2276230110363
Cu 9.144387796575508 11.543624876405062 10.06685077966432
Cu 6.775222612969399 11.192055902802048 10.474119147864592
Cu 11.919217092671712 12.286341779801662 7.966796271993172
Cu 9.707931008784918 11.047675983309059 7.6773437749657205
Cu 7.943576029716726 9.714097299081672 8.819584290061467
Cu 9.065659639686999 14.39565147187942 10.29383421188674
Cu 6.746788791049629 13.639288055258817 10.062647824590918
Cu 9.775943217234387 13.411749366229895 8.194072367177965
Cu 7.5900264327978535 12.2196475841583 8.275284777992301
Cu 7.789854577715386 14.707609434713557 8.1738272150082
