49
Energy = -146.40770541 eV
Cu 8.785201661054037 10.05003789998898 6.83290506050864
Cu 6.75708528234431 8.841335108794489 7.2896341353390195
Cu 10.869786499088695 11.230839082985943 6.467300364641207
Cu 11.467428708992353 12.932975748401292 7.9944621375320795
Cu 9.169777129524128 12.17695097822328 8.072245506958108
Cu 11.054051029398005 8.832483157397865 6.498803623148004
Cu 12.700249528279853 10.358625212515376 7.933423812625852
Cu 7.064371456895485 11.00450839818741 8.412140921692764
Cu 9.025794578080863 7.657649108373401 7.4191688302531
Cu 13.773643472825336 12.48803988822831 8.48986914089252
Cu 12.445592387629373 14.042027695612534 9.92183946800742
Cu 10.027877959761428 13.48436114501555 9.97123301506981
Cu 7.032702736958437 6.947759024129424 8.793246357722243
Cu 5.838099581245461 9.057084147279548 9.593334300084264
Cu 10.440768845784232 9.89621781822558 8.655167833084844
Cu 12.524714781175584 8.967367048581716 10.00820555453372
Cu 8.258754911030048 9.035842878510167 9.345814674587205
Cu 7.50400318883176 12.990408965479885 9.853179658073268
Cu 11.765889703036821 11.506883889837697 10.013661055273785
Cu 11.21944814718812 7.548336111378853 8.552332297286267
Cu 15.831531256741773 11.677861930867795 11.8361667089513
Cu 5.510010948128354 11.457021320794658 10.16204903085516
Cu 9.250749785787358 6.732638990772321 9.729165234463531
Cu 14.82185361079687 13.43206530174747 10.463500787963707
Cu 14.15419155043937 10.868712666836645 10.277499976539513
Cu 7.312109605045816 7.636214239551223 11.148775289415628
Cu 9.039652132659592 11.189362584055273 10.381557882541328
Cu 9.29179547572373 6.609425558836512 12.125218633955862
Cu 10.16286640897936 9.130099829512789 11.104113667590555
Cu 13.040420268704535 12.636618506297928 11.967576103710899
Cu 14.747468492330666 9.636582052361407 12.463936803245153
Cu 11.40449912423153 6.9169020146888025 10.922095855705978
Cu 6.965767125136674 10.033260575148995 11.516255546606539
Cu 13.469964277583589 15.132456316543946 11.803617761947635
Cu 13.215186569120265 7.8492305557681314 12.18829638121386
Cu 15.069251322426096 13.690977023037613 12.941592758394455
Cu 6.524704891897741 12.424970105859009 12.094942446704275
Cu 11.125191556230122 14.369682022952455 12.081748331866722
Cu 8.704246003596143 13.494736264723281 11.995411784484617
Cu 12.345175239625922 10.228954302148775 12.10628695684336
Cu 8.44597088707058 11.229228698204725 12.998198249747615
Cu 14.331599588796328 11.53572131337012 13.859484055538447
Cu 8.560647860978166 8.771300736125589 12.978377667581407
Cu 11.044566496541767 7.875872280654218 13.212250814661997
Cu 12.841413764208399 14.025629552934332 13.927958951003735
Cu 12.883435394213215 9.371809256188673 14.234828995811197
Cu 10.59918963817501 11.977156658706075 12.175443349278792
Cu 10.420876504635267 10.069857486047754 13.816144561143581
Cu 12.004342347738769 11.789838264783745 14.213457381587327
