40
Energy = -117.27684687 eV
Cu 9.924037323726854 9.672953341771466 5.143817331246165
Cu 8.649325096221498 7.426163466995696 5.55546873538387
Cu 7.250051904086763 9.665456673780808 5.923197412002744
Cu 13.276026147549754 9.407953671992104 6.249827867227106
Cu 11.252306536194457 7.838858047621908 6.472382083367167
Cu 8.935413166468157 11.36952740796803 6.825752350621317
Cu 6.196358334051197 11.744437465662932 7.247251040955471
Cu 9.161108632599557 8.929708122118099 7.2006850398346005
Cu 11.28820985832589 10.335780375736896 7.2017990033804455
Cu 6.936613821001482 7.655762542871156 7.5627089665981755
Cu 4.787390831913448 7.158415735008451 8.987906170922772
Cu 13.556067340128376 10.823461387042762 8.31063088335639
Cu 9.227735792940965 6.479429458927046 7.935417110542948
Cu 7.3550725928788525 10.10017374855503 8.326726544539309
Cu 13.121392159048838 8.372067694130429 8.424129949217544
Cu 7.153880861719425 6.336658182416734 9.74918445908593
Cu 11.75467571294656 6.158740756860392 8.76041208688745
Cu 10.767798629981694 8.219376051354244 8.835850427139022
Cu 11.323754219056935 12.24345513563321 8.888073110522582
Cu 9.619432661210986 10.55920379194733 9.073759108921807
Cu 7.887852761071709 12.288533408193327 9.109311251100523
Cu 6.265577536756494 8.69486086205871 9.95306607780382
Cu 5.682000079389603 11.090314527096577 9.816516803688927
Cu 5.339668841666734 7.253780730369888 11.521385386958276
Cu 4.012576862458108 9.106511852303731 10.379417998775876
Cu 9.86305662961754 6.567730451337577 10.520423441056804
Cu 10.332755724299806 11.513753691483965 11.263487168411784
Cu 14.040127738303887 9.641075195580132 10.50728201071237
Cu 8.47276818256059 8.264383493203088 9.446755680774116
Cu 11.864623290075945 10.082618422973178 9.818515991816026
Cu 5.064179389485431 9.453256837108368 7.928283064795822
Cu 12.89482699973339 11.870478855351859 10.846902879817796
Cu 12.166442073099672 7.743863883236016 10.82203182582226
Cu 10.02276964147826 9.074463606726935 11.07117365765621
Cu 7.914105819558635 10.478646273688623 10.924199126003954
Cu 7.871852815101811 7.998185481432274 11.870291752720043
Cu 5.884167614104085 9.663880083286791 12.083099697521094
Cu 9.09952418795516 9.902699589983499 13.036113845190439
Cu 11.98231876113517 9.833604704555887 12.275642040766035
Cu 10.481459422689117 7.6590809842256995 12.810426609448594
