48
Energy = -144.12137902 eV
Cu 7.543954974220004 9.564175093636802 5.230777023919742
Cu 10.072146238579037 9.007580734361552 5.340633358541825
Cu 5.986610599891489 7.5635380202352005 5.273705658341896
Cu 8.370865974055969 7.239176751413859 6.06385211939812
Cu 10.751527783484764 6.496586491712818 5.528704670790353
Cu 6.918589276662503 11.952341913066112 5.236715614107269
Cu 5.155801153214042 9.87854698662005 5.9456940436828125
Cu 11.112353041094128 10.282332192114797 7.315107481258772
Cu 12.371883822156786 8.335136455198569 6.178510617166204
Cu 9.20461096738388 11.39185260292587 6.107042321326192
Cu 8.716621270236471 9.424383354680744 7.37712693722075
Cu 9.525829155158178 5.5522010385002805 7.6149029719471955
Cu 6.565637509290447 8.49527888045693 7.374004314062479
Cu 10.43596678463807 7.768307945619197 7.45528286330342
Cu 4.3390987114898945 7.7677398211851605 7.158014782119438
Cu 6.480740079867844 6.128136436658629 7.3617448549668865
Cu 12.236843369632586 6.272175176109194 7.731149207320119
Cu 12.458908443616542 8.609798202412145 8.674959185813963
Cu 8.057691026004328 13.087239527134658 7.363531677550083
Cu 11.742849265233566 10.917208851760279 9.721422383576144
Cu 6.786778213574562 10.989642211210473 7.365763985768817
Cu 9.976628174394994 9.238597933147396 9.30731519515755
Cu 10.508224065153158 12.575590641576213 8.057711874517697
Cu 8.741798666577086 11.360119289918314 9.02766400471654
Cu 4.946906610960472 9.762020250629872 8.626300451030747
Cu 8.280588539004304 7.184788156441134 8.878531629620568
Cu 7.999486050387314 13.457666156480883 9.808769229576301
Cu 5.548374155785788 7.464964670572353 9.37089557894504
Cu 10.732333848181836 6.668850100707839 9.654617417101614
Cu 6.8478897068396964 5.381915414577727 9.683674455226553
Cu 7.435215427655756 9.384409922130674 9.62180637992383
Cu 10.180362058582002 12.634664544182932 10.568790726300438
Cu 13.076232973849898 6.997444351771763 10.48074808615203
Cu 5.692884001697904 9.578343439198056 11.137272599046574
Cu 13.73559335011486 9.482808401478271 10.724802998176067
Cu 11.537765920204665 8.72806099194024 11.010182573583362
Cu 7.6654372012190075 11.453156072327516 11.385591460952641
Cu 6.185698087317518 11.650386243602108 9.582937319996686
Cu 9.204671047535193 8.012117971846802 11.163328818358194
Cu 6.900597415702551 7.260545100639628 11.344047131770392
Cu 9.797161392212708 10.443118473290772 11.48877692193002
Cu 8.876925689199423 5.655938191437087 11.002872786978944
Cu 7.811090937412111 9.291584498574435 12.582731411607364
Cu 12.876077334378284 8.249238725159366 12.83707640099663
Cu 12.130422971116307 10.659771694148112 12.262819726870985
Cu 11.003588217050918 6.591608276859133 12.182415271604148
Cu 10.407753552442513 8.811432546245282 13.218269105425684
Cu 8.680871008097649 6.913365316662828 13.187290434810281
