47
Energy = -140.37292006 eV
Cu 8.461498892697714 8.517727666859384 7.717037717057938
Cu 13.570000418267409 11.698873202125625 8.691092548807687
Cu 10.1689916412156 9.877731524711354 9.160769447176325
Cu 8.33244169384638 6.066315634031292 8.893298576765178
Cu 12.264527232382934 8.127443472433642 6.231251686736329
Cu 7.123858080541794 11.505961204976757 11.144055958015148
Cu 11.362112504976972 11.763870601722907 7.994234986586118
Cu 5.546467900096992 7.0399022234215956 11.759952970196323
Cu 10.350925031561111 6.1093409008519375 10.629073514608686
Cu 8.57470179940171 4.268409264971854 10.523671575253651
Cu 10.617507304362679 9.640471146254345 6.840129707626448
Cu 8.08079910880563 12.74815988737763 6.097584797145879
Cu 11.831724688416713 11.076079205742385 10.408794601502136
Cu 12.80281708123959 10.670681020168109 6.372135803429104
Cu 11.66750744505432 13.43089733262807 9.572900346784188
Cu 9.193572258920138 5.221999640220191 12.820639014975782
Cu 6.286766098597823 6.628405651256402 7.603479092493559
Cu 7.378057532725284 6.884263993459552 13.549060862972082
Cu 9.679680928651791 7.97817871660651 5.370134958820375
Cu 6.733481899274721 7.760645368214442 9.670893434948528
Cu 9.414402048642465 10.18185223333032 11.495047855461522
Cu 8.518272604357248 6.2502666258809665 6.520264867898713
Cu 5.284470269733401 9.40339124787511 10.614097514936699
Cu 7.590063339836194 10.102030673818394 9.404068045871302
Cu 7.340629377833051 8.912551042184864 11.922509442176926
Cu 10.338869391909297 4.984107122878842 8.420980145705139
Cu 9.48933512208973 12.146656922636778 9.960020448918481
Cu 7.0506863104988495 8.334610844288239 5.862077293629692
Cu 11.359262071628777 8.520915280836157 10.746439907149844
Cu 8.967710543168678 11.210125768286959 7.607494628854384
Cu 9.051390027867134 8.118387087725326 10.141479577983523
Cu 11.204243810788892 9.882498469423139 4.56917690402995
Cu 6.693014776912551 4.7014805263532224 12.316534986931304
Cu 6.709262566508677 10.729180438516684 6.8933859445300945
Cu 10.446932049088353 11.940453062056832 5.725908046158907
Cu 12.509332669826934 9.42727413886945 8.543211183658881
Cu 7.884198654304092 6.425486521171279 11.320848935609021
Cu 10.866248795449955 7.457389803587901 8.37143644594759
Cu 8.650900787177763 10.240907354745724 5.348667790928534
Cu 9.700697686782329 13.526204577395005 7.852778150883472
Cu 4.490719393794138 7.127453147050703 9.470949355235481
Cu 5.457709975058859 11.237590961989454 9.041729664183173
Cu 5.532891450371919 8.970808388081107 7.974182828190609
Cu 10.951257664954813 6.0879228459887536 6.342916364891747
Cu 6.165557313512977 5.314435304713632 9.91845203111078
Cu 9.564133793720401 7.782724174754638 12.521331904037867
Cu 7.395368118595921 12.622937932978779 8.698818288637698
