45
Energy = -133.25111632 eV
Cu 7.842687558055382 14.939923398827018 11.851662281955267
Cu 12.598726109950162 11.494173558870731 13.020385717603727
Cu 9.701327271224262 15.504941278590689 13.234857170454633
Cu 13.69144216175533 8.558417513324637 7.388874676239858
Cu 8.572495977815393 13.36713892883096 13.667849856015996
Cu 11.094422763101878 12.13841470103633 11.23316027460888
Cu 12.397688746944407 15.372832331679612 9.924896684568592
Cu 7.592699681622849 10.825070757549629 12.492384438881173
Cu 12.601632029850762 7.68012201233798 12.999616397009822
Cu 9.42194898071239 10.293409451217164 10.889855117726258
Cu 12.379211306976652 13.038977171660521 9.201168279684081
Cu 11.720488560837218 9.570046876620092 11.584243683992296
Cu 13.046177429211355 6.742888159560647 8.933901672394583
Cu 9.651932868531402 12.430459532022128 9.20593946339919
Cu 9.303511813689566 10.269674557320501 8.13948360518578
Cu 10.52923009502167 8.41638098233364 9.66245828333512
Cu 13.354014158428082 9.07185862964387 9.741228581368857
Cu 11.097732681250053 13.570822403355917 13.250524275175332
Cu 11.129343925802178 12.012520609082825 7.331604336487075
Cu 10.598607510654283 14.486578118743209 8.399028400306777
Cu 11.433977525522284 10.659311392692217 9.3469699009546
Cu 10.18722345596788 7.875668110355162 12.51939799388027
Cu 14.04452527824379 9.516707661572317 12.204646924554213
Cu 13.47506700390363 11.363316015495798 10.649532802455
Cu 7.895298385703816 8.40998737923968 11.996981895257283
Cu 10.654346087500945 6.085344022832111 8.80695389490941
Cu 8.619125079544888 12.721091185946234 11.38196445059682
Cu 13.386942439579052 10.94059218611571 8.050170723515386
Cu 9.506267828638151 7.885518236500211 7.5495021297620175
Cu 10.279280814576762 14.608635247393405 10.92281935974103
Cu 9.058193444642107 6.704766374078041 10.60772336274502
Cu 8.304290884569664 14.37492260495908 9.52168108563531
Cu 11.672598601361216 6.701433865806594 10.962404431748645
Cu 12.963096865789979 13.63814698516529 11.582153638476015
Cu 6.597694462970943 7.0383943896123045 10.53058540703367
Cu 7.96879334971513 8.6749404292142 9.426722653928582
Cu 11.451886410841517 9.531948634340225 7.162140705984797
Cu 11.396407739712526 9.53227584367099 14.025266112564944
Cu 8.94322796745067 9.328254384006652 13.991975243324784
Cu 7.519904805334371 11.187990477411509 9.737214286038324
Cu 9.961888132737817 11.371124711658537 13.259647168211536
Cu 14.06703745227215 7.2276432076125445 11.109584110315117
Cu 6.134924135522806 9.505232557135772 10.830461430711413
Cu 11.933013721940958 15.741479745143264 12.300359350465172
Cu 11.771150787315639 7.1421076722281756 6.921502033592293
