49
Energy = -145.0103637 eV
Cu 14.95108475713609 12.291087823247889 9.75424248222839
Cu 13.508959111300607 10.217126064793836 9.63665481231711
Cu 12.750623197219616 12.504350693917038 8.87299735291459
Cu 11.833162856526746 14.747818119196314 9.111755699030503
Cu 10.41109438004842 12.923013107695223 8.338523490831072
Cu 11.095058336177704 10.906764562861007 9.525376344696914
Cu 14.29947168009461 14.532715734771632 8.853796703508078
Cu 13.425574521083261 13.954993384029114 10.998822779497562
Cu 17.132692553043782 12.224622220353243 10.810377469354753
Cu 13.286980570470726 16.319306212584127 10.348475173512716
Cu 13.948229734403174 8.750757101095264 11.69469609853545
Cu 11.58565948083977 17.602573739825576 12.363766528117798
Cu 10.897735180225745 13.070555700344928 10.7289870744226
Cu 11.239930184669134 15.39539089169801 11.395073957506565
Cu 15.59067362659593 10.3209775076505 11.027326259634647
Cu 12.920589723216898 11.404045347514495 11.690577330548145
Cu 10.462408589822427 11.011244496483203 11.978552153212092
Cu 17.23277358536755 13.614324588587085 12.810799049089104
Cu 12.251574285665386 7.191637120682458 12.415845325484444
Cu 11.67127296024362 9.071134456312038 10.920537116775547
Cu 15.800620135297784 14.439883057841822 10.912707968839786
Cu 15.157571809296233 12.370627342203731 12.270828616556004
Cu 12.12039320885986 13.543423568669063 12.902989090291205
Cu 14.9487822137308 16.43536214891731 14.832517056769394
Cu 13.282469538845106 16.015243586136332 12.74909069247749
Cu 14.756345456505377 10.302996042768378 13.469839596894012
Cu 12.129165320916487 9.453291843028417 13.252714199137047
Cu 9.757340769493828 13.314653374185013 13.055175202564731
Cu 9.076366042774923 14.680281204509173 15.22244564685292
Cu 10.82266917269501 15.665064335762127 13.775648556637188
Cu 15.031068458969036 14.511985083586897 13.30976616814759
Cu 12.478027964099459 17.276080547966853 14.70831759374848
Cu 15.9699133897355 12.359404315293059 14.611156999434764
Cu 13.89669328217602 8.078690585525532 14.077263855901448
Cu 13.532684341981494 12.287399238321253 14.340684721155354
Cu 13.478645112689936 16.361114876497798 16.817252801519643
Cu 11.224144309839259 11.40720216091702 14.20543827746222
Cu 16.85901172331133 14.63639944788552 14.981128397567396
Cu 14.432764090665932 12.077452413290281 16.6103915594681
Cu 11.123830540349001 13.565504982889527 15.139977943591742
Cu 13.162087458058362 14.810978134371224 14.890171838460885
Cu 15.025333410469083 14.517378046607586 16.54775523164509
Cu 16.79128934347409 12.940003337085287 16.79731856121633
Cu 11.109003033314808 15.781648663890433 16.294307291787593
Cu 13.212091019162987 10.08814738639587 15.40389553705695
Cu 12.72173599835941 13.988394557365556 17.20644286064625
Cu 11.80036122594087 18.041741498925518 16.888488846858895
Cu 11.965306588145125 11.80051591696237 16.573401689430284
Cu 10.26724322664634 13.623200928514446 17.304207496618524
