42
Energy = -123.48664462 eV
Cu 7.876265994625601 14.596729657589432 10.309487589997312
Cu 8.276539062094669 12.416157319152145 13.315360699067856
Cu 6.64638781659755 12.826913615958912 11.466628994812186
Cu 9.555055975655346 10.374481430801906 13.709339586543305
Cu 11.16133682013666 9.150649456652946 15.252351927659092
Cu 7.550784558239242 10.502600185780189 12.068968665010004
Cu 5.863004876861153 10.853241216960098 10.29721262810621
Cu 8.618763643418415 8.332604791087546 12.502172866125472
Cu 9.184726295529238 14.418665957409804 12.372751500550324
Cu 9.080492849297936 14.285628580505234 8.24350088537206
Cu 11.621989124089355 14.729076901861337 12.299395109500809
Cu 12.00001962787135 11.039538376237356 14.057706489894288
Cu 6.796062596240892 8.612800341504563 10.78358572517021
Cu 10.612029340909428 12.385656859881244 12.527941492830077
Cu 8.921659480123177 12.391565731270966 10.776782336044162
Cu 7.192297783937546 12.611534790964726 9.034139536467473
Cu 11.022723344343307 8.57945913943808 12.949194908279589
Cu 9.982067013240163 10.190335479555747 11.221985473741736
Cu 8.07590122623731 10.283205980526105 9.489586936681565
Cu 9.085011270111687 8.06479138052759 10.124012087708941
Cu 12.982006515896112 12.753784603201337 12.531969734661804
Cu 12.463509863008367 10.331743468406025 11.748249832507955
Cu 10.447429423414228 14.312259127781 10.258791080252958
Cu 9.583730545333696 11.971421193370704 8.38708248455516
Cu 10.356978370220663 6.653142938063007 11.722572972236936
Cu 12.886017627218608 7.281575627991319 12.020264270082897
Cu 12.936077135822563 13.875384279732044 10.33374381950502
Cu 11.46490407974311 11.906125586160368 10.06536915768709
Cu 13.250607321287498 8.929703682793772 13.832774072382163
Cu 10.372264118556851 9.715153530487456 8.767733971463219
Cu 14.483887660709831 10.94068487488752 13.156588798453614
Cu 11.51790455048676 13.607749556978805 8.228302450259298
Cu 11.508102657532381 8.31057655976431 10.391447326347075
Cu 14.652105137063858 8.944475291921336 11.721117472913472
Cu 13.644367009195188 12.296372387712868 8.586213865080031
Cu 11.776614990369632 11.267385896733773 7.446710867708408
Cu 14.380449189542938 11.823067447712644 10.82212724933342
Cu 12.821379087243217 9.982814586431537 9.244933748081113
Cu 16.349052599562114 10.609666428742793 11.53976464599381
Cu 13.872285905728337 7.839528203472309 9.743276958134036
Cu 14.125827570042587 10.30215610239258 7.27688419345541
Cu 15.22036178766247 9.945373110627765 9.470998908066687
