45
Energy = -133.46914294 eV
Cu 14.31022094859861 10.615281090194378 9.423225767703133
Cu 15.190366906986426 8.470996136740133 10.326890384324786
Cu 13.907977250961906 7.76487460623136 12.242040488385639
Cu 13.086074827226577 12.753593047837397 8.913318090896817
Cu 14.651050978491675 10.186392803047745 12.030880398747
Cu 13.091743343796601 11.909971074402742 11.244282217775144
Cu 13.01490564671418 6.93450044261007 9.968867406159406
Cu 12.679158909192992 14.326188174618478 10.760877413056871
Cu 14.096370813771253 8.459243643481077 8.229729762067796
Cu 13.516072973795737 11.763782022821433 13.653258617750081
Cu 11.764841606383118 13.264571259017174 12.803482402212207
Cu 12.820949302936855 10.45194644739206 7.413566361696273
Cu 11.290243081189601 14.519396852797309 8.680744236484731
Cu 12.505085781371998 9.63769019146129 13.159218614685468
Cu 11.655155952940055 10.866841754908886 9.412378262797606
Cu 12.767032740652686 9.234070306294559 10.714857106440148
Cu 11.455753862161059 7.595211831206484 11.968418715444516
Cu 11.036598335300722 11.362899478631547 14.188054520931809
Cu 10.771926215107163 10.936763026220058 11.748237490568211
Cu 11.092843386848477 12.366359842985974 7.535227776667182
Cu 10.600888556440891 13.084478954115776 10.56752965441301
Cu 11.708707338509342 8.35851012221345 8.425492901571616
Cu 10.356993972722051 10.041732834268863 7.252832173272497
Cu 9.919658699654084 14.248101079842051 6.618090973285688
Cu 8.99403532057828 13.522999558531945 8.706606177911658
Cu 10.15408971087844 9.052863510850043 10.31581756438424
Cu 10.482000532039784 6.683531984825592 9.867554868903508
Cu 10.131912449564522 9.16297211748429 13.380757688265255
Cu 9.289657592977617 11.109332637618747 9.268920409042936
Cu 9.416192665408472 12.723474510561235 12.845091347697105
Cu 8.977505588425691 7.5768490790529235 11.84967334388779
Cu 9.29067143968207 8.028937262895601 8.163830203550718
Cu 7.908764915210838 9.809309857608183 7.215845673137344
Cu 8.803591301429103 12.010859090160151 6.803504048467733
Cu 8.354689999687508 10.249566376367289 11.858004993173976
Cu 8.121586825921495 12.611140988595597 10.783023461381356
Cu 8.550402524329012 10.913781746148809 14.23858625399626
Cu 7.561291627165351 9.361296848398533 9.545993396914364
Cu 7.799111311915451 8.57580003205192 13.760394221662551
Cu 7.888703356967532 6.9621341055803585 9.836890967673844
Cu 7.067133795241588 11.710697253475724 8.685028851258153
Cu 7.0161533791780855 12.362747220690945 12.922536540103229
Cu 6.637673521090801 8.42857995307607 11.567258825580625
Cu 6.205192915004999 11.00104062761278 10.93580480962842
Cu 6.13468283322856 10.209744025074109 13.255670375386618
