42
Energy = -96.41780219 eV
Cu 0.05682024368491215 16.72272243646927 17.785480756173328
Cu 11.849425765783925 17.50792531224725 21.489768972348553
Cu 18.778626479303263 22.23711544283774 22.681995536785237
Cu 13.989670435798898 18.282674514804107 22.214871736380257
Cu 16.58431326930498 20.385007769330507 11.853967229116718
Cu 24.80166060093744 14.695919334672643 18.866058587530745
Cu 14.184720266784852 15.620806070305274 14.672066960848705
Cu 16.595933769071642 21.442090330396052 22.96867786341301
Cu 11.411735930693917 15.207704610253126 21.325637021572327
Cu 19.576819077589477 18.254748474556745 24.98656336388461
Cu 9.73994346112536 16.728602286645355 20.737540142688967
Cu 16.34882827424121 14.887401629691032 14.213436310090588
Cu 16.267062927185783 22.62565544884043 11.285896535247238
Cu 14.495468051832956 21.58278284800861 12.522646991458588
Cu 22.615714356591507 16.01634338167407 14.933313556650734
Cu 18.235725417904167 21.53060837123004 10.613585660696662
Cu 12.843261356913553 20.251509100580822 13.731638808147386
Cu 13.478394491995404 17.854746863157555 14.19819597757048
Cu 15.758210120444733 16.784932685591123 22.811663890002645
Cu 12.011178060990076 16.34837463468866 15.346204299761201
Cu 13.555891785544087 15.904671673983728 22.177739172811684
Cu 21.082848220735418 19.898250243688118 24.340998334911554
Cu 11.423199132176974 18.708122393409656 14.845783495306147
Cu 15.682180384077009 17.10826201077906 13.478086781455202
Cu 0.726128220180595 18.68115906855682 16.56716977795729
Cu 24.424783085762353 17.394890672611556 15.809194246633373
Cu 17.422832326189024 10.442141913896595 14.458572394271108
Cu 17.92385526209947 17.64691574091699 23.447104996740364
Cu 12.283777987378182 19.82545405690319 21.502889461547195
Cu 17.883709894152258 11.773498321718735 16.237304618502748
Cu 25.141532452983423 19.401882318046752 14.557070314867552
Cu 18.636893857066923 20.06467478048586 23.699620717403995
Cu 1.456355441362637 20.665876097655996 15.366503971696014
Cu 23.771323847663474 15.382994500408971 16.913463014558108
Cu 16.203181638634003 19.133307038558804 22.94130485698707
Cu 14.403276874241236 20.620436417826156 22.45411098450055
Cu 20.089074308462394 21.943074665641984 24.579445648165482
Cu 14.901565446408476 19.305090917370748 13.001554178548046
Cu 16.331912779865153 12.57825673585838 14.60658657730992
Cu 18.724779927951968 9.565303382009 16.262243793565094
Cu 23.34663064726141 18.034150291258594 13.853940214968404
Cu 2.5932404310074446 19.89741330869228 17.249394773088145
