46
Energy = -136.67314761 eV
Cu 13.082871470711908 7.947720971910195 7.2508754098420765
Cu 11.507197288650023 9.6667815695962 6.236981552414162
Cu 12.989558574223857 10.201821595583164 8.235334358827986
Cu 13.101287518140287 8.136470524581641 9.691817862467438
Cu 10.984002003785452 7.184228121169247 6.373706962468757
Cu 11.62267784408291 6.370352414067271 8.680162518968675
Cu 11.996738851123006 6.508797559173522 11.164928875335445
Cu 13.30891695999025 8.392340034399544 12.132425495358202
Cu 13.172562592782029 10.38456587121195 10.713086174299814
Cu 12.3220662436595 6.804568355384854 13.610916595939086
Cu 12.93455564299916 12.454745651052804 9.392221082579894
Cu 10.977100724611747 8.663505833211046 8.435523009030684
Cu 11.514829574738487 11.935840434492023 7.297244986902215
Cu 9.21571315861046 8.711637205603774 5.876457957131327
Cu 9.023314230206216 7.269654955290803 7.8434949981039495
Cu 11.015027512862632 8.927518486216089 11.007919528367237
Cu 12.119148370941089 12.408495067715995 14.128463314716491
Cu 9.706569312634938 6.966944506254393 10.18247704017912
Cu 13.08962243995994 12.72640478405111 11.863154586252804
Cu 10.959179103690307 10.925421392714899 9.517636415847658
Cu 12.917625763884937 14.658733206235313 10.404410266421328
Cu 10.144958552574275 7.259228740727232 12.668593118554998
Cu 13.421557720513931 10.618718987529705 13.115713423034679
Cu 11.462632271338906 9.156263922687438 13.617977247462996
Cu 11.169052728173718 11.191899217811716 12.142657163989265
Cu 11.51856600416153 14.196466461126574 8.454495543859169
Cu 7.146637781549944 7.471235592623768 9.411090786864113
Cu 9.480358096097634 10.550408961061693 7.433851033887287
Cu 8.839593689188765 9.279275716939182 9.62153773300629
Cu 10.05084513997632 11.167560082239326 14.348460879373876
Cu 10.874240588704584 13.300030204847992 10.710684519357837
Cu 9.225506129371341 9.59596523625248 12.638972902540697
Cu 7.416015121758529 9.14909187161642 7.566196970001009
Cu 7.953424749319387 7.701322114848482 11.708625199913705
Cu 9.511611170289044 12.805870143006953 8.510077916430776
Cu 8.985061197748614 11.413001450053608 10.803141913078711
Cu 5.605411284032639 8.014178651555488 11.241410030087572
Cu 10.077840579896446 13.287772711288595 13.125978677152078
Cu 8.076592322745444 11.843564002267168 12.977269567479464
Cu 9.497928655741228 15.006133468640547 9.590908350828128
Cu 6.137691932626828 9.749214830927416 9.622206817765257
Cu 7.50056318727904 11.416937510520693 8.562485398233747
Cu 6.947569862699359 9.94429149079541 11.890961588814994
Cu 8.450564631629987 13.767648749510132 11.405694817065424
Cu 7.3920283636835045 13.788135062321107 9.1905135593853
Cu 6.617318138883427 12.05316831518943 10.750054730458727
