40
Energy = -117.31930397 eV
Cu 11.1242344497223 12.225339803781507 8.23960914238139
Cu 12.924408552229966 10.780251234164867 9.179071366616165
Cu 12.070419803682656 12.770744400503174 10.410667867169309
Cu 13.982940669533303 13.00053965628028 8.922542721260301
Cu 11.919732360689158 14.510114435291454 8.783217499611878
Cu 10.184761010962955 11.041465983233854 10.199162834311409
Cu 15.734423470435816 13.480358960327594 10.7765110532176
Cu 14.344606372859937 9.382775616348157 10.620867068171082
Cu 9.812593908438297 13.510739979688365 10.06580729339483
Cu 14.054474490267644 11.860401780023226 11.371419786559843
Cu 15.542738572216136 11.217556849000191 9.64102090829096
Cu 11.333762722102431 15.190985909732326 11.075155976257934
Cu 13.735490344627141 14.82103562086962 10.51773347754216
Cu 10.388124927644622 8.695834534707023 11.040619025113932
Cu 14.021973715732342 9.182257631864896 13.069257102224435
Cu 8.486360437097227 12.19140060955438 11.70808259514523
Cu 12.655124595908804 7.881044093201799 11.458771131076645
Cu 13.124872478479935 16.45564002064401 12.23412819972689
Cu 10.916421671156618 12.205031497741803 12.450363768051682
Cu 9.63396676579547 14.20576590155966 12.526661904574796
Cu 12.823320256072128 13.865894377619906 12.639196690726001
Cu 12.144862644079074 10.279574399752416 11.485096561360264
Cu 10.876039886063445 10.817444061714067 14.689220064591485
Cu 15.919523478283466 10.442346154131796 12.194108061938083
Cu 9.494068608555674 10.198780187248614 12.683254708591187
Cu 11.38590067813452 13.479978404987706 14.58566028581667
Cu 15.009811866508109 14.929287857727045 12.756280731035613
Cu 11.492112062695009 8.863965378572473 13.363718210511085
Cu 15.693886178835701 12.650719619840546 13.10421071317338
Cu 9.074359566252893 12.343835695625941 14.156764439512148
Cu 12.975611025809563 11.501808364156368 13.575508266158867
Cu 12.337622599349206 17.77095949141618 14.08529018869798
Cu 7.283233181678691 10.887961378675087 13.333465298396783
Cu 11.171953881057224 15.741716547020024 13.521110414631389
Cu 13.354810473183463 15.604373783004531 14.531857126207074
Cu 12.665163657109789 11.864657826659723 16.01066852336976
Cu 14.117040702974581 13.367285470120645 14.755076837347945
Cu 12.954448636403397 9.559659337541671 15.211434820467549
Cu 10.23950095301654 12.37091094521777 16.4087357083878
Cu 15.023645547477361 10.877903403571931 14.647018831503008
