41
Energy = -120.81527932 eV
Cu 9.755793508947221 11.239215889170472 8.81034078658202
Cu 11.868635072217273 9.911101248119135 8.92403075335433
Cu 11.738647509747254 12.221417869631221 7.966385739774396
Cu 13.78533914847742 11.605160168921733 9.112544541540213
Cu 10.69096288538923 13.72970079110741 9.730703471069491
Cu 7.85444254482086 10.088041194946126 9.788425543256585
Cu 15.083874007081507 13.432533233994093 10.490771331955006
Cu 13.90625199343286 9.359120267665855 10.240741003824546
Cu 11.665551419284427 11.602603944387326 10.654099656018264
Cu 13.100729721305692 13.946035889824767 8.86900097641678
Cu 8.400746721827494 13.286754457575837 9.011251179521542
Cu 12.784308154782522 13.835693697359211 11.279680910176044
Cu 13.96274057457381 15.699847061360781 10.218850162962683
Cu 11.899692569240177 7.961595848940366 10.448120062071341
Cu 8.860490623985 11.962189024345523 10.926607376331308
Cu 15.1883407024612 9.565243911015113 12.359256138479253
Cu 10.078628833887583 9.611209191555881 10.686145763727646
Cu 15.904010126179058 10.928839948093206 10.234947004400784
Cu 10.529891258045229 13.230455613142176 12.168207603651615
Cu 13.998707760922475 11.5242107802587 11.536535182940991
Cu 8.782187586082264 14.481104240500134 11.264602781458438
Cu 12.323598997886444 9.610005724534455 12.222369409680574
Cu 11.091154962127568 15.533172266468323 11.748266041834023
Cu 13.71258779758645 7.629991831828138 12.061636988942768
Cu 12.348827303892781 12.01873682204807 13.109208508030854
Cu 13.529166544342582 15.784414557991893 12.556976823898896
Cu 8.44383109781572 12.497493616397646 13.2826920122304
Cu 10.276283013813439 10.812785470791725 12.784961363129698
Cu 12.076727162098514 14.395640155585928 13.856705818359769
Cu 9.626941423687548 14.725292297857836 13.818861088131028
Cu 16.139005806418666 11.951229136367918 12.448635182000203
Cu 10.430368543885562 12.504416279102395 14.722666790038526
Cu 13.610257218501612 8.823750599035526 14.19577868448164
Cu 11.686170705049841 10.30943970833354 14.736682323265331
Cu 14.33299567781231 13.48238550238753 13.217521682759811
Cu 8.972491223317958 10.500083199456133 14.72173740828061
Cu 8.069802249840093 10.107421251840616 12.30788463035723
Cu 11.02739440217594 14.424094508875193 15.988310709321974
Cu 12.794714179010613 12.589758226307866 15.469192586557904
Cu 13.583800648186642 10.239050460081476 16.215303795094457
Cu 14.39516436276071 11.15002015569434 14.124616226993423
