47
Energy = -140.22048987 eV
Cu 13.263078507812741 14.219318677109614 12.924873945482922
Cu 12.56839313619608 12.225552311861934 14.080378414490966
Cu 10.85101138944392 13.939276816661717 13.128280767992354
Cu 14.485050493953505 12.042519701060016 12.548363136637105
Cu 11.694900322846385 10.256612557634845 15.215524229162938
Cu 13.78472811982652 9.995398585552234 13.770200142394119
Cu 10.156703869470594 11.829020364470146 14.075360237263894
Cu 14.228619074949242 13.814534437319182 10.79924285654228
Cu 11.847463313362683 14.803951371955817 10.984781307590312
Cu 8.568411763423573 13.07520585217206 12.700790760325225
Cu 12.16453885476665 12.36977733797272 11.572837013015988
Cu 11.584565920095791 10.267423431580546 12.780945634046583
Cu 9.460911197578232 14.917726210944327 11.385933123210226
Cu 10.411567672059524 12.0196726137632 9.82313806911513
Cu 12.022409261612333 8.17373733167954 14.062673752901366
Cu 15.07030318853673 9.802361774524263 11.6257249564593
Cu 9.649576303776088 9.304998188924246 13.974796472401113
Cu 14.078178467727875 11.469572047637866 10.169951342281268
Cu 7.884968530571944 11.13110710546358 13.974373690727239
Cu 12.535528567459151 13.273579418784465 9.195299961917136
Cu 13.091951548526438 8.456971233456606 11.870612931479155
Cu 10.209630110574542 14.318242714389642 9.130994532573562
Cu 8.246775469936482 13.096388776329 10.291385749087953
Cu 7.074255436739853 11.25129496276494 11.63153195676584
Cu 11.536781732765876 9.940033865112369 10.35619088083667
Cu 7.425293097731547 9.099879145537882 12.877892280867886
Cu 12.55806771532492 10.99393984741438 8.349780803013392
Cu 9.351909593746374 10.487854835323422 11.700770869582016
Cu 11.118198801938444 12.674235521514506 7.316521936217377
Cu 13.721567731800224 9.111383544636121 9.577475049135447
Cu 8.77519379633801 12.650140170182397 7.900147633637486
Cu 10.638238134621973 7.959257699325032 12.074967579356374
Cu 10.007069949957836 10.422377382836043 8.027790146325517
Cu 8.061778714389517 10.781167325970982 9.440429874723122
Cu 8.315051815429833 7.1754205394542 11.857700691434417
Cu 9.482172107101905 8.586930250151733 9.963071233732242
Cu 7.073760824709679 8.832664956606168 10.51345490914504
Cu 11.663642838236157 10.468134226805919 6.146380071751337
Cu 9.569675679003291 11.600382434122675 5.766812164598063
Cu 11.733539941621586 8.721073678784451 7.893533429044285
Cu 11.821687051793393 7.48962651799832 9.947911837054365
Cu 7.758320261025407 10.611172953870764 6.911788572384142
Cu 9.969592206047768 6.084562316171775 10.480851138868362
Cu 7.901477578285016 8.582973374455298 8.086620802760866
Cu 7.832323577376385 6.656202647380899 9.514779153479282
Cu 9.703201060952635 8.82803206051725 6.319680792969997
Cu 9.922617463564055 7.062993076825607 8.132135360228029
