42
Energy = -124.12414651 eV
Cu 10.899468025074475 12.794720190338627 5.833142068369031
Cu 12.647381735376126 14.734763195583893 12.78460703403278
Cu 11.969426774054519 13.977650906335944 10.586640292170333
Cu 8.18676679069516 13.038645227934289 11.71862354751225
Cu 9.244746427323898 13.329518736180743 7.576901532984073
Cu 9.617865830169062 13.795656857187499 9.942420545534512
Cu 11.561140490919264 13.595479618445662 8.221613980776786
Cu 7.925291146514545 11.814245762004372 8.995845701780324
Cu 6.4253766429992885 11.478698291961376 11.029527092120036
Cu 10.326970701459125 13.986770764301992 12.371829594593414
Cu 11.37818801481087 10.396830861762776 5.364867740727677
Cu 11.86914359280656 12.666330230180337 13.817098452556868
Cu 9.555652438188446 11.882307008812669 13.474093393404384
Cu 10.45012459053365 11.605365604767197 9.129523968094649
Cu 12.886339869381617 11.940517001090885 9.630923764162093
Cu 12.33588894282992 11.425623418063967 7.307391214777759
Cu 13.494495766829482 12.573142374158223 11.954135932005597
Cu 9.591285338295712 11.038819093204033 6.88922867342771
Cu 7.235533881066235 11.4317871043599 13.331512120593944
Cu 8.831805206862985 10.78232865241373 10.961527516743681
Cu 11.183221647875731 11.643095288105906 11.614489697754278
Cu 13.444308570952442 10.182676401673902 11.190719396350529
Cu 13.348711003763398 10.705454190067407 13.573018710415427
Cu 11.14422215871581 10.3885170855692 14.560637813408281
Cu 13.331304572857322 9.67858683020777 8.795161424037568
Cu 13.33452057680307 9.300893301327523 6.393428960136107
Cu 10.119084064071377 9.466048642920107 12.47942466749245
Cu 8.695368776396236 9.68163389720491 14.353685443273706
Cu 11.118751918589155 9.545794023499987 10.263986305060538
Cu 6.9301808615886324 9.529936796284849 9.756092485348182
Cu 7.218053826798126 9.314200825029541 12.211141136406695
Cu 11.203506804822771 9.217453248418657 7.566287577642633
Cu 8.793025178998505 8.156999631355289 10.6800195477956
Cu 12.926972977958409 8.781602620678903 15.065549950807018
Cu 9.086898293369577 9.495425833814059 8.688635151657376
Cu 12.829052950449098 7.421252958127819 7.975621209656248
Cu 12.569432595203407 8.518146369153214 12.726476654926094
Cu 12.838385986209117 7.837044704540843 10.397010675318969
Cu 10.727949201514312 7.97231751875255 14.296142822597776
Cu 10.794823366193755 7.196633806782643 11.73357515513295
Cu 8.661378769208824 7.502115406955993 13.04488656930347
Cu 10.632558273561704 7.424583857271319 9.183152153889832
