49
Energy = -146.38779831 eV
Cu 14.322978006726817 13.813621699949477 9.061509772745241
Cu 14.866242498405123 11.421352353848254 10.216332511954814
Cu 12.985303758681624 12.926053702747451 10.793878049921597
Cu 13.818549127395087 11.004486100796878 12.41591442259861
Cu 13.061743220333595 13.22924633189685 13.232204286116687
Cu 12.511960317572502 10.974521682174634 14.440600828925298
Cu 10.98128834166532 12.886909237924378 14.443215191919377
Cu 10.666849538579037 12.290773502150978 9.915498627507631
Cu 10.734992364370267 11.085229733397366 16.11542002687611
Cu 14.29519330395965 8.97349649902668 11.226912351170093
Cu 14.433069144887831 9.450900265369802 8.860351915887556
Cu 13.363710056546312 11.696254937768938 8.259135867871818
Cu 10.995672107178352 14.136667321738365 12.038492214286663
Cu 12.55031276247546 10.513855170091077 10.262761497710938
Cu 13.320152716067746 8.776850059762932 13.537739616422435
Cu 10.136223906281625 14.781648918312627 9.774968651102524
Cu 9.094625406126447 12.754523292384883 12.982710258694244
Cu 11.430513570363383 11.716470528600269 12.267118504343133
Cu 11.269212431798405 8.96498063223177 14.960549349568556
Cu 8.577085441228093 14.702478881434642 11.634788484601902
Cu 12.297995908652524 9.46624295010746 7.810180330848427
Cu 11.945519010485565 13.71295798236938 8.39713542414175
Cu 12.483578138370923 15.205489559431816 10.270553193655703
Cu 9.874655667570744 10.653471934046545 13.91632985540442
Cu 10.981113519341191 11.464137857552233 7.572374298799989
Cu 13.107601930028705 6.936311228545317 11.826245499316416
Cu 11.535812616856797 6.985999345720519 13.674442003711755
Cu 9.523476533016419 13.412497407053023 7.805939847820187
Cu 9.445794476807878 8.322624833074224 13.306867694967782
Cu 12.41544830000917 8.087439717733389 9.80663146878062
Cu 11.35650412230006 9.211629785679413 12.05296389511688
Cu 7.675931091367118 10.122669935608917 12.844744018442857
Cu 9.334984225320166 10.83927966076748 11.38718272119719
Cu 10.385041858588485 9.76018862192311 9.446575805894486
Cu 7.411031591748541 12.488953335300733 11.34931070064511
Cu 8.429875457639136 11.598030083915571 9.101247944447056
Cu 10.044262908090348 9.093900456241652 7.0746476145551505
Cu 7.775702224996973 14.071720862516433 9.443103721227939
Cu 8.70087996358757 11.092238250267883 6.74100183238564
Cu 11.783667290184704 4.9898049366280715 12.301705928549758
Cu 7.159561678487394 12.91409435087833 7.3473132603454205
Cu 11.92592352222271 5.738254619035026 9.932000627399258
Cu 10.514595543862685 6.897573521240226 11.44964354677484
Cu 8.727874761649971 8.48415731125547 10.967075021195036
Cu 10.152268029392017 7.372795624136736 9.036958932480266
Cu 6.983580197901647 10.192605397678197 10.428125756817764
Cu 5.992427745009813 12.319846273321753 9.427241460323577
Cu 8.203781345721898 8.949920417841238 8.595207058262583
Cu 6.558010334264199 10.539545051110704 7.873876529173939
