46
Energy = -136.967846 eV
Cu 9.792643901883203 6.851796942518856 13.919353804533026
Cu 12.393703076417982 7.072743137533588 13.587075393684062
Cu 10.515890869605203 8.781201241478964 15.104349794875866
Cu 10.842379785188255 6.332192103619313 11.786676382345458
Cu 8.437308172852715 7.584919000017611 11.985175211440374
Cu 8.553950956531677 9.235516540792334 13.739187688742167
Cu 12.569772996164993 9.615745816914554 14.184964028716832
Cu 10.91343137051338 8.637662671680069 12.599227579993666
Cu 13.26974180508031 6.448626618859967 11.161197328246896
Cu 13.601553175488396 8.76302496354402 12.171497971191558
Cu 10.36120053413643 10.866916360092588 13.721252668830594
Cu 11.354063985356502 6.098273729893725 9.434908548506527
Cu 9.823793082432578 7.84961761455904 10.084752484525005
Cu 7.414288382829379 8.526755255526151 9.867522010479917
Cu 6.921810847543557 9.702151009841511 11.879863659917982
Cu 9.343406459487204 9.918396571263363 11.354182998597901
Cu 12.182016824228594 8.36483834422187 10.240652987565504
Cu 8.147299689684235 11.576457626325421 12.862610716687978
Cu 12.121578329672337 10.804907749619874 12.079766341025707
Cu 14.6466923962348 8.3298283367515 10.008172007971343
Cu 13.331215002286386 7.039385138623623 8.47774409983842
Cu 8.609763943933345 7.5136243169105645 8.024739405042652
Cu 5.973768893939188 10.488564136512217 9.655499838398384
Cu 6.074339873948644 12.966304113488846 10.196872998816172
Cu 10.159826424991069 12.26838635678171 11.615803677853023
Cu 11.073265604879808 8.149359519400642 7.939969968172704
Cu 13.163258539057791 9.466964627289657 8.149166211796198
Cu 8.036472697969025 11.639603044334203 10.313804273582008
Cu 7.146150878945707 9.611846817082101 7.565448130187686
Cu 11.265583244432674 10.553287580011428 9.771945516704804
Cu 13.691508201796795 10.592166974571581 10.25360966721349
Cu 9.35183228131482 9.029674954466413 6.356702012174729
Cu 9.192824156666672 9.950408134725889 8.719513393407178
Cu 8.160873465491713 13.721749622037795 11.597164596718324
Cu 9.965216045056934 12.449733308910627 8.807169514146656
Cu 12.263049781492006 12.739388443178852 10.50260834948563
Cu 7.006939467416909 12.075516642988752 8.069718306807257
Cu 8.002695370627695 14.07116405131852 9.207762542583934
Cu 10.261939771349006 14.395225591108193 10.371940247175923
Cu 11.136881165295973 10.530303460137597 7.136748388508801
Cu 12.751324781306446 11.914224911584967 8.237892783862838
Cu 8.856797075011432 11.368605550073154 6.6544806388470015
Cu 8.360686727389268 13.675163550239937 6.803145982468974
Cu 9.91945672925644 14.974153274466978 8.007428358251012
Cu 10.852413910071398 13.019065598447513 6.6738210048448865
Cu 12.0613828924701 14.18713539512952 8.591972893421252
