45
Energy = -133.00535495 eV
Cu 10.409956303317962 7.251461162579405 11.346728372288913
Cu 13.132193180999657 7.675201437951482 8.132684143327664
Cu 10.760293775303351 7.776725951478597 8.951732014112254
Cu 12.682858506238142 7.771039256861574 10.568649651336052
Cu 8.02746767461152 6.815274161519332 11.689700370658253
Cu 14.068631297676035 9.654840131338764 6.866779149489596
Cu 8.744676959405822 8.523563585587747 10.134702485890749
Cu 11.71455023314102 9.545203020673679 7.584944157805114
Cu 11.601665512645567 8.84496481965119 12.774162578442048
Cu 9.617581053478595 10.149331622535533 8.612631796428609
Cu 13.75728305431233 9.74900716138938 9.23482386100563
Cu 11.34895907760539 9.750174453801844 10.351961955170944
Cu 7.175281386959299 9.114902506155925 11.863822613511784
Cu 13.554041465484435 9.819611132768808 11.680146559067799
Cu 9.136956626672115 8.30151866333435 13.27412096392237
Cu 12.840244975444001 11.666743699243312 7.603040975047335
Cu 7.862516754689204 10.882498672447436 10.164762208348828
Cu 15.198682937088117 11.525603673001067 8.0568664165736
Cu 10.506815765428712 11.636271630010256 6.952270246443629
Cu 9.477996605143867 10.264219910756816 11.948942175626627
Cu 8.853116455606083 12.542398398938408 8.550809467941818
Cu 12.766901718780812 11.821110049780643 10.266767664685965
Cu 15.185566217366018 11.416447004637616 10.470220902685048
Cu 14.330993541359167 11.832553450488899 12.716854269411657
Cu 12.960813762940518 10.392613770995922 14.186867650011267
Cu 7.840894156576236 10.477754744105173 13.758146188826146
Cu 6.303835437633421 11.444592413120105 11.965721127049946
Cu 16.143477077025555 13.380989547351977 9.351634637050772
Cu 10.305947727722053 10.283594055896685 14.350730516290435
Cu 11.266745703424666 13.269824778338569 8.600130364657362
Cu 13.773479836266347 13.553529362509268 8.837941461584766
Cu 7.067937172466852 13.179540562477499 10.126869961239725
Cu 8.341722591309095 12.741188367227329 12.05768757293668
Cu 11.645015180683062 11.404796327735914 12.437756853354546
Cu 14.491164671393388 13.722370513961616 11.138698938184682
Cu 10.279743430427736 12.010208286708044 10.486177231354386
Cu 13.976721591628305 12.592474949524657 14.945854325828142
Cu 12.034615729242839 14.133156906935074 10.74061888452634
Cu 6.818345273498402 12.638714901239684 14.045890236895518
Cu 11.606754496248966 12.471253235094858 14.6496223111595
Cu 9.245147164708156 12.51497290337458 14.292688997209694
Cu 9.463823830862056 14.246668552288353 10.372695778369755
Cu 12.919182682816102 13.75283800827655 13.018157821855388
Cu 10.526452621312425 13.660067888038753 12.582591914376543
Cu 7.899604960345164 11.464840545156186 15.922048405305262
