47
Energy = -139.9056824 eV
Cu 8.039106921588324 7.383906426283265 5.149489663844698
Cu 10.662266101882905 7.712576728456551 5.475745751664573
Cu 11.308296234874891 10.07197330758232 5.623479723008218
Cu 9.532961938940467 5.519461763272203 5.8271480158062685
Cu 8.96960790827463 9.54642769905743 6.091496790886838
Cu 12.879692600402088 8.361929215950061 6.849315647631427
Cu 9.687077085018956 11.946391963506409 6.337199216691888
Cu 11.94966161887574 11.349658612591432 7.527933145227319
Cu 7.286614892542368 5.748359770915834 7.053993251696942
Cu 9.039042413349916 7.364305671248758 7.271759056705214
Cu 11.43156332147977 6.359878779602734 7.416082941496322
Cu 6.858066148033642 8.380434871057284 7.1695737573157325
Cu 10.854771890434789 8.952375890380306 7.786086771845181
Cu 7.442548597588945 10.870533102142648 7.340126155954461
Cu 12.951011693890809 9.741406434235369 9.019709345578095
Cu 9.68919467561593 10.992241003728044 8.459797547351892
Cu 10.727798679018143 13.28828295006483 8.460784916287528
Cu 9.413714621397562 5.049369687885478 8.2666804026612
Cu 8.366591963995205 9.082324059912427 9.000039630082117
Cu 12.539920963102904 7.423792295298431 9.430235558659145
Cu 8.231523207076556 13.025964067774234 8.317999854806072
Cu 7.428514945314285 6.852669491405815 9.279174339020575
Cu 10.107856200406635 7.173327089296544 9.36697919535047
Cu 7.2035467578945 11.23151888977674 9.753075882785748
Cu 7.3073570356307975 13.48305443612121 10.75263714070866
Cu 7.312729495991753 4.447901809475979 9.21000102859243
Cu 6.654457591265744 9.064278401245728 10.797252618975694
Cu 6.8603288519835655 13.78463102579367 13.105188543515204
Cu 11.442611218490454 5.197548266664176 9.685181701116427
Cu 9.274328104296693 14.734931651250676 9.771838960668731
Cu 10.627751026375721 9.475615604425062 10.224693913127306
Cu 11.169188005357135 6.9339497643228105 11.544878382507093
Cu 11.846094610924158 11.688597229455723 10.020173504921367
Cu 8.679013153762643 7.786178399704352 11.182643975188864
Cu 6.8502834083582105 11.440770129957565 12.307590165123573
Cu 12.546915171714291 9.101113045404375 11.452184043880267
Cu 9.262536340557345 6.6738066453975105 13.141668452361714
Cu 9.448336114055776 12.335963114270509 10.38289811314484
Cu 9.088277955924347 5.415483284419786 10.756041871707566
Cu 8.716870317811363 10.271081557481429 11.461251380837192
Cu 8.744313300110047 15.015693542842875 12.080283719486575
Cu 10.352572828056424 8.871041106462568 12.781371318716689
Cu 10.955532342864172 13.757685588004506 11.409412671460263
Cu 10.8847760816104 11.226207313857296 12.202037202699797
Cu 7.690964529020423 8.75838900877415 13.123440346945504
Cu 9.013991172553514 12.764482718995948 12.783847501293414
Cu 8.997336869562728 10.670003491524842 13.877093787940371
