44
Energy = -130.37890866 eV
Cu 8.833148399757032 13.239842747462205 10.842235525152772
Cu 10.263071747729358 14.23011557942887 12.519108087976678
Cu 11.42924051000764 13.808062586410184 8.014016479829422
Cu 9.011307579634199 13.949354051452698 8.442849957786564
Cu 12.347206833290626 15.127800190025548 11.732870855759927
Cu 13.196311385098348 14.12957944173722 9.661277430446225
Cu 9.961755587294673 12.406333393661757 6.679082198553572
Cu 10.597557211066254 14.897079559387299 10.049988533836546
Cu 7.437016265657817 11.277718812178415 11.475630179171656
Cu 7.562837636237363 12.032088536961513 9.026081500811621
Cu 12.41937834743349 12.1947662315003 6.443633719971896
Cu 8.763591927445168 12.422185832423992 13.268903254743911
Cu 11.190220649010973 12.146755884043344 13.448597535771302
Cu 12.580778502558267 11.740450032502247 8.83743483132447
Cu 9.972750603868262 11.052478490917274 11.555622496478097
Cu 6.1766938678062155 10.162064433311592 9.700736957454723
Cu 10.057008228184579 11.843924624520863 9.084378758378312
Cu 13.284886924631316 13.054155537663265 12.611369601508134
Cu 8.645102425985904 10.470376500761722 7.363577359434393
Cu 11.16056838066996 10.282434986169637 7.2443105646617845
Cu 14.183395142643544 12.008393156615655 10.599547423022925
Cu 7.3006174627005995 8.78104153732423 11.469453369457378
Cu 12.511297677046922 10.755388870954993 11.78325505165383
Cu 7.370703919248741 8.559872897395152 8.20469882255322
Cu 8.485348183177924 9.903051737008527 13.334857958312531
Cu 8.640277302736624 9.857213852349288 9.756677551317265
Cu 9.738269472669757 11.0060618167903 15.079293322328244
Cu 11.57090569573644 12.848408233932002 10.885957926876694
Cu 11.191243432890158 9.729441774201925 9.803700898378413
Cu 13.632539658617437 10.195022352288253 7.302088696279923
Cu 12.370588777325871 8.291240346931643 8.09983199506371
Cu 9.860946870378132 8.551523387979884 11.57307326652199
Cu 11.080346772117059 9.66441033849662 13.463512001271894
Cu 9.87558112274185 8.391663828222255 8.087810491133846
Cu 13.66067079200778 9.643923097164048 9.786441174519183
Cu 8.664704193686024 7.284955740451816 9.89420947962131
Cu 8.544300922078813 7.398341791878961 13.230696758518638
Cu 9.651423340873281 8.55325074527569 15.069145000505339
Cu 12.378968021115526 8.354817037064262 11.677436329408895
Cu 11.137214009220218 7.019122855525683 9.783919153196909
Cu 13.560075662743062 7.147910315602306 9.903560142769052
Cu 9.898042708552625 6.044912170325366 11.636879530928418
Cu 11.002177342644899 7.166935621670861 13.483385636483392
Cu 12.339262471284544 5.96200835351849 11.71474449977367
