48
Energy = -142.57187216 eV
Cu 8.787875262902677 9.150879865492978 4.6302927269545835
Cu 12.482647249987435 11.861181522747936 6.538796883501689
Cu 10.827752352526462 7.933483076660054 5.888188921177773
Cu 8.328627745999881 7.054389509532486 6.013517274071756
Cu 10.700710397297813 10.466501943426092 5.720139405225375
Cu 12.877189671957428 9.466732901612184 6.331273926324197
Cu 6.731006558663707 9.015062372062017 6.147400714275391
Cu 5.863274789339173 6.738847214525941 6.990105079356868
Cu 8.336823787125015 11.332709160311309 6.0621422875698
Cu 10.074055676400691 5.398325624027744 6.516194217582106
Cu 3.9763657347940655 6.80639374161481 8.562400387402253
Cu 9.054926489423579 9.20817952708495 6.944451922457381
Cu 12.256494230636072 6.727763243768483 9.231289387983097
Cu 10.266372274653156 12.944736662769028 6.640411485610253
Cu 11.80924493993528 12.517217392719138 8.762698891941255
Cu 8.00765556081193 5.538952947573696 8.032817937896555
Cu 8.0653645704358 12.898600666047686 8.092021894012255
Cu 11.37051148954413 9.154909756594575 8.150341956145967
Cu 7.095911103940204 10.51082761750933 8.13764051552227
Cu 13.388026748857332 10.719523851200377 8.457118518657055
Cu 5.252059904332902 8.882835949130149 8.25827724654101
Cu 9.94947839656861 7.1712889203345975 8.116908373340934
Cu 9.73517919673553 11.25075835543848 8.13566288873281
Cu 7.4757069930322055 7.900309206798425 8.265290165292766
Cu 6.1403116253707655 6.462654152578514 9.577586641292552
Cu 4.584066680044141 8.180130271789512 10.498842139111932
Cu 12.579894224534495 7.321323216656288 11.822818899932404
Cu 10.226857539072707 4.979528194294543 8.94861701077092
Cu 9.030214250843152 9.262499819962095 9.333795800982257
Cu 12.954057159596823 9.06935376895142 10.165984301558389
Cu 9.82214083428455 13.00482599688709 10.06123299174659
Cu 10.882476661754513 10.669764756945922 10.17239101285601
Cu 8.064698708073735 11.387702946137845 10.189687691726911
Cu 5.702274186709815 10.485330360785076 10.263505453654401
Cu 7.018978424307043 8.55231336660221 10.772601227895038
Cu 10.767750769310688 8.072397950327248 10.43083940794584
Cu 12.96755596260068 11.458501430044246 10.852784603544052
Cu 8.637757587545185 6.749772611766862 10.301667364377066
Cu 10.845533010455961 5.774664617490858 11.115610344928964
Cu 8.096427483460525 13.167671030120394 11.825186263952725
Cu 9.160925834592216 9.47001404663984 11.665484407249592
Cu 5.433873140401888 9.25384996409902 12.473156746544404
Cu 9.953881227670196 11.684802336022294 12.244180797138368
Cu 11.592495553009563 9.709480060165685 12.309210406700116
Cu 7.283402507036487 10.848518969801663 12.399425809101443
Cu 7.678371704926258 8.431827171386846 13.191245279774941
Cu 10.105834230534008 7.538986461632274 12.749944397956263
Cu 9.688127195728663 9.744843097696492 13.939985619447963
