47
Energy = -140.01051831 eV
Cu 9.210911074881599 7.665865674246023 12.888358794251763
Cu 10.317873539454375 7.4121049367991185 10.64888874254342
Cu 7.911479825583295 7.28443024725223 10.837557759405266
Cu 12.688578100054581 7.764432764960366 10.546800750673937
Cu 14.093436849619643 7.1473391914640105 12.433008211096974
Cu 12.851703623638103 8.24783061522408 14.275844191751341
Cu 10.538419178034955 8.917795229002362 14.884759009695788
Cu 11.636325995687601 6.7688313508857565 12.634317251355354
Cu 7.025539350742319 8.834997888036071 12.41019632200086
Cu 8.742216971657934 8.328916568853666 8.83343007693448
Cu 8.770280287506791 9.999995174554508 13.572021680066802
Cu 11.15127567189761 8.368995208439854 8.554673116784915
Cu 9.19610279254149 9.61991736197766 10.932139965991965
Cu 13.432581587758214 9.213261099940638 8.622926967520986
Cu 6.806333612514119 9.353166735856291 9.992843943083507
Cu 14.977561459827275 8.536360755892122 10.517792470015268
Cu 10.1051634621845 11.384214121426073 15.061689466847637
Cu 13.630821731959735 9.521214063361334 12.321645671584259
Cu 11.779653385421089 10.094626403839081 10.44255454520574
Cu 12.250545368151702 10.609192312081845 14.15329597615165
Cu 11.142481657524225 9.105427575620999 12.546970419083511
Cu 7.4569036701536096 11.132218917885401 11.730656873028362
Cu 9.542987785658273 9.155224695204256 6.686638308527987
Cu 12.84681144192385 11.839771459226528 12.111615952400872
Cu 10.345336191045202 11.453023499161867 12.297077692794005
Cu 7.242264806621973 9.734206673303555 7.544048812589166
Cu 8.457234760373758 12.490916465702188 13.517084463090743
Cu 11.857256344028023 9.956589100698112 6.766189703715636
Cu 9.707645456459595 13.783352188182747 15.157316451163581
Cu 10.19727400770123 10.675682355483195 8.656668291768469
Cu 14.177298011451475 10.851819047115766 10.315412125339805
Cu 7.932325817547798 11.372738702271297 9.278318052337191
Cu 7.865727484765966 10.05999922307809 5.173675176792421
Cu 11.620063539413556 12.981807537166079 13.937495774539105
Cu 11.193131521301783 12.477958367678646 10.251034794154183
Cu 8.832606730970493 12.980357086901 10.961850639744567
Cu 12.687129418326267 11.569042529435913 8.444517124044472
Cu 10.229859118093051 10.784930099852241 5.048385481035535
Cu 9.95056099669084 14.285048485190066 12.734732218659923
Cu 12.253325375910412 14.23541363698144 11.949978788025577
Cu 8.701739650651675 11.583665263661056 6.824060739608085
Cu 11.051354180753671 12.319499564939424 6.755053211562713
Cu 9.518261860433311 13.149763546488765 8.565019669598199
Cu 13.544483347716708 13.229632298611193 10.111479116361338
Cu 10.460163674361546 14.78218790816015 10.326043273601856
Cu 11.868719657609917 13.974885850169784 8.358692287277767
Cu 12.788761327658207 15.545623731438004 9.971882870364293
