49
Energy = -145.23021466 eV
Cu 13.29217261353415 10.954833667382793 8.689655550562575
Cu 13.97242752806971 15.760218378425183 8.560596403022167
Cu 13.301119182468865 13.412566110726742 8.577410061552902
Cu 12.077059322639956 10.194773043429025 10.693083964949473
Cu 11.291292758656526 12.613553188696143 10.166865415719805
Cu 13.426782265288784 8.62160099046682 9.341780044352102
Cu 15.462614842703443 12.14902554475662 9.211153843371243
Cu 14.914467169079602 14.275432716270437 10.235738558480755
Cu 9.722959716702391 14.425439425926852 10.031946927422641
Cu 13.623344447082351 12.270165821618773 10.740455776421198
Cu 12.129866337318068 15.08557958313546 9.993892369096457
Cu 15.705955388367702 12.362579603768493 11.948470805939804
Cu 15.34229133408171 7.757493007865668 10.547180903057965
Cu 11.964812873173873 12.006426789502582 12.470641691942935
Cu 14.944256415379845 10.138395884148501 10.487261723832386
Cu 9.903613534113259 10.773098671525148 11.770158473653568
Cu 10.688882457092369 15.237495373089605 12.075132152828225
Cu 15.418352387171227 14.83633301964784 12.553649863228161
Cu 14.122907141918033 16.419415322406532 10.948336689416152
Cu 9.68543209196058 13.127681606761596 12.126895063477109
Cu 13.011476729118439 14.344668521031103 12.122924852465038
Cu 12.423140520613154 16.796909936029362 12.584260625438041
Cu 13.462134510635618 8.427204609477991 11.819361189428616
Cu 13.969703575898366 10.684257074525549 12.624247635876097
Cu 16.40654180504387 13.320111062567658 14.31202659347073
Cu 16.53965301489745 15.841739194524088 14.425436348704583
Cu 13.847359326429306 8.934657047164794 14.20983490967797
Cu 9.282470547103328 13.740274835418964 14.54971425457027
Cu 11.72225439418211 9.645182609478832 13.123297456480579
Cu 8.077216192300583 11.876986648511634 13.308162215987574
Cu 13.487599706103243 15.378925977066295 14.41639005603002
Cu 14.754627809754009 17.171739991710957 13.24602467734515
Cu 15.620591614033867 10.911982994105585 14.296632226077788
Cu 12.679410292916097 11.131211099460176 14.946305840880674
Cu 11.621663385918955 13.688567033306365 14.13952285970298
Cu 15.22940426000241 14.658128650209507 16.07839380602762
Cu 10.932041517290008 16.023525831967714 14.379510681659362
Cu 15.091715018723743 12.243511317323957 16.212330283422315
Cu 14.395510179552598 9.935879744546678 16.30748193765747
Cu 10.914591509053746 12.344039070620132 16.33096129274163
Cu 14.07895649220506 12.954082807199091 13.852985776134018
Cu 10.26762907775922 11.47368870535831 14.156469360483328
Cu 12.719470114658172 17.6476138674535 14.868934088166126
Cu 13.066416281478402 13.556024057673216 16.12420291056981
Cu 12.968407533050701 11.55793421296606 17.454921952882458
Cu 12.910699214199498 15.905237343038308 16.785105067367475
Cu 10.794070869426324 14.733286414602924 16.366034560206966
Cu 14.873183933475945 17.04056286551691 15.740020248562239
Cu 12.048140216253346 13.7966481764739 18.23488945853479
