45
Energy = -134.1446213 eV
Cu 9.700641452398289 14.827121765048766 8.288169158351598
Cu 11.645004253934928 14.462379463459705 9.74729114851731
Cu 11.290583594333748 12.945955924065466 7.7379427919721975
Cu 9.390330374305696 15.151728626372615 10.683792917004169
Cu 13.443857628002377 13.92712568829009 11.216045017628641
Cu 10.97362480294693 14.214338356484387 12.234986292875075
Cu 8.801211096024893 12.778074675013476 7.417674929713132
Cu 7.666356667606846 13.867245731171682 9.521269451837767
Cu 13.187475234151705 12.360623490870314 9.252636019635737
Cu 9.805861863243843 12.844540374202344 9.79903614704987
Cu 11.7618742446821 12.171115728944017 11.271137720857341
Cu 12.763555686464345 12.962524386503448 13.359142296090859
Cu 10.335202476498251 11.347612855340557 6.224389944803813
Cu 8.75071925237145 13.07707957119534 12.023487456806588
Cu 12.486171313396774 10.578356052186672 7.354397627685251
Cu 14.078312753791291 11.555542351410097 11.533161980682234
Cu 6.685823939064414 12.050664402166323 8.313139590170962
Cu 10.459281049176939 11.923243686070084 13.39416631573671
Cu 13.671529082802287 9.962209400068366 9.594693074772186
Cu 8.012987184922041 10.413942509561814 6.776523253910547
Cu 11.18059000928716 10.837637237397022 9.246785770861921
Cu 8.672647290865273 10.720040494896196 8.999579521042731
Cu 10.193851647487945 9.273283583447203 7.365237824276978
Cu 14.301916848057076 9.209354130678323 11.985630959545597
Cu 11.967816088025835 9.64415546721991 11.310023615307188
Cu 10.01895404008329 8.729818437985319 9.802582509230682
Cu 6.26295970449934 9.885927918709427 9.162104091489741
Cu 9.732793082522521 10.76151055872937 11.26711676803618
Cu 7.222350480038318 11.598577704076959 10.756144923725257
Cu 12.680327934422419 10.580178124958238 13.422896950772108
Cu 8.168202076865347 10.602140019139283 12.998074935979385
Cu 12.098638233591249 8.247915484037625 8.663460365355942
Cu 10.373152345619713 9.467250982022994 13.497685854390372
Cu 9.985426835585322 6.9351551532603954 8.140667297348234
Cu 12.558425647632623 8.098849994384265 13.292106000854245
Cu 7.756441735707481 9.153349401798293 10.919067306080965
Cu 8.022630028763615 8.379896247503847 8.4203924874089
Cu 13.028567102083354 7.456201886537624 10.863388651116857
Cu 10.602967924638614 7.67676774973934 11.856541693588497
Cu 8.59921104151065 6.861052589311765 10.408612365460915
Cu 8.436058099077746 7.872101371864322 12.86225217290301
Cu 11.093170548327725 6.126110165042985 10.109553701711746
Cu 10.44652859074574 7.014045957317944 14.139946908403145
Cu 12.019314851247298 5.822199439023008 12.452239432230465
Cu 9.567540689202442 5.57521744591027 12.260531936413127
