43
Energy = -127.21170606 eV
Cu 10.814116460224758 13.276577730330596 7.679068648373021
Cu 11.89764398474009 11.05536084116881 7.693970469944952
Cu 13.280198557328832 12.992121898430018 8.085127656432384
Cu 9.270334951892885 11.38446511512869 7.869617062265122
Cu 14.234455679726922 10.559343114205975 8.381525718744623
Cu 15.506446132431682 12.396293874170082 9.227944491842557
Cu 8.29288294941989 13.525033955235738 7.4344781143564544
Cu 9.257809448847816 13.423323907257735 9.593914338339617
Cu 10.448046483145726 9.272359208140006 8.409383803660905
Cu 12.560999723532891 9.703314253032792 9.853551440227216
Cu 11.666984747687154 13.853665378972035 9.886774275360533
Cu 13.296409904462951 11.975972449964473 10.32587502927214
Cu 10.791515491858362 11.470065016242746 9.868577421435758
Cu 14.054428373318713 14.271237442997071 10.092647402979745
Cu 8.422762764344776 9.846544446541104 9.589960934284207
Cu 15.046687325182305 10.378367107010915 10.780396891857244
Cu 11.887999835318746 7.458610103998822 9.121534043934952
Cu 14.229556909612839 8.083056047515992 10.17733274095181
Cu 7.247914573932561 12.083888654293974 9.195991155604633
Cu 15.32273075906868 12.849544002959105 11.60425107972482
Cu 7.711986399152189 13.118660123846874 11.435799393019915
Cu 13.990558501317496 11.428206151598689 12.90751295436209
Cu 12.725021097780251 13.451434327844451 12.151254348088885
Cu 9.372385242744762 7.441070089097597 9.70484690208578
Cu 11.690416603295596 10.97706545210213 12.118377733583916
Cu 10.237984165768681 13.2685021087711 11.833387464355862
Cu 13.459275816231148 9.165263325723421 12.296225075549055
Cu 10.916954131038938 5.588884492571896 10.284293441172641
Cu 5.424934460451424 12.678269850844107 10.797022326570044
Cu 9.139826521988075 11.053783364334139 11.718632336767705
Cu 10.499968479616557 9.100150996717229 11.001565999529605
Cu 6.739064087051866 10.71134516791025 11.237223586010966
Cu 12.285866611460238 7.194506929977961 11.485274329551636
Cu 11.222541618415832 12.52324815581163 13.944520540222603
Cu 12.42911979936716 10.341759952242212 14.400064471813417
Cu 8.167071747878852 8.677493875416339 11.724487983740792
Cu 8.666067446049485 12.501726876403279 13.666436230059588
Cu 9.900194906761424 6.907198790050504 12.092260937069348
Cu 6.182940191830884 12.174874579529648 13.088617087989332
Cu 9.971318172599094 10.456889431334336 14.143950806379372
Cu 11.290992855811428 8.533703575275176 13.314255395608079
Cu 7.580093498384602 10.239829117494418 13.560561156593474
Cu 8.966792630988662 8.248260995854183 13.98439730745421
