40
Energy = -117.45026992 eV
Cu 15.18420274279161 12.530212483841 10.003586589611452
Cu 13.543752017411439 11.799531650639839 8.332567555829433
Cu 10.707822142160422 14.015206691693777 9.730456349911549
Cu 13.164498348642343 13.983649592982 9.392246519601112
Cu 11.89549184405665 11.910037224586421 10.052315614272505
Cu 15.15936284967476 11.11891665086807 12.133840389168558
Cu 13.722444594908621 10.38035397630622 10.339140534482814
Cu 13.593775448039098 13.098146531583483 11.631688099608223
Cu 12.146532849720682 15.431828169243882 11.26151269479123
Cu 9.582465607374436 11.923621810171985 10.727639107631127
Cu 15.45587277680939 8.913521318957063 11.302437961972569
Cu 15.965501720408595 13.502605912166114 12.191017286295056
Cu 14.600228229492851 15.214690309761778 11.037696230021501
Cu 9.017571390265603 14.270630993230276 11.522404417108737
Cu 11.259234886855056 9.891940095041079 11.261990548816836
Cu 7.725956450909358 12.15630598658063 12.231503325761851
Cu 15.8651911317092 15.807716711377674 13.078267890459424
Cu 11.169818293344068 13.296053882720164 12.010814276502346
Cu 12.444877032749245 11.336197701801122 12.741324375138285
Cu 17.827434041465413 14.251749979786892 13.508761819009157
Cu 9.227331178171486 13.24431712396071 13.70370693723381
Cu 14.212751427226715 12.535008991047741 13.94194029361421
Cu 10.734023843991428 15.283112924927993 13.356062802356611
Cu 9.918285020131655 11.039159833294015 13.00256430486635
Cu 16.636041542296574 11.964773366636244 13.964137544594466
Cu 13.375227270532037 14.777549333139426 13.429985773009692
Cu 11.731299952847145 13.22518609925033 14.394990138531094
Cu 11.660508665705763 9.712622224547248 14.23538062495687
Cu 13.344239045813564 9.100219023775095 12.398424231250605
Cu 13.675127689024164 16.937597423431516 12.676043301259272
Cu 14.420485916214554 16.186327439232734 15.070174334255825
Cu 9.913122884326066 14.358553285637846 15.640903955991774
Cu 12.067449194613278 15.498998503126334 15.481999388464423
Cu 14.426687904670352 10.148086544422698 14.311094926449439
Cu 10.280706013108173 11.616782341025468 15.401942776690733
Cu 12.795730605071475 11.37663576893816 15.722657235351313
Cu 15.861748716080324 14.134662617102558 14.83581494898422
Cu 15.230904457266535 11.871697236825607 16.022445670068095
Cu 13.76612461913171 13.86398322252635 15.97037785323394
Cu 11.61552183625095 13.217161205074811 16.8734935541064
