40
Energy = -117.47361501 eV
Cu 5.361660403701077 8.778580852022802 4.884914573968768
Cu 7.034937477312664 6.853431496903341 5.451685520459127
Cu 10.870828463592646 7.542776086388643 4.217294323401941
Cu 8.788362646951615 9.01783172002731 4.054642988100228
Cu 9.263000642486036 5.710833570207997 4.76372504321851
Cu 8.828835587694627 11.164017953831335 5.413472457001783
Cu 10.734092839688856 9.68047049780798 5.48770288896787
Cu 6.845204577656052 10.594054365028354 4.088829427903108
Cu 11.086754967626245 6.049104900351567 6.593689057629856
Cu 7.330810326497806 9.349688183255742 6.037722230769081
Cu 6.12551909478359 5.62680374838262 7.959349827115729
Cu 7.647554535668439 7.553627374079186 7.646301498829085
Cu 9.392325503702414 7.695036083053272 6.015978726435313
Cu 5.247809914201607 8.005765863359551 7.214288174768886
Cu 11.610100785769731 8.537703094437582 7.450366222543764
Cu 8.63017996397472 5.333356863397575 7.121555025123749
Cu 9.257133178712099 9.528816609811674 7.687014405540103
Cu 10.455022746762438 11.447894972598036 7.295308569040744
Cu 5.3644588778231 10.584192161184122 6.818268299464865
Cu 7.828196625899365 11.64186601573479 7.581288997031538
Cu 8.564536905913863 10.865457350914948 9.833967932624981
Cu 9.943666622201617 7.140129529516226 8.386705796703136
Cu 4.061661580913189 6.766006095176488 9.130003345901603
Cu 6.15488689189401 7.590696589270888 9.554873287550983
Cu 6.8053130063894605 9.677865140855086 8.458949768394147
Cu 10.773230382446355 9.081157813597843 9.783780861343057
Cu 8.43831031514555 8.451367284475491 9.809505052115187
Cu 12.025683145269012 6.848436423326473 9.326248455185976
Cu 7.734353142834673 3.839094044300116 9.025976477244972
Cu 8.07300962405961 6.048037879344553 9.5034475739451
Cu 4.570141799121349 9.387193133731781 9.3396056160607
Cu 10.156976713598178 4.8864677425189615 9.23480239627041
Cu 6.000412992513592 5.391045924687248 10.583472387517073
Cu 6.080673742060764 11.622878743486348 9.44797497343117
Cu 9.972003791052844 6.8680837713099425 10.929488227671863
Cu 9.113284978035814 9.233045901003182 11.86527600359868
Cu 4.896876663221018 7.6378523786102965 11.47864329348876
Cu 6.606530312227921 9.582448217469318 11.006799555230778
Cu 7.4716569022510555 7.185818223635707 11.706950165038176
Cu 8.438820359923177 4.785884432482027 11.394949604946492
