44
Energy = -130.79825752 eV
Cu 8.378295625281067 7.784248216133282 4.739207628235488
Cu 8.386558238853523 5.479345605475626 6.023974534586729
Cu 10.592976025915714 4.323410383542837 6.3446695714251025
Cu 10.566596916376804 6.796068102303771 5.575189413653278
Cu 6.410597347538924 9.017824439655861 4.097408034823664
Cu 8.812114093492776 10.248770215965177 4.428547236715413
Cu 6.211226379860933 7.414859230318522 6.071050157166843
Cu 10.006137764186 9.168359648244781 6.2118363259521665
Cu 12.013020141685237 8.232625244340296 7.3424530736088105
Cu 8.50595803355115 7.556808459433387 7.115631903405153
Cu 11.166677551976827 11.09492986245408 5.604645055013613
Cu 7.245627244079997 9.699372336883858 6.169638971051957
Cu 12.523682006006526 5.819832629730607 6.998781192383393
Cu 10.34277632257378 6.136683396481203 7.852490964786119
Cu 6.626217541080935 11.760998581190258 7.481704175221235
Cu 6.702285013980876 5.727737890375327 7.9707633290694835
Cu 10.135184587521234 8.351785422422981 8.811529359433539
Cu 5.016932557931051 9.609894113148549 7.269512405547116
Cu 9.000264695123487 11.576855537234595 6.572225839278254
Cu 4.579960117737258 7.147366952656682 8.069859153935989
Cu 8.452031143055862 9.92356838800862 8.20977958003759
Cu 6.621401663655183 8.251748004545174 8.39492631437683
Cu 10.873106115023145 10.62982554053854 8.060232995985679
Cu 4.373068606404202 11.448977156663794 8.804728648622115
Cu 6.272908259856077 12.76519380609871 9.834555117386161
Cu 8.435736770741192 6.649813728337535 9.38017530425235
Cu 8.572057227787765 12.08249036192219 9.132298651644614
Cu 4.5271618578332005 8.989792388601725 9.768675167520213
Cu 11.505238594454473 4.248838277517704 8.687592795175414
Cu 6.407768012607388 10.427607657675836 9.439783149661546
Cu 12.099036990151008 9.152827904242985 9.801041653391053
Cu 8.871213944366334 4.319999243902275 8.301766468729946
Cu 5.99433533202264 6.879524978505561 10.257733079792425
Cu 8.064338005452448 8.804821072999918 10.337189934232333
Cu 7.503047552050069 4.762964388023582 10.367773062112338
Cu 12.027845254504173 6.673294298486181 9.45653433763248
Cu 10.309728992065997 7.768556809804678 11.12674762637337
Cu 4.99641058151436 11.100879156859097 11.216339661313825
Cu 10.066792756360334 5.313240169094337 10.425029230205972
Cu 9.926923875425375 10.33533646469292 10.439747742416468
Cu 7.615168352126941 11.144412488010701 11.363802479798952
Cu 8.02496899603825 6.838620712961687 11.790852641392839
Cu 6.182147918046522 8.96253291406766 11.738182543607172
Cu 8.686698836095552 9.209581662839662 12.545617331437688
