40
Energy = -117.69464239 eV
Cu 8.484656810326586 8.273821675723637 12.261409616241043
Cu 9.699506353962189 10.214729619651793 13.303766635681988
Cu 10.905407199751789 8.046693662292105 13.073813237706046
Cu 7.6112118497245005 6.668180460812774 10.67295416224748
Cu 8.146572805537271 10.492274575433338 11.325693003863648
Cu 11.782352393346619 9.830061680111912 14.647105905438567
Cu 10.063432446923189 6.815138645231817 11.003273184953006
Cu 9.0466893691981 6.342355747643696 8.701912635624568
Cu 6.498680810428181 8.88059167119947 10.577899135673826
Cu 10.349266367481855 9.29498890327639 10.955350115301345
Cu 6.572547244432346 7.4597498607643 8.60611939981851
Cu 10.137142796459203 11.890804895684042 11.568769695588255
Cu 12.388794664518612 7.859492185582063 11.135045366592026
Cu 5.928300797392889 11.297467168867817 10.557226160151693
Cu 11.411696370968372 12.102243593366827 13.710314996416606
Cu 13.480346042757635 8.648682809700194 13.342671914702688
Cu 14.082593972951898 11.268722146343752 12.891563187942786
Cu 8.686504489009605 8.594148072556552 9.319758058743712
Cu 12.038509774055768 10.26877363729403 12.31144356372257
Cu 9.722070548469896 8.127480402164673 7.062282557756833
Cu 7.47873755727123 10.664416135130203 8.838745838423495
Cu 11.143218117285148 7.688973098897889 8.986351334514232
Cu 8.091870968463647 12.67994420182202 10.236700950863472
Cu 5.435184730411698 9.71013726352294 8.239745079387939
Cu 7.441189710726933 8.978949334583012 6.978402708809561
Cu 14.169125208791575 9.517651538151345 11.187173318943627
Cu 6.209366725109026 12.638870843781742 8.513055758516156
Cu 9.791123909106396 10.940137743916283 9.233300324158478
Cu 12.395140461790367 12.769391134605128 11.513832033580327
Cu 13.29867307522709 8.840528870026942 9.002034555292628
Cu 12.122026908521194 10.826694475948482 9.910601030273304
Cu 10.4399958798735 13.309956963849842 9.616229580170137
Cu 14.345347941460012 11.77725960196374 10.409430364029257
Cu 6.837908707709386 11.292524406649829 6.591926493074351
Cu 8.690446360693906 12.719071056664566 7.8271112093891215
Cu 11.49408872109849 9.712764063850983 7.593966600475902
Cu 9.293550734164942 10.572616160876313 6.800351339900095
Cu 13.483725872756477 11.132535241649721 7.970347110961864
Cu 12.802121083037408 13.177194060725023 9.107034047217901
Cu 11.172481977697656 12.137327943839367 7.543712986020953
