47
Energy = -140.38816289 eV
Cu 6.98479814660236 9.651781400621259 4.150379907706028
Cu 9.424633750596156 9.035494403701474 4.075278325315194
Cu 10.76283736165755 10.887560303420324 5.204579064306478
Cu 5.885245653344573 11.159308140191513 5.687611291702788
Cu 7.696234935960954 7.68407327283785 5.282825852200929
Cu 8.343415741822694 11.221847103018455 5.412805056647931
Cu 11.59017505944221 8.49704056347829 5.394475645887345
Cu 9.86633849733337 6.718707997210366 6.000672381699741
Cu 9.544389275220844 9.174407453244093 6.415984906985125
Cu 5.397300248298332 8.67232550152285 5.839907822794693
Cu 9.727205050205933 11.461755458098867 7.461608494353967
Cu 8.239198824610579 5.057654476605302 7.273875053249847
Cu 11.808851479641366 10.066474852010607 7.324549159475085
Cu 7.257350723113769 12.061574335914795 7.58074728037096
Cu 7.235554684357267 9.60531298866869 7.055395778736593
Cu 11.04942025474161 7.809106433720188 7.965120891310306
Cu 6.200331845111966 6.443915795635405 6.696099295659549
Cu 8.27139730342989 7.43173430395252 7.6989709533489625
Cu 13.286100870994392 8.101883677955364 7.130064853927274
Cu 5.100175260482916 10.504820703024404 7.927270158539083
Cu 10.476591827210854 5.463292259109196 8.15395100785431
Cu 5.563121853513638 8.110674319592974 8.35517865993119
Cu 11.211799126271275 10.988131065566149 9.517447789575483
Cu 9.29924791547273 9.426449269068907 8.841113196388003
Cu 8.756250874006476 4.600175286826291 9.706705683292284
Cu 7.1262949564186915 10.473829927117755 9.36061705158354
Cu 7.403790505527053 8.160071462999221 9.949210408399559
Cu 6.746996584555334 5.881140839506861 9.04637966568734
Cu 11.942236213696635 6.65723709096139 9.96265701083057
Cu 10.456253648660384 11.521493185558688 11.751724470253917
Cu 12.863132463596896 9.045911464133498 9.328286384050704
Cu 5.192454560099525 9.568630130041791 10.413096618361372
Cu 5.510553189078588 12.062911345342192 9.839146533013901
Cu 5.414211558649737 7.10718345784751 10.725863407271456
Cu 8.922971681780137 11.955297832528705 9.768406348717757
Cu 9.490125814241015 6.971981606605892 9.832106011089888
Cu 10.898152935597734 8.77510847987192 10.6717182073462
Cu 7.671725604541559 6.134336323750561 11.367158182036462
Cu 8.776761585994478 9.87330549589936 11.20963909278864
Cu 10.22262027463484 5.5651564366412485 11.589602972567285
Cu 11.766314934675782 7.361024873554426 12.372230683350425
Cu 6.719865161983429 11.014296772046897 11.779080172415405
Cu 6.8425634076785204 8.548862897116305 12.24987943170786
Cu 12.572955295639566 10.19203170636167 11.545120825487945
Cu 9.24343939236771 7.713547383696976 12.415251670077566
Cu 10.762240005644863 9.502965955311835 13.073640868749962
Cu 8.391019665773165 9.99281997238641 13.511211477231132
