43
Energy = -127.23963155 eV
Cu 13.756789868135941 12.353213481215779 8.348884621723629
Cu 13.887422063128483 10.352619901192124 7.096165355072541
Cu 15.43963639585455 10.406760990119077 11.669343509830824
Cu 14.761929243558297 12.271342257555787 13.099260972218403
Cu 14.200764212173143 14.396526508134201 12.063797500935896
Cu 12.684455074301306 13.70586581248154 13.945679615164105
Cu 14.866417466664764 10.029372222427947 14.060415599432696
Cu 11.57149206873152 11.24655635170684 7.362433538079061
Cu 11.708658778828982 13.6933636983809 7.664692167950752
Cu 12.75486660787559 12.419609240439524 11.68384113403894
Cu 13.543258942059714 11.788510709542672 15.126892724712363
Cu 15.139357808894728 10.483358820246782 9.21040146546053
Cu 13.14493050858082 12.454660157254233 6.006817291025123
Cu 14.897421956054385 12.549520855364822 10.539712446927272
Cu 11.250487510154523 15.798350429220894 13.921896204972777
Cu 13.041200459497949 14.164523208250875 9.839531346246241
Cu 13.168566118457353 9.80503583848511 12.360361264575227
Cu 14.247712503295686 8.602361096596546 10.540237024618776
Cu 12.748802068511983 10.08704189857148 9.358410425065157
Cu 10.248170534491567 12.823234246117607 11.703084305529714
Cu 8.680222486508397 11.260160782262952 10.508303772165123
Cu 8.988888528368452 10.68898233149828 12.887083741616511
Cu 10.217449132188676 13.676277015620457 14.02957416806472
Cu 8.353196516927433 13.6556859970407 10.365139118765947
Cu 11.444331720562463 11.421947633689514 13.539719418600965
Cu 9.993754477827792 9.931203583103542 15.089932413634159
Cu 11.080332965635927 10.581005948476829 11.286032674618392
Cu 11.517742360650464 12.24817959982355 9.596345912946514
Cu 8.110960628910204 12.999025342914267 12.767901914745485
Cu 8.789107229283983 12.03261752226528 14.977299916749809
Cu 9.303007569678616 8.90328834611198 11.13801774380965
Cu 9.479308865081116 12.512578226551687 8.445852420866858
Cu 11.818290277778468 14.820177919151504 11.842685581793212
Cu 11.0034169371877 8.87032003876564 13.095544810638687
Cu 10.154787217931538 6.856751526441663 12.118555318216519
Cu 8.707429845304867 8.288342062587681 13.521941191270953
Cu 11.738354983874576 8.295014477353782 10.778195935383899
Cu 12.491399825835295 9.662662316293224 14.854061142906987
Cu 9.42702492239363 15.095889340540841 12.105237288916298
Cu 10.52733108977141 14.514162432362278 9.728366595791124
Cu 10.261130262055067 10.054554215627972 9.05659672057234
Cu 7.538447018447502 10.005451283111952 14.763690015916021
Cu 11.190878972608292 12.073028359163319 15.781197692493958
