42
Energy = -123.61888724 eV
Cu 8.796234539862718 10.652522862702499 5.531794030729882
Cu 9.498414348109245 8.611930839533787 6.930544757659142
Cu 9.576312194883347 12.894750241173803 6.128308814048609
Cu 10.658618565060458 10.924960579679519 7.015672274053876
Cu 7.186909780831319 9.52367987164147 6.894977851084698
Cu 12.915573988113529 11.101327979639207 8.168478491916249
Cu 7.513935808716341 7.926440694711049 8.607229046228317
Cu 7.900533000590363 11.744891764696305 7.582339534194524
Cu 11.567265308665432 13.190396551117868 7.608602379411536
Cu 9.063308000909155 9.916775662832613 8.836467585911306
Cu 9.765722864310563 7.548823866518231 9.299401925883524
Cu 13.53474503260757 9.251477392810829 9.841600893534357
Cu 9.264218167345131 13.483995053951734 8.485178204061771
Cu 11.419165509475077 9.218684103991162 8.616042040987816
Cu 14.831478946791464 11.22099747297771 9.616065081013733
Cu 6.739133715173647 10.216925274474104 9.263088225061075
Cu 13.239501970189552 13.14719027838754 9.487201310217765
Cu 11.074481432847437 14.123751867441799 9.925738896943054
Cu 8.112187345585761 8.785678764676097 10.839210957800184
Cu 10.809757847552842 11.702113183950521 9.379517097105094
Cu 12.034139434886809 7.366643594038996 10.074405526653894
Cu 8.426875861035645 11.827495913304642 10.178989901646153
Cu 10.402552508382978 9.955471346466531 11.08862690463747
Cu 14.710177743635386 12.740507509928092 11.42934870814537
Cu 12.432843002059158 8.800409339625027 11.997404530201264
Cu 12.499414891215892 13.756786856112203 11.819983807731042
Cu 12.561840423436022 11.27845334681887 11.10062942093505
Cu 14.533537562859998 10.203193946355123 11.988978096571124
Cu 10.300597328007632 12.549916170199573 11.709389664129246
Cu 10.20525341723781 7.515881237219715 11.695265935139485
Cu 8.523088506954315 8.414320117760319 13.189218770897694
Cu 8.466256919100369 10.724512084161521 12.38070840340456
Cu 11.113526146787244 10.926598562930376 13.439154224239296
Cu 13.485767919416796 12.035694726460502 13.330627477509857
Cu 10.865712054843438 8.489800156839788 13.846049555430062
Cu 13.166630729435669 9.721934361150124 14.119465446114143
Cu 11.417007915942653 13.314787994330842 13.976078469746412
Cu 9.083299128881192 12.525358827635486 13.834797945092099
Cu 9.116575028099742 10.180165655983302 14.732544081377586
Cu 12.686590304990814 11.777662861862089 15.527288312552693
Cu 11.323103413586697 9.805125212556668 15.799346561215371
Cu 10.316233280924775 12.040487760695221 15.822760748125738
