49
Energy = -145.99134698 eV
Cu 12.34722522674469 5.533915686829197 13.581803211739858
Cu 12.067730993171612 6.8869622156669354 11.586437043684317
Cu 13.436642341685797 7.71070239969293 13.505372761581292
Cu 13.233011659487497 9.1444986970718 11.49987795357826
Cu 9.875134987627492 6.857263643977279 10.468116990474755
Cu 14.553842567399734 9.919402252789343 13.344526358704455
Cu 10.13810240486274 5.659792101690569 12.57344331138257
Cu 13.572216793424133 10.086920151967515 9.239519267176762
Cu 14.913729733766955 10.984717537253607 11.094287887727882
Cu 11.460431172249443 8.620953911694098 9.43453258533644
Cu 10.95592619150704 7.555565303999003 13.873829766857199
Cu 15.087464752777992 11.881759827212298 8.76872382524802
Cu 10.772219477126322 8.91496590024375 11.849515746907342
Cu 13.000635374793696 12.947142624417904 7.775551124250853
Cu 12.122825166273447 9.76910082511157 13.821030034260486
Cu 10.163885746150454 7.0031710337661375 8.045571901924317
Cu 7.951343128438319 7.113592967901284 9.003223348813123
Cu 13.025156248839425 11.638820226000192 12.520701137987805
Cu 11.641029990899282 10.812121519817204 10.5638880831695
Cu 10.889515633517975 9.037701655907247 6.887777031151827
Cu 8.71475540651598 7.70882382208822 12.5987399425617
Cu 11.579003873445071 10.961503287734184 8.093270660865986
Cu 13.814843612651416 10.828956777175408 6.936341260798475
Cu 13.301338179193923 12.652384643398756 10.229198307380926
Cu 9.586530568459828 9.715660449466162 13.853182894504126
Cu 11.844632557816364 11.708081616040909 5.832929109077097
Cu 8.76366676597099 9.053203764067378 10.47921618091855
Cu 8.46443555440586 8.421236883441813 6.980382203212451
Cu 9.556345104272129 11.107539927018367 11.765359133484095
Cu 6.753853225866805 7.963561836935058 11.038127721971826
Cu 11.52605290489937 14.131151690662414 9.354637893752123
Cu 9.242736517178962 10.192335862265299 8.427607317719252
Cu 10.860185011993059 11.862275703755385 13.701035817960495
Cu 9.964434851943233 12.280796832873058 9.577480711023707
Cu 11.212919146720708 13.066645181409351 11.568223932130955
Cu 7.432129034348265 9.91735561637862 12.497434950842882
Cu 9.537754693253904 11.080235622323213 6.236310120421529
Cu 6.792320318911492 9.223388539382356 8.811071634456228
Cu 8.379256740389021 11.988380064407872 13.628573087656326
Cu 10.466111921750961 13.1470313913883 7.331997689980309
Cu 7.726091067205286 11.272740540508186 10.078560743830282
Cu 8.693452097114319 13.40376546060116 11.427239246837045
Cu 7.235835870617005 10.529885344068658 6.8325729289990695
Cu 5.671261348964096 10.200542663041574 10.77299342653968
Cu 8.072422328109077 12.55354063632382 7.836951033795896
Cu 9.064832807670724 14.452696535529746 9.093459457139
Cu 6.5591965242961585 12.22266969778094 11.966220201930492
Cu 5.846715198402097 11.548119061714 8.617347518886218
Cu 6.840698726265664 13.546685849809878 9.773219110304934
