47
Energy = -139.89112486 eV
Cu 8.42374353982064 14.131776670220562 8.659951629097076
Cu 8.693934482920005 10.843228488234864 13.982937656859486
Cu 12.666691752697737 7.250744018387161 10.379342076834595
Cu 11.84091616348868 10.268744702568577 10.031972308737636
Cu 12.520250915682244 10.597165434163344 12.445761491125392
Cu 10.817745146912442 14.79378115081458 8.652235896117467
Cu 9.563429117448504 14.342126528424853 10.72999301806975
Cu 9.801029323074987 13.589794871700619 6.710441474700163
Cu 12.66667818789293 13.247698958560427 9.090276361656935
Cu 10.771445634509496 8.3295677167874 11.51365053026136
Cu 13.555414289406713 11.086733323083822 8.415348790793862
Cu 12.865074717938866 13.119368664100033 12.67341542465445
Cu 13.710541782230296 11.847868607735977 10.746202235398743
Cu 9.08014105634432 6.269042182262241 12.171489600127591
Cu 6.705721762615657 5.74655512078396 7.9139267689081585
Cu 12.767085863768582 8.13393302520797 12.769395682006758
Cu 8.32296907313431 12.124974796326006 10.200786287063242
Cu 10.525779646277751 7.197412994385452 13.870637886777207
Cu 7.4084439372123025 9.861844463025816 11.064344117645467
Cu 9.8708071982008 11.224956097120637 6.1487545405243536
Cu 8.8718979000136 6.773699730733243 8.131841395512204
Cu 11.555595979578674 5.939189273434491 12.12466202605557
Cu 10.341418240109284 6.101105204307567 10.0526151462643
Cu 10.722714350401333 14.306430387974553 12.904478926584456
Cu 13.257576692858265 8.668705450795677 8.513413873459514
Cu 10.404063042684488 12.317841903718154 8.70936378824482
Cu 8.172048250215054 11.909411226794955 7.731775179578903
Cu 6.426195026215434 7.664427455925606 9.382489319165922
Cu 13.94659686208525 9.334958309492649 10.808133937378498
Cu 10.87505197883732 11.990913708012759 13.666294120867423
Cu 9.290977046393955 9.024449957518254 7.163274698221803
Cu 11.17938270741672 12.462087209419904 11.093080249622847
Cu 11.499630244319803 10.113458504396819 7.531322267419274
Cu 9.507293340598062 10.147041984884186 9.37509275342796
Cu 8.860710450188659 12.783012557756097 12.50500433664301
Cu 11.996303021671329 14.79019059211106 10.86024792440338
Cu 8.655084615462636 8.600096350689775 12.922810083163744
Cu 6.867559483366582 7.412647871304519 11.773229468608553
Cu 7.239220330465312 9.83313896478557 8.590169574866406
Cu 7.055261152228012 7.976592181663064 6.972205810806552
Cu 9.717746516101657 10.572753963588783 11.779149227506798
Cu 8.70561099386175 8.013668069123524 10.274286831013475
Cu 12.019152734440196 12.42896823923519 6.862962434230453
Cu 10.832840488960823 9.54999288413402 13.825471808042087
Cu 10.873530632271216 8.107001233582317 8.815490639695312
Cu 7.797666715988718 5.708536478870763 10.12414481447766
Cu 7.526450003878804 10.237784884042739 6.111547979569165
