47
Energy = -140.14630595 eV
Cu 11.608196930544898 12.876108291322485 6.002448058560652
Cu 9.425705412261868 12.4245723880732 7.073918487000796
Cu 8.620394369523952 10.096292356832729 7.070906428281579
Cu 11.137257955664076 10.64375607345834 6.732399688608048
Cu 7.033299184324716 12.072720522756685 7.239642800398438
Cu 13.156898436036768 14.078967814623196 7.391753998472512
Cu 10.528627623655398 8.467789900202613 7.591483580941516
Cu 10.517596963485015 14.645985379301134 7.3630932775530065
Cu 13.302161211266608 11.627268861745222 7.397403541057171
Cu 12.521685117136583 9.503142303499581 8.45968051294246
Cu 8.430045607505148 8.340981901050228 8.804409079370966
Cu 9.92919239729465 6.415807786497787 8.679507240837715
Cu 9.757691433647636 14.203521408621363 9.703783107456072
Cu 6.854157945583346 10.22931344016089 8.815810217699358
Cu 11.429862498880132 12.734760128517296 8.59879575710051
Cu 12.24033891868983 7.168597697030224 9.445022648957734
Cu 10.061348930239685 10.709317348769007 8.937301819690887
Cu 12.042935425643005 11.081040647528086 10.404865795691716
Cu 8.095234696018398 14.232424714870085 7.8944221511943615
Cu 12.051382855216183 15.117104659112726 9.260418226740507
Cu 14.462569484003199 10.718742492999194 9.337816504178512
Cu 13.703675912163993 13.010502455831467 9.547579690128769
Cu 8.041809116932237 6.3438634143764165 10.232151801184976
Cu 10.639262609892134 8.70028454645685 10.176974386258626
Cu 6.5962781730701 8.367669448816281 10.404476002785147
Cu 8.075334786823827 12.289247969193605 9.457691147161913
Cu 10.480032377763077 6.027042436805929 10.958762386012598
Cu 11.834509572577526 13.582366489792076 11.044398395536
Cu 13.392768360030695 9.037246819579726 10.744164721219173
Cu 8.436217406981424 10.011200176252352 10.68164537028172
Cu 9.119914090441375 7.893616999989871 11.961091147861234
Cu 6.7272009259747785 6.8993153434515335 12.316663858919751
Cu 10.455819554677202 10.063152668522545 12.245548975455488
Cu 9.860594998837549 12.179786205715475 11.079522403367267
Cu 14.031475795678926 11.47329763386507 11.631772518822967
Cu 8.595438413806583 5.438330452780009 12.429012452297128
Cu 11.915213764398711 7.63835613785115 12.056387652167873
Cu 7.079421382513385 9.25100670810904 12.66963936392871
Cu 7.745146763045671 11.60202864214184 12.291183386041688
Cu 10.5845761100449 6.155035129481125 13.464344928057042
Cu 11.953582667601019 12.02336244756026 12.822659674993554
Cu 12.781291413674435 9.740373621882187 13.031691329132832
Cu 8.82307899977489 10.019476049824 14.099623458253566
Cu 8.39159114469065 7.477313564384762 14.154842643808495
Cu 10.745275502261357 8.432563896846874 14.093141875122306
Cu 9.674962020778555 12.280525202510793 13.547503066739635
Cu 11.158870089856878 10.724744771920369 14.702569792640146
