52
Energy = -156.85331644 eV
Cu 6.321127913488266 10.074913592966583 11.776993717939936
Cu 10.186048701088897 9.196223750686425 11.095143441504826
Cu 5.163050808866377 12.005204083181406 7.539616722792101
Cu 10.075569444498022 12.726338528304865 6.289721771223309
Cu 9.005167480843324 9.683343723308141 8.980720135928946
Cu 7.228707161961479 6.331077732517722 7.749029891917455
Cu 9.451547840863467 5.190545651004948 7.995283359664556
Cu 10.553420816532721 11.445971622813502 12.333229228826738
Cu 12.93067055327636 10.978125253539806 8.853073506523492
Cu 8.696228916815075 10.721072571626502 6.64571963033153
Cu 11.550140395297781 8.696917675415294 9.027073985146949
Cu 11.307493061885737 6.757205759875925 7.132729233170966
Cu 8.276373466206095 11.227983261187958 10.79146628581744
Cu 12.534677103122059 11.875237198660331 6.404377999729613
Cu 11.35249330031277 6.104624435258834 9.445656873644403
Cu 10.758956170889933 10.506521778084448 5.1434806189950315
Cu 6.468553566021618 10.651432709904535 5.7466682708680095
Cu 7.40741561389093 12.772790078189054 6.743394861515579
Cu 8.97705758811361 12.359125625830636 8.579594536107589
Cu 7.607312897168358 6.207896185800973 12.497065252779901
Cu 5.132116540055053 10.680679887230976 9.76278560656616
Cu 8.521468198615539 11.649102839433985 4.526171215479453
Cu 6.885691921980727 8.354553463426027 13.419741437543818
Cu 9.666209227027496 5.093221314205987 13.064928390444319
Cu 7.9385425505169716 8.39020752013666 11.12223454491928
Cu 12.20883287091243 7.653452448761077 11.297005118503106
Cu 11.462961284818556 6.764606580064017 13.460000733403769
Cu 10.882690220122772 10.800630704223314 7.631500460996423
Cu 9.205942980939195 7.307087989091421 9.034750797218363
Cu 6.978131882986407 10.702346667203745 8.329762579086859
Cu 11.678096202655917 5.134560489841212 11.629264927345027
Cu 11.441956504241398 13.034671304221245 8.461170148174403
Cu 10.695533036480459 11.204778819234294 9.9469815801232
Cu 12.365007146772495 9.185002785793893 6.626536269834733
Cu 7.354281453682886 6.095782010225489 10.117707540672336
Cu 8.976750830246814 6.7353276137147216 6.064067446963403
Cu 8.64766930153509 9.093830326957688 4.831415118741734
Cu 7.413917303538989 8.598550953171221 6.962472236547393
Cu 9.885020881426076 13.286579349625177 10.685666660560328
Cu 12.348969962702528 12.601720100094543 10.827864510531779
Cu 6.672988540547516 12.756635781643794 9.443665364823635
Cu 8.678092603882162 9.98177460804933 13.000870087916581
Cu 5.716356047908683 7.510934081551045 11.42778271470286
Cu 9.209243312234985 7.664219973498684 13.725717288935686
Cu 5.080456753526399 9.492133719296165 7.486764632252941
Cu 9.418161252803202 4.743922094644438 10.459941176069282
Cu 9.9621303549756 8.679998557629395 6.966793908930643
Cu 9.882808336433168 6.828418320555941 11.455973472960142
Cu 12.488973868589255 10.095711528640784 11.195313941166358
Cu 10.91890051801035 7.972559714143923 4.91970989355254
Cu 11.136938250058856 9.189090423513054 13.262668102757893
Cu 6.40721021887937 8.31941997226961 9.196795928097814
