52
Energy = -155.33769755 eV
Cu 17.32227572463538 9.99178500337114 14.54381831287966
Cu 16.154804712730975 11.334229323735098 12.911817583247991
Cu 16.764244227901813 9.139098307379387 12.246259701686164
Cu 15.370741601498073 11.319476543790902 15.228986800017127
Cu 15.344694682663222 12.937781502773548 11.290527458452296
Cu 15.018970953390648 10.407052916665027 10.89103059782419
Cu 15.15006419412379 9.109431124380812 14.157873479012684
Cu 14.581633442620028 12.119432550714679 9.079538016681262
Cu 14.63346698018759 8.116521624812314 11.958211912176688
Cu 14.696106480606163 13.139088977400341 13.650832256182069
Cu 14.127774226042456 14.497292805242441 9.750758235103214
Cu 13.988434819247765 13.801479053749087 7.384638754076679
Cu 12.73807750570155 9.507907948787322 11.40723574389857
Cu 13.498380470475526 10.896799032705854 13.473757828923675
Cu 13.263422350082237 12.544903110532493 15.572674761709843
Cu 12.870240489685898 8.403592678850098 13.653419614246248
Cu 12.932469522206693 10.354697862231644 9.18837866628923
Cu 13.06688206030002 12.001112945370155 11.228777405162578
Cu 13.485556389278798 14.520350972827197 12.069828687209597
Cu 11.335455259715673 11.479466492177217 16.45162167028029
Cu 12.789682365875176 11.685425596122423 7.17189487158142
Cu 12.473808567369066 15.523217106177839 8.178851027163331
Cu 13.339525420162499 10.015777334696994 15.76920085072404
Cu 12.221384954267258 13.095099953445187 9.084189585563202
Cu 13.138319472330602 14.868216754888543 14.531977046609182
Cu 12.422343439346552 7.158328808320651 11.400440412948905
Cu 10.902868674438517 13.261318978424645 11.295984650152983
Cu 11.587758545933664 13.804287873079273 6.682134559126896
Cu 12.084413179299444 12.979786466424388 13.451007377217566
Cu 11.00541097976966 13.861151109438833 15.395998344032819
Cu 11.124577572350157 10.934786537068922 12.589729728503093
Cu 11.16001045325125 9.721052854957087 14.755265824873579
Cu 11.278280515314448 15.267511596743374 12.91604868088384
Cu 10.348116636282619 12.068966952450797 7.829524315673952
Cu 10.904435331863544 8.683185962338474 9.954859328372503
Cu 11.807689936711771 15.384865922889677 10.484104253530793
Cu 10.820904302112652 11.117723259164546 10.121662344941653
Cu 8.958390889715224 11.735345691427748 11.910006528074517
Cu 9.876012049609026 11.883534933997579 14.590440264869533
Cu 10.675062307829954 8.455070981650497 12.478494416058492
Cu 9.351277061380081 15.044195332859955 10.963360455170532
Cu 8.886201920979548 10.416048842708308 8.890583979700363
Cu 10.259669424332449 14.546312432914453 8.660387718638555
Cu 9.361288558369965 13.837713997108336 13.239996391292246
Cu 8.99930258822509 9.861062435824513 13.589559393389978
Cu 7.447567571418528 13.60502461027622 11.554235478070648
Cu 8.855620172017607 9.427321609581943 11.092795556111195
Cu 8.89126638135046 12.83581148225485 9.661002845042479
Cu 6.917912978317564 10.143142815765897 12.456028228780124
Cu 7.522341952053031 12.156805831650493 13.78397969248025
Cu 7.096472646792276 11.313969614522543 10.351539964041377
Cu 5.6421074945797525 12.149204889954996 12.234752998409377
