54
Energy = -165.22448705 eV
Cu 8.487567497279208 8.56442629000461 4.398024297803041
Cu 10.609089045305945 9.784615516716833 5.0559409664389126
Cu 10.428106409544975 7.414813716541483 5.545451186314255
Cu 9.53354907956249 11.818628679232654 5.90120008007204
Cu 5.823334452132584 6.08196174168138 5.74193833492878
Cu 8.123054478280693 6.657614832514641 5.913855871786438
Cu 12.2085911651777 11.378662173209502 6.094901062127908
Cu 6.404892260296673 8.480890909353173 5.967927618021031
Cu 6.995940305025021 10.8436837542786 6.200572794456794
Cu 8.76275092120887 9.136874827565032 6.660680671662352
Cu 7.53950398039241 13.151579745087528 6.684773094467868
Cu 12.248219291984839 6.3630689085123775 6.915826041189821
Cu 12.421654708072152 8.848418708168778 6.459782161908209
Cu 9.860834836321652 5.6044691070670245 7.330296251397205
Cu 10.729740786896574 10.39892943064084 7.575621692874509
Cu 11.749923844210539 12.493868456985014 8.367588252701601
Cu 7.3425980642466016 5.139121740047342 7.720197905566918
Cu 4.591667352516085 9.232632682508768 7.672662192721412
Cu 8.485671404449237 11.471943891894039 8.026879434237344
Cu 5.7523990192594505 7.063378689987754 7.907015993538707
Cu 10.69575148603104 7.8559799010136135 7.955460682640021
Cu 6.831909953873878 9.43175266860472 8.304916597729765
Cu 6.612249382226787 12.662940101263999 8.972332299490823
Cu 8.254223378191808 7.2317450339213645 8.400982577677292
Cu 13.13083417597778 10.406693391116912 8.305509641843035
Cu 13.106503838729028 7.869765732831268 8.720178713433564
Cu 9.14965076039211 9.365820327856735 9.104874547736289
Cu 11.541593550768116 5.87476485586768 9.26226841153283
Cu 9.014048909996387 5.229457356296962 9.691003581662565
Cu 5.176932402738741 10.7246769204657 9.696084503208104
Cu 10.07884908430448 11.511740583061629 9.867235791725093
Cu 11.481993684881628 9.376757912397618 9.849173516961462
Cu 6.651219860759241 6.117890433949823 10.01089529407166
Cu 5.1846579615585835 8.295208834127653 9.959336185164721
Cu 13.749622150618164 9.431129123056854 10.569968302158825
Cu 7.613850700481109 10.849133551128519 10.29728142457175
Cu 9.936178884854273 7.42405514430177 10.38291404392203
Cu 10.97712514552352 13.564148445491144 10.583239969975137
Cu 12.445186865584114 11.566908365430473 10.614590873447005
Cu 7.55030855134662 8.32700500617398 10.632234849966517
Cu 8.539835317171514 12.976166607276904 11.12091161238438
Cu 12.302221457990917 7.420509538782885 11.157906178992205
Cu 9.532279861254988 9.65998288966075 11.521817608730515
Cu 6.131198114523686 12.28292964774164 11.433823000197755
Cu 10.679070077468394 5.527773012719486 11.589436629013266
Cu 6.001922948106822 9.806552692271442 11.921682049790999
Cu 8.339671136581183 6.354968677087081 11.972897599573976
Cu 11.89845514878468 9.71840515561707 12.286196810703784
Cu 10.467994543046489 11.849050108457037 12.310095641491287
Cu 6.014545949469413 7.310438658120483 12.152671496437044
Cu 7.985191152687373 11.15111746317166 12.780170657225941
Cu 10.352390950410454 7.689790342654411 12.814110589426148
Cu 7.9107720640558785 8.621776219382419 13.122970298629
Cu 9.92343446399168 9.94414431324248 13.85445493081312
