50
Energy = -148.98289434 eV
Cu 14.554656509203195 10.382740710790653 8.232060050428544
Cu 14.86229114718805 10.369963444266416 12.265069005137565
Cu 14.068712127138198 11.498407120879358 10.278511928630481
Cu 15.807186291140773 9.420296119431548 14.28819880759034
Cu 13.412299864057566 12.690809138145458 8.141037495408863
Cu 14.217965713405787 8.876088229588689 10.201910320387327
Cu 13.214661417146784 12.274574381558 12.44511095998883
Cu 15.201705996000722 7.964553162600172 12.361807466500764
Cu 12.618506332432466 10.752695473422959 6.810101693364975
Cu 12.44322425855354 13.398285145492666 10.329463463574434
Cu 12.677501896858121 8.82923451806818 8.306492740210759
Cu 14.10110510405949 11.232890541090955 14.466434706093303
Cu 12.093389514734403 6.783131679816747 9.707940719526707
Cu 11.78391920599285 14.660589211481433 8.312048109530863
Cu 11.829666732369772 11.112186404327646 9.260203978427493
Cu 12.438930745856476 9.964332308695203 11.502311745624846
Cu 12.28271797095797 12.936653629503477 14.596165340643694
Cu 13.515231795630292 8.960571684037959 13.807451858115344
Cu 11.706258882857545 10.715308485950734 13.819070997905973
Cu 11.068510578693497 12.526877784538888 7.255511177210645
Cu 11.419320609758062 14.03594056791946 12.567373181268565
Cu 10.850270984612472 11.86529953971443 11.488348901168326
Cu 10.825542156295166 8.785814825978864 9.905523452376169
Cu 10.050217110881839 16.439672596252617 8.56992447742546
Cu 12.855108010756442 7.555701525845643 11.87744287213071
Cu 11.25182344970259 8.266655787532935 13.739643250081066
Cu 9.48727142033244 14.405633235075069 7.414799755262626
Cu 10.06413563499539 13.12058474814214 9.486988894862556
Cu 10.617000538958504 7.631225084512201 7.74916796911279
Cu 10.672599496440409 15.250291054249354 10.547105603424438
Cu 10.325493404044225 10.085880527382843 7.6193994953946245
Cu 9.943375813065028 12.49774907213978 13.844299472481723
Cu 9.316123058962528 10.75369056000464 9.795898331037685
Cu 9.34951361360613 10.086518055787192 14.313739436009335
Cu 10.517147709936934 6.92091142050194 11.798949056321232
Cu 9.996939077690456 9.50821019301767 12.06043953752518
Cu 9.050337522912413 13.785044861428966 11.706293556019848
Cu 9.571236398502863 6.519419039658301 9.625578543355132
Cu 8.542613092073156 11.459455609698274 12.083325807505458
Cu 8.690118318046576 12.166137150517766 7.72529681867762
Cu 8.35406112331875 14.874254449661255 9.565507117911032
Cu 8.530165091054116 8.6344019653216 8.817643872391645
Cu 8.91299909883498 7.7214694995749165 13.512896223444084
Cu 7.054588937298415 10.569866542303497 8.322214914538334
Cu 7.522250470066915 11.74186944393249 14.204880377652419
Cu 8.278027114057952 7.918676562710036 11.185812162061492
Cu 7.5432550279907264 12.519427524732743 10.008814777608695
Cu 7.326962741656551 9.541936996793602 12.98395854128226
Cu 7.0986582282136705 9.992487153527847 10.591662904643613
Cu 6.199399146935234 11.743699770359571 12.07144473662263
