50
Energy = -150.40127227 eV
Cu 14.501203578617465 8.376043222088828 11.576436704964728
Cu 12.929984135831177 6.631224497280892 12.40309855302183
Cu 14.777613380789703 8.518321118930878 9.213009288945454
Cu 13.286904481219876 6.597559916445602 9.959605756038767
Cu 11.077447432014797 6.256323654253692 8.648288539595656
Cu 15.281266229519339 10.575713339554524 10.553655160033937
Cu 10.912046474202139 6.260834530202466 11.07938738517022
Cu 10.751947991655342 7.901386704223775 6.8263042204376445
Cu 14.778189481355984 10.403999749340777 13.03875120000328
Cu 12.822280588872648 8.918457291734033 13.289338283362712
Cu 12.562239703268487 8.28100971617806 8.366265677207402
Cu 13.511936678797607 10.56765286935487 8.763794320574618
Cu 12.004802834712022 8.428443114410996 10.936894063292502
Cu 10.7775488686555 7.652935877403223 13.114110423569132
Cu 13.068716601759828 10.600091541904574 11.378615017719651
Cu 10.120826605864746 8.35028265047633 9.360006737117814
Cu 8.750495611846892 6.379094737180072 10.011402340437137
Cu 8.677559438700033 7.165107599033093 7.7744657320767
Cu 9.078784530648377 9.593651988266354 7.5453332776592195
Cu 13.438728212653718 12.713110012695946 10.05415732392841
Cu 13.887479893594401 12.679644939476635 12.47128427184678
Cu 9.000117635761063 8.263447213926296 11.58512310664483
Cu 11.469173960990986 10.201129278394461 7.286793404925671
Cu 12.430272374577093 11.248848959954874 13.723165630769051
Cu 10.665651203343627 10.122632402125255 12.185425593588368
Cu 7.55038763364738 8.678844251835653 9.464212254981826
Cu 9.145335868002197 9.381238652598196 13.92419806021393
Cu 11.252721425486126 10.580369206457432 9.71378313070447
Cu 8.892501085621907 10.454248459950298 10.27572118402286
Cu 11.905986921650586 12.473653927829634 8.122600872333825
Cu 10.11827808543283 11.609563417260652 14.16252274109228
Cu 12.656065248691272 14.600570978723082 11.73171317713241
Cu 11.38190300103949 12.45987011481793 11.42758869693309
Cu 7.506951712936822 10.085966520364563 12.312122086773925
Cu 9.687520940997706 11.917131210930977 7.056055549305791
Cu 11.470111867130948 13.543880472148674 13.626173508207017
Cu 7.604000401224325 11.29249303978404 8.325732796167566
Cu 8.944270332510495 12.324155894894147 11.890996203817842
Cu 11.44310919144306 14.404043948950198 9.69577803721024
Cu 7.7531964314165815 11.525853175657748 14.227637869249667
Cu 9.671482254918743 12.642751022001262 9.440269771452353
Cu 6.38917922316631 10.832640451863314 10.369930054204406
Cu 10.307201491401223 14.268885322690169 7.602003607320343
Cu 8.908994546183227 13.740906123294208 13.826937915436071
Cu 10.16309508770497 14.658400738924179 11.824013178695019
Cu 6.557223561647786 12.446136507251573 12.303770891408796
Cu 7.212409854975837 13.117573686365638 10.018815344752241
Cu 8.002176681438636 13.630635697310154 7.7889791591316655
Cu 8.951266710205005 14.966143789389855 9.677002230238886
Cu 7.737528197213085 14.598801716811689 11.842838053564886
