53
Energy = -160.35628358 eV
Cu 7.099050453889107 9.699735188934032 14.847449790852053
Cu 7.340364028788197 7.782093042053423 13.096607709191769
Cu 6.01517232280004 9.741118765006599 12.560571017403614
Cu 9.599472103753481 7.866746277347657 14.19141222212209
Cu 6.643165146214376 11.860565462590507 13.449790491129736
Cu 10.368063049833383 10.1186873373654 15.025822225270952
Cu 7.452917362477514 8.995860260749454 10.795582873231155
Cu 10.807532611236544 6.167773852089558 10.534263104943898
Cu 8.579518994935258 9.882877096332479 13.082693408313542
Cu 9.3531800905226 7.678919691858005 11.725425912573975
Cu 6.127257136779288 11.247903304132175 10.560107258979698
Cu 8.611517957305868 11.700961525415668 14.885104091281793
Cu 11.598985315989088 7.035021755327772 12.662924388674533
Cu 6.6354900553496305 13.608100928884475 11.614719684187884
Cu 11.011020174513517 9.332814994734386 12.859185685877934
Cu 13.311523530746493 6.914584417030386 10.587956598065286
Cu 8.170996254607452 11.808357628050654 11.534936908998649
Cu 11.557807532298558 7.083751483084793 8.501468881561106
Cu 9.413496992965849 8.260318001778268 9.220666547963496
Cu 8.125716989146763 10.617872075944012 9.084852505596704
Cu 10.219905808131792 11.834896841898422 12.83363043593482
Cu 11.618935503462621 8.539976400565513 10.526114231358763
Cu 9.719104628551046 10.027640053697894 10.900497081732222
Cu 11.01215296247627 12.629859873639278 14.898083586850069
Cu 13.319364583343296 8.877813908452518 12.282725648902321
Cu 12.518360179782809 10.821619614372214 13.938999123518204
Cu 8.397716726445513 13.607069926799008 13.426007901564645
Cu 11.928160869371021 11.140535576998088 11.232044143733374
Cu 11.081459728952636 10.159766285616167 8.78035029588209
Cu 10.026475409925352 12.223808108395994 10.01327872658467
Cu 10.684788376117051 14.324760673827562 13.067153628679064
Cu 9.349518689464022 9.788367486890575 7.1023139092333745
Cu 12.655690881882327 12.95361647922293 12.836208286801964
Cu 14.278769269682092 11.08302559512646 12.200712601216201
Cu 11.631623666499909 8.811381460596268 6.839660448040582
Cu 15.077687863081747 8.777904228714277 10.580512335099579
Cu 13.597717494032283 8.293809734944784 8.508174766447434
Cu 9.336459039711043 12.235144942250068 7.638929019193736
Cu 7.735956213933295 13.07840662797196 9.417891786263095
Cu 9.093981361437384 14.24203382414343 11.192089010944121
Cu 13.57576618745675 10.43594808808173 9.719568463624856
Cu 11.625147721914445 13.95551818336186 10.776432428185156
Cu 12.119581611187282 12.321055911453927 8.719476466198365
Cu 11.239625235303517 11.2684203053246 6.437806583566011
Cu 13.828236198720434 12.895411049656373 10.593602175945454
Cu 10.013010836590544 14.337166677230568 8.888306313326801
Cu 15.810630203273341 11.236665416642154 10.359864824070431
Cu 13.402009454858312 10.43879034790278 7.221530716013721
Cu 15.519174055853435 9.867563189702702 8.351946303790653
Cu 11.13767854827779 13.731568234963845 6.864837988864437
Cu 14.707483889038404 12.298811230842652 8.41218119303003
Cu 13.099803660685367 14.391067822830328 8.559825019514285
Cu 13.280150168345191 12.793481551946817 6.534055191668417
