52
Energy = -157.0371577 eV
Cu 14.015202725206919 7.305580026465302 12.152309022762408
Cu 13.180935936996383 6.797725785464979 9.863509726228042
Cu 14.925787448584423 8.74807491900747 9.459294037971818
Cu 12.761982151843592 8.542797723211379 8.19624463486839
Cu 14.153441103160555 9.63040236581545 12.889503924836724
Cu 11.586237791834545 6.920083026096904 11.81130215881231
Cu 10.837880773739254 7.716677464838678 9.65183878377036
Cu 9.967362558983394 7.404773542580653 13.576794020968913
Cu 12.326231529196345 8.234651514822067 13.764406438421332
Cu 13.0260683678965 9.025813252333787 10.787443275933512
Cu 10.361902067642085 9.493503512233893 14.634786752605544
Cu 13.734178176027902 10.778129363050992 8.661085876522746
Cu 14.753313092655718 10.880384080550263 10.86234702851771
Cu 10.33754261659867 8.800908016902179 7.508646756871847
Cu 9.06708356667132 7.341531285779508 11.361089364914784
Cu 11.376926083986616 10.146585183149785 9.436115558272125
Cu 11.96211535560316 10.633066927709061 6.976349730749694
Cu 7.993758061261327 9.779400408978455 15.036547577029818
Cu 14.080123390605959 12.067819109428791 12.981228323440114
Cu 10.96618281491652 9.39690321112328 11.977495181142015
Cu 9.139358642761161 9.538257688735653 10.265154212446774
Cu 12.299690708748196 10.751010435263545 14.03217980702843
Cu 8.289827693547169 7.821043958050058 8.926036443334148
Cu 7.495269548872407 7.707439951736347 13.422934078672544
Cu 12.34998039998064 11.569162829132075 11.321459279229373
Cu 13.940352198651766 12.942907284559258 9.751306264802205
Cu 8.689782376728255 9.606820550763084 12.733146780963084
Cu 11.934119644098658 13.141356718083987 13.789836496095912
Cu 13.407652049452098 12.83565305050041 7.285906214943453
Cu 9.405245258006923 10.969294209547744 8.214238725686318
Cu 13.241415148104277 14.010099982245105 11.859312762643794
Cu 9.689634115508074 10.856420588169728 5.8728876415913644
Cu 10.208776812516316 11.61936905435539 12.844513312575355
Cu 10.041625473867054 11.809193527321884 15.202089037416298
Cu 8.043156979630693 9.259097126660057 6.93986510952475
Cu 6.356754472538167 9.917491689003711 13.167185974644092
Cu 6.963487026946347 8.652647250364943 11.062201638858102
Cu 11.59708567993674 12.490270378015236 8.771706389672433
Cu 9.907819895667046 11.841084915132868 10.468593359247665
Cu 12.213785130972973 14.690706346229025 9.751410056720925
Cu 11.329038716319102 12.691948136418805 5.931924713952013
Cu 7.910853439231679 11.860483761961131 13.689331768370431
Cu 7.05240649451936 10.12483338119272 9.007527710036111
Cu 10.856816412515077 13.881380415628158 11.667877540187659
Cu 9.528149503189084 13.770366222153655 13.797918169732885
Cu 7.401816643438329 11.156073491585271 11.261805071471791
Cu 7.419983623539954 11.623625529988482 6.977693354015908
Cu 7.832643044896474 12.569309874355337 9.24100024848424
Cu 11.348387544986162 14.526770754918006 7.499310007901016
Cu 8.444075494599895 13.355469208991265 11.633758393499695
Cu 9.780476701315848 14.124241078955139 9.450131340989207
Cu 9.288466824427204 13.195348533146968 7.162958760084928
