52
Energy = -156.10300508 eV
Cu 9.684044766986053 15.347448207317065 10.277491870313504
Cu 8.590437602164933 13.470373329719374 8.960377477665045
Cu 11.012246364951592 13.768716072837275 8.92209975019748
Cu 10.04789258609657 12.186026516650783 7.248228295879209
Cu 6.3664302782485676 12.607944889423802 9.78152519807534
Cu 5.316088299643151 13.841818813201403 11.62364116873096
Cu 7.534299743336626 14.477684626406758 10.898685270071912
Cu 9.224831494817726 14.632254929144112 12.723147817591014
Cu 7.831203267861234 11.310530713386536 8.328985990962844
Cu 11.949609234867994 14.6105155848025 11.025595418057458
Cu 12.583691549978836 12.245477951509764 7.869981064454077
Cu 9.958940936279237 13.047848290631302 11.098131183702467
Cu 5.767247126479021 11.4400956570879 11.88201902402205
Cu 11.803304739281936 10.013278887099922 7.408935144294459
Cu 10.549186053256998 11.277226382502022 9.369274044553137
Cu 8.139695380011027 11.395695228562444 11.10231791137702
Cu 13.397790500519623 14.247038744916548 9.009083902709481
Cu 6.443147020965621 10.003432342786901 9.99437746879619
Cu 9.461510723071145 9.80444810230142 7.350317461047176
Cu 11.419924893050164 13.56974572138604 13.203756313494338
Cu 7.27795183793233 13.081831908023338 12.86256865802055
Cu 9.452846043765117 12.138386845018811 13.362316543295739
Cu 7.270775156078811 8.94136934641613 7.8832067811169715
Cu 12.25958311054286 12.086050026992154 11.266270225031874
Cu 8.859058924363042 9.44306691818079 9.718524328730664
Cu 14.679171502314725 12.099448876466175 9.265775099936109
Cu 12.956887930354997 10.398751162017584 9.600901764559955
Cu 7.338629691797747 7.622036082792146 9.96127002995637
Cu 10.363878689574612 10.400716065327156 11.624489953867762
Cu 7.536896896217623 10.656776236628872 13.423059125469388
Cu 14.274854959274629 10.417543259537702 7.526023871490013
Cu 9.38999606827313 7.533678235420465 8.258897222762839
Cu 13.65424655090797 12.620832075687936 13.314916359935282
Cu 11.210480754812023 8.756208023868721 9.748316942718722
Cu 8.396279411560947 8.81483783335906 12.019314016358104
Cu 13.330073792070813 8.275217456102565 8.180536750653696
Cu 11.741907227968543 11.177463299627604 13.742069665763276
Cu 14.221692350745698 13.576633805788367 11.162817821421264
Cu 14.660771529481122 11.13956639337854 11.544791428443162
Cu 9.772131762638322 9.700901392615867 13.97263551834434
Cu 12.691337475432295 9.562675797616677 11.91275401400932
Cu 9.619794234486022 7.054087888849551 10.62145602699258
Cu 15.12338932439186 9.468791374277876 9.727877875691426
Cu 11.654128047195135 6.5855778704854355 8.912415219637946
Cu 14.108450715509909 10.321320528638099 13.856960917154371
Cu 10.799076861051494 8.02056105348208 12.530708742477294
Cu 13.503670648838987 7.656776165185467 10.468003941631721
Cu 12.15035336703352 8.862062214954443 14.419757784391797
Cu 15.038272039334284 8.743603566803548 12.171693718317279
Cu 11.792004978510485 6.16033191979976 11.276403275331216
Cu 13.198041593212823 7.270768289434442 12.874701615849395
Cu 14.564142542077658 8.133719356940754 14.630069587623327
