53
Energy = -158.94198857 eV
Cu 12.208705516267097 6.450067922932034 11.82502285437074
Cu 10.121325864658012 6.7818180111192445 10.665267166538037
Cu 10.142625332296156 6.588413778707438 13.094367301615835
Cu 12.15642976810594 8.203883482840386 9.940051546509444
Cu 13.633734354015985 8.317708825627712 12.015932957539114
Cu 12.17826396850172 7.806116249302844 13.986120935075988
Cu 13.876242900477816 9.66187028485162 13.957886456689286
Cu 10.965286663222468 8.72094381513374 12.065470239457847
Cu 15.060433432642391 10.404023675826007 11.732188446309058
Cu 13.327103239430906 8.85496113895443 7.897516378573074
Cu 14.622479401109748 8.71956030439449 9.916680457261833
Cu 9.608975387188051 8.944450314884518 9.87434688158968
Cu 8.583254921794602 8.315391477567472 12.07616204175754
Cu 15.763850534905242 11.03448279229079 14.268992043539393
Cu 12.932714271615984 11.157821838692456 7.143042642878668
Cu 13.358813123370796 10.779093170083964 9.526156574221309
Cu 14.801121410839604 12.624566239094202 10.568548386133541
Cu 9.74546808230292 8.587052213740005 14.319051614769855
Cu 16.3693357624659 12.413687819939721 12.420307982713979
Cu 12.568947615814345 10.542414393618992 11.90408228236524
Cu 11.577857185203325 10.258134838321299 14.298466677506402
Cu 11.186530558110112 9.887830464202285 8.353757508597766
Cu 13.565379351188827 11.706929724686217 15.291285159453766
Cu 13.88583150149653 12.339879255770388 12.920217967250329
Cu 9.011062288211026 11.117226292439378 8.759821847134326
Cu 7.957384899957066 10.422273644790533 10.90395904418471
Cu 9.438972510317695 10.712508433700638 15.411536508394807
Cu 10.513565664855406 11.108423224223458 10.714347493230616
Cu 15.344305828887801 13.412063914810856 14.55009096466803
Cu 11.19938891826574 12.286962632773836 8.469755689239953
Cu 12.34149203735127 12.83034721032398 10.75718649182908
Cu 9.364900924575062 10.584753610235465 12.950919151712327
Cu 11.196609927268707 12.443723764973631 15.395984049170892
Cu 12.959018110081656 14.081937363916047 14.966037585605756
Cu 15.18447163223153 14.504501413907189 12.189234207938094
Cu 11.24048553568028 12.431106929100844 12.904308891522442
Cu 13.472297924098523 13.119559875300453 8.554354483752762
Cu 7.164464544422582 12.387018748676846 9.727443946132109
Cu 12.681136007993665 14.597328522264009 12.559706697389327
Cu 9.032063805123865 12.740150724345444 14.143250490998277
Cu 9.337094263705682 13.434198602136776 9.497110876510346
Cu 8.59449134885857 12.660525709252 11.7183093814116
Cu 13.71460980851489 14.93275547916956 10.27023766885071
Cu 10.411882955380664 14.432068825770893 11.448485565597046
Cu 14.618603114710885 15.702897738773332 14.205468519421835
Cu 10.671935868351188 14.592760292770219 14.193607163967915
Cu 11.491122347839543 14.611447708133001 9.230644665509685
Cu 8.563925401952101 14.8043536451777 12.957970113477815
Cu 11.82921469516371 16.43636377153305 10.832061810138804
Cu 12.324168797178208 16.456086280372283 14.159226953234784
Cu 13.9222633321806 16.68705959928206 12.07794906341714
Cu 10.316958416379865 16.52083724494646 12.74685053164596
Cu 12.038489988898926 18.221580823869292 12.504831778831216
