53
Energy = -159.08535421 eV
Cu 11.4585622162409 10.110665221171573 6.724234532017439
Cu 11.828163390969904 8.155818975092615 8.170368074178649
Cu 13.855391127012721 9.48089597409125 7.480541359218357
Cu 9.622373415463738 8.341234001945333 7.092588172129912
Cu 9.483457756793253 7.164092203204763 9.34998605854731
Cu 15.58757054371194 11.109923149241602 7.124192049573575
Cu 11.759921207232786 7.253632818546174 10.414579596454544
Cu 9.182155137390426 10.781252031722381 6.876845010753882
Cu 13.24087904879872 11.833467611123853 6.8600825232039
Cu 13.601131803127796 8.677617822932422 9.817181756435511
Cu 12.387853745675471 10.717940331766977 8.934628997672027
Cu 7.799069494240018 9.05906006590985 10.13795267253648
Cu 7.9159989316857855 11.115887618189324 8.941581196794463
Cu 15.315017928895292 10.343773463016998 9.47001403001614
Cu 10.077813832356115 6.031629745306383 11.624977935593675
Cu 8.512026769712659 13.064542862355225 7.486319144914252
Cu 11.603348531097206 7.681172078515161 12.814383030617895
Cu 10.032751540927428 9.55950805349794 9.113596226440908
Cu 14.293948484901183 10.149515533410328 11.663890649288197
Cu 10.903582975696844 12.616021933947762 6.69076777962706
Cu 14.575634535252325 12.475550653364976 8.830874087245556
Cu 7.824971688119454 6.985761868542595 11.495380414981836
Cu 11.829255770991159 9.81211122976576 11.189820400516114
Cu 9.803030004907296 8.46938803798174 11.409602257435996
Cu 12.948188971810103 12.091548873801017 10.821188098772584
Cu 10.236786125009907 11.945775229027664 8.872285099484694
Cu 9.267884812216764 7.362189471953228 13.564817823966184
Cu 15.25314557630546 12.390668791433274 11.276792150565342
Cu 12.726480923039823 9.72294545050706 13.470493367016815
Cu 12.308312714963893 13.401195507847234 8.685358071595283
Cu 14.04844933832942 14.341589593991593 10.225571305204104
Cu 8.324923672095496 13.262973972668838 9.971641079698957
Cu 10.135632121536661 14.48342507161594 8.711843273447524
Cu 9.571556825146082 10.9591912606018 11.201540258433175
Cu 7.626368921158091 9.235592594663318 12.561762535292873
Cu 10.269315007874278 9.687463833702791 13.667413188823913
Cu 10.752152678845505 13.230612540524689 10.849003757755398
Cu 13.759205686910049 11.909930128320662 13.38803486756876
Cu 7.243310683007665 11.368046397486163 11.354931712628382
Cu 6.889509602849933 7.280264278759048 13.79079147974585
Cu 11.31180760305139 11.919780902528535 12.835501620993776
Cu 12.996704657657208 13.998972152819649 12.356777147087751
Cu 11.824906223407421 15.305398587340168 10.472817154087743
Cu 11.913275056042995 11.161495405247367 15.162748647299525
Cu 8.181056360427956 9.089158635970616 14.932331851720988
Cu 9.368760580195474 15.267419433842328 10.953136254755503
Cu 8.774183657482624 13.17635277316466 12.366856489905537
Cu 8.272888116192126 11.267509303666392 13.715200073003668
Cu 12.17114086003429 13.500604627278971 14.653326746337472
Cu 9.57342664863851 10.897549644181682 15.778212498281986
Cu 10.715151961403196 14.573998132646118 12.922985256751888
Cu 9.744902894698377 13.040546103836851 14.623207832702208
Cu 10.926322931054845 12.72453556405854 16.704208726125806
