55
Energy = -166.70625267 eV
Cu 10.36443715736457 14.844441378687232 13.87926715801551
Cu 11.745952313013575 15.299507887668945 11.94706820103644
Cu 12.451263749949476 13.685686635118186 13.863466634510857
Cu 12.635852596220355 11.598448528144395 15.24058438216153
Cu 10.414550668339688 12.530109046362426 14.876498832286172
Cu 13.758311478361867 13.878527732964017 11.838229316236866
Cu 14.108269082669146 11.851611046656014 13.350573188376158
Cu 8.676150888997196 13.280150674295918 13.352849551142313
Cu 9.167574292515356 15.147106664065571 11.688836413778992
Cu 10.6049208010843 15.039155189197816 9.683999953284067
Cu 10.609003537403566 13.173882608517847 11.436762932747916
Cu 13.012133575488754 15.074408128734627 9.861568185042934
Cu 10.827102210600609 10.035404996634247 14.839311987627239
Cu 15.653810242812558 12.250071364237403 11.56132077567432
Cu 11.653185566140287 11.509026107235666 12.893936428474122
Cu 7.864920673307878 13.151983874104864 11.027602783121212
Cu 6.857832134706812 11.782412840358749 12.859191460377923
Cu 12.99400712966828 9.63343448640838 13.668518507825542
Cu 8.615219177122006 10.865181845199 14.367470596940604
Cu 14.544197451343205 13.212395960223581 9.542623878465657
Cu 13.373299878137075 11.606036997522974 10.947087547552846
Cu 8.259423342646173 14.726204809500516 9.309803601034728
Cu 14.72489558626105 9.834887823684431 11.907253986702761
Cu 11.90685826936718 12.95395341554519 9.321449716765079
Cu 9.21629710758983 11.267535403018055 12.038291832338926
Cu 9.427236405460498 11.749964482150713 9.492212776617537
Cu 9.782446951078885 13.479051904226434 7.863705478812155
Cu 7.373780552080837 12.457881414618857 8.565026129838731
Cu 9.180186938826116 8.362383810927078 14.081636263688475
Cu 7.507680898033332 9.445889576754984 12.593688921766272
Cu 7.0269719371833474 10.896220667556625 10.582961683684442
Cu 10.747580691410839 9.22386920798417 12.475929485116144
Cu 11.26377992724918 10.595788628156317 10.491750581724173
Cu 9.042287431368736 9.382104803509865 10.524713474252462
Cu 15.417029288548926 10.77103314343542 9.668504186006512
Cu 13.50376499160603 11.354601119291175 8.33958381752949
Cu 13.425232646894184 9.31898123602243 9.789930554926636
Cu 8.570069784592178 7.3956445942654145 11.900260310757792
Cu 12.960308674602633 8.042002242595983 11.816941613765449
Cu 10.860078352625706 6.849249510222187 12.69060906628267
Cu 7.575632308539072 9.848721537450787 8.50315912635658
Cu 11.288608098358106 11.567628372249514 7.411535403065896
Cu 8.895034162361965 11.227100299037367 6.978921862728412
Cu 10.230552268655718 9.568318989408125 8.38891624516831
Cu 6.87663335524146 8.365309133970262 10.379240909582785
Cu 11.042104737242543 7.948166406653487 10.207374759317467
Cu 12.585533118921434 9.333906440049368 7.4442409076960505
Cu 12.236159591633337 5.917658925935822 10.789372914994813
Cu 9.7846744237741 5.712879302887919 10.805712765264655
Cu 12.87175075452678 7.215383940135706 8.71748141767708
Cu 10.658906217842244 9.735711305007015 5.945804159543421
Cu 8.667834980937894 8.60356837950737 6.767913984485309
Cu 8.82494273016472 7.40107031121574 9.010333924225925
Cu 10.889157179110104 7.583651927223584 7.154632841723479
Cu 10.854732697530313 5.824853950977328 8.724497589393192
