55
Energy = -163.68782383 eV
Cu 11.934002420835258 13.540768991748054 9.209816739586921
Cu 13.083147851650365 12.483395971444704 11.20762749274204
Cu 11.400087559044657 11.302479896969075 9.971481631601407
Cu 9.8352663565607 9.924440252195842 8.81843840512373
Cu 10.465197308758233 13.717707593414053 11.078915018444816
Cu 12.367626424785724 15.360735291720685 11.030693472126519
Cu 15.174686161643436 12.067147469964114 10.079488019907686
Cu 14.692434745494953 10.76018945752694 12.127680926694195
Cu 16.340046821436722 14.192213165434108 10.567290196858098
Cu 14.126885482289543 14.275946660845193 9.671566331378799
Cu 17.1187397707187 16.23112682102284 11.639800278525174
Cu 18.67501561194751 15.653725063265053 13.52238272696166
Cu 18.52840279984949 13.99519159917239 11.645471192314524
Cu 12.135264721260954 13.693501005206404 13.03178524971443
Cu 9.035205018056029 11.560410756513317 10.395229563852928
Cu 10.138050872071654 9.547953078740658 11.208720849703218
Cu 12.360097034341765 10.099475540807774 11.92543313706901
Cu 14.885993995544315 16.440439144130238 10.570961031411004
Cu 13.253496519570875 17.667793273846378 12.019588519956944
Cu 9.707497078654592 14.452832110469515 13.355804998482466
Cu 14.44248797885888 14.683517096550798 12.127882379509279
Cu 16.76243255963304 12.151495683886791 11.941297776574201
Cu 8.523181319275091 10.536299373471513 12.729428996884371
Cu 8.273218671884923 12.982237544237295 12.10787231207188
Cu 14.642335736094092 12.770837261663198 13.542901773443432
Cu 10.548530525508802 11.779379498361703 12.50439610642871
Cu 16.70635109620403 14.270986610881504 13.165007047317063
Cu 12.629237242447353 11.42830461624079 13.969794726655184
Cu 15.6495540506741 18.11680159106489 12.180384674802097
Cu 11.908316052266795 17.88829485870591 14.342700317921782
Cu 16.5971494791859 16.76393899093726 13.968289616688823
Cu 8.539262096095513 12.302317221576653 14.402365227190794
Cu 12.731100470504 15.88700197450588 13.498156727789071
Cu 14.846588576060077 15.092043121037896 14.58559219516048
Cu 14.998573071698507 10.504215215170863 14.58406831868974
Cu 13.78037184859776 8.797534055700497 13.38144880290929
Cu 11.023031479996007 15.511767374590454 15.172160637974706
Cu 14.355354598465759 17.721297829716438 14.23088206172006
Cu 18.822236617746416 13.30620563092985 14.004552111951416
Cu 14.666101296582365 8.39768649706431 15.655451058403312
Cu 16.880583083908032 12.026288308090418 14.404432529054189
Cu 10.367337876988044 10.438064799345828 14.547811938607072
Cu 13.171225450566734 16.34502789689447 15.949608940742953
Cu 14.04182615102792 10.524507293377502 16.822187940241715
Cu 12.46788034800036 9.362458024927012 15.33684950884149
Cu 10.73763166302359 12.914378432492729 14.912709783267253
Cu 13.002841656289082 13.733635965023971 15.42405217988122
Cu 17.003467508431513 14.541614814434627 15.564925140262746
Cu 15.631486970651826 16.78000940535714 16.17102447874339
Cu 11.213161164823552 13.909506184348965 17.072868176630283
Cu 9.004890504795693 14.342897095177193 15.78127190685256
Cu 15.175353764133702 12.606451294465936 16.00519706263773
Cu 11.80826663416938 11.432408482352084 16.42695302778524
Cu 14.75216812119533 14.738597102126985 17.062599182335102
Cu 13.376357313665716 12.781557244818396 17.681737085541393
