55
Energy = -166.19503353 eV
Cu 10.730734234799082 10.759280852278119 8.548466981736913
Cu 12.960059077464287 12.052558685599234 8.25092452356406
Cu 12.987020529449385 14.506085597431827 8.882513747237056
Cu 10.55473094480442 15.477972684496079 9.874384653555321
Cu 15.059846581310476 15.701686124152486 9.46567084138408
Cu 10.92860789891205 13.271388742239683 8.692381214936747
Cu 12.911483701276758 9.838315287111286 9.365826397725582
Cu 15.091802721865745 10.887021979418654 8.72768418141762
Cu 15.161234157469018 13.34776913917061 8.983421572454885
Cu 15.061571221400051 9.653259254106176 10.856004529193013
Cu 13.209812734546711 7.936595731965831 10.960159085056167
Cu 11.184757202262087 16.469477867314932 12.108718971614966
Cu 9.28624901153412 13.267899605740483 10.408422774883716
Cu 11.928457507286247 14.107912445738867 11.14993295905079
Cu 16.685049284228317 14.39810825396227 10.70845153916713
Cu 13.002755174870167 16.30708282530104 10.512051299004531
Cu 11.366339688141217 11.685803126819616 10.599629477956322
Cu 13.8453784324102 11.969681072903589 10.538717933353912
Cu 16.280899936835795 11.921960948774036 10.70148134740366
Cu 12.901656075967072 10.08774290532983 11.871068976347397
Cu 9.087585073748606 10.936665051378672 11.254829987567701
Cu 7.868957767555431 12.893240388335833 12.488760213090103
Cu 13.26817774973954 17.728372248297227 12.44048131123903
Cu 10.848555865890742 9.211998635724372 10.6315070974434
Cu 14.905055472270478 13.621407422006738 12.051932305911661
Cu 9.304776101781174 14.936367488235343 12.185438795384432
Cu 15.34564921307498 16.197470104727458 11.856068878467086
Cu 11.01708782561221 10.444760406190944 13.293523317920688
Cu 14.32806590470205 8.745237990394063 13.240442346207905
Cu 9.220777824825657 8.915398113709607 12.554937240097814
Cu 15.042362254822345 11.233248933022102 12.749619071183197
Cu 8.779479597790928 11.049970198755826 13.905448080685469
Cu 9.210406996382149 13.593999581563581 14.584535097744796
Cu 11.526025784984535 8.059249009490573 12.73411660101401
Cu 10.215205214018862 12.664426976300879 12.592648559823237
Cu 12.056382880307842 16.764841355615175 14.467940628215715
Cu 13.407685043156969 15.31601982522074 12.98326795989558
Cu 11.251485776732956 14.580078580064132 13.67123191883281
Cu 12.474742646883197 8.440264862354669 14.891685998855165
Cu 13.272573051989419 10.736757714718095 14.355939559102984
Cu 10.057985500714468 8.893510462401734 14.831812052242908
Cu 12.633857744019572 12.433908762049851 12.663044467056604
Cu 15.724087304718081 14.836219556187453 14.073755706302448
Cu 13.993303535099928 13.18559038262893 14.430271455771964
Cu 15.563457722031151 11.495266925359363 15.183561347416992
Cu 14.731658865715692 17.06686132428105 14.187127465779437
Cu 11.393461425208267 12.41202989845152 14.893928030631239
Cu 11.613369715367957 10.304092394119374 16.199859770999424
Cu 11.272406904584793 14.70367576183168 16.04096069145194
Cu 15.313842412438934 13.661663813574096 16.341381578521133
Cu 13.696233749020244 15.390972045986455 15.600098295141052
Cu 14.395243156274415 9.45677579948158 15.948346528260826
Cu 11.21547335338916 12.521365724314553 17.26095330911338
Cu 13.552661056345585 11.785079708428675 16.61335690105775
Cu 13.140392773821953 14.00252880679767 17.458193806379384
