55
Energy = -164.40845012 eV
Cu 14.055064911281216 13.377312220417334 8.205217728110126
Cu 16.22614445117028 14.400898554756903 9.038331874315173
Cu 14.164160917742942 14.689010727984943 10.265836138333063
Cu 17.704346579440006 12.662163973677279 9.933420897808622
Cu 10.05001669184996 14.83579717763777 10.266699220566881
Cu 12.155657762676611 13.48615796435967 9.778254247673958
Cu 12.128543268921606 15.721833498462159 11.04522127387692
Cu 13.158219247036481 11.187479085848675 9.105087143504036
Cu 16.063079957039893 16.24604975320602 10.717576531738882
Cu 15.19430644429494 12.248538542711072 9.960709836794665
Cu 16.13059506574405 13.862533389833697 11.52217206604782
Cu 11.994329313243542 16.033997326978977 13.409279586369694
Cu 18.149779071571075 14.956740758638315 10.648269249361226
Cu 14.644589920917461 10.121034389893643 10.893448549552366
Cu 12.40351572954402 9.178192452855653 10.85988724978337
Cu 12.83279561508225 13.74985468626594 12.411187933264191
Cu 14.434538090030593 15.666259888150913 12.503604094801988
Cu 10.270919389157338 12.486361831534014 10.846692732721472
Cu 14.762506715293457 11.996507356852627 12.619080857688434
Cu 17.14152112542955 15.70287217360474 12.839365417680606
Cu 10.370757053269566 10.174188981908134 11.733267970292905
Cu 12.569003840610286 11.548791178444812 11.357355680176578
Cu 16.784247952227105 11.1728842712673 11.606314412921623
Cu 10.978082158799296 12.053743206713662 13.185033010608864
Cu 8.64452840935311 11.779727141208513 12.521024493473918
Cu 18.29717112315832 13.039898441964027 12.274899443394604
Cu 9.808668458683872 14.217770113259078 12.597352758953035
Cu 13.059898142436744 12.218455582873535 14.44544611652078
Cu 10.033131576154657 16.55042123032602 12.108755832909821
Cu 13.42028461239985 9.929400276430675 13.019174893808147
Cu 9.80660423539491 10.171661448029559 14.165203875023703
Cu 11.418253039150983 8.548124650727422 13.149790594279823
Cu 16.930580126977148 11.81527608093482 14.018920396289074
Cu 18.181304011043522 14.005611027302951 14.445938899637373
Cu 15.505572450214643 16.32034396095934 14.673980107050193
Cu 17.944447067403 16.36141677901096 15.01247509040544
Cu 12.152981795912044 9.848801802701729 15.066613092442426
Cu 9.077955615443908 12.974735557775025 14.576959760664812
Cu 15.752861248169262 13.875073293265151 13.954370463770259
Cu 14.848782955243543 10.743690459559385 14.90497966814857
Cu 11.352555374592677 13.97208946925028 14.626630552450504
Cu 9.781730451402664 15.714144479271713 14.716786613335143
Cu 16.598724918419606 14.662702503765825 16.16337032088416
Cu 13.639276225336559 14.718315603180107 14.68283972156069
Cu 10.866713562534443 11.766581913357303 15.778923058171493
Cu 9.947414228042916 13.865846237349942 16.686943362429965
Cu 14.842700419504707 12.979421490195683 16.11264170689175
Cu 13.121686279879452 11.343803004497792 16.755744899383465
Cu 12.074189238880304 16.143461816112744 15.843028648646866
Cu 12.56597571773151 13.797877780763052 16.952332591069613
Cu 11.180206885481534 12.126558634779574 18.124080747309442
Cu 14.397701043024965 15.469114438407658 16.84225344796622
Cu 10.16357294015173 16.180135603234433 17.26209237936804
Cu 12.494587743791373 16.131155443406346 18.199630315074838
Cu 10.970857240365936 14.416818752748526 18.81314085334332
