53
Energy = -159.52048987 eV
Cu 9.313820224153384 13.314661391238051 6.619040408603055
Cu 11.140657481868182 8.908810682885923 6.055459275230104
Cu 10.088621699507584 11.068928442034732 6.03498181417912
Cu 8.661155108777885 8.995301678351433 6.356550710399546
Cu 13.579169859513478 8.777309583641241 6.3688122584211
Cu 7.866860353577151 11.370297760316689 6.995771870760801
Cu 12.498110624335691 10.941784830344156 6.692342420506049
Cu 7.724832800960914 13.336323407485006 8.489123815143174
Cu 10.880231238233007 12.192748175096927 8.083591010114834
Cu 6.701423678758914 9.354501355392266 7.7440807233556095
Cu 14.581767996259318 10.122118060130312 8.009652602850087
Cu 7.744725314732455 7.0397349180103115 7.902510805344773
Cu 12.331733815444979 6.9137782574792395 7.067201202405675
Cu 10.105891119408287 7.55829977264372 7.777118571508288
Cu 7.787727370481345 8.574768478577115 9.800384515941367
Cu 12.064675712016978 9.195334236017535 8.422242820906053
Cu 5.653411377932184 7.5311577314485385 9.090570623694818
Cu 9.420027368819031 9.995621648912627 8.453840280579469
Cu 13.091758411378573 11.627229766317013 9.06851378886737
Cu 7.262856560693839 11.110587660902807 9.433199980580621
Cu 10.00665524832023 14.407705727147436 8.74454965355232
Cu 14.021079701593946 7.8116525452038506 8.770792798260201
Cu 7.137424292914752 6.142553355180344 10.301539524801099
Cu 11.626174134633949 13.247549404945925 10.277360690032875
Cu 8.97251756409469 10.125667592673167 11.378397568827596
Cu 8.281891176887253 14.795872217701362 10.401830958714724
Cu 14.27238401402258 9.871508870063415 10.383360419979017
Cu 5.344505389983751 9.725629036206554 9.881861187462032
Cu 12.959626016583636 7.97948890030635 11.006266314501929
Cu 6.213185166937349 8.13261018939948 11.631546704735177
Cu 9.42938984301481 6.2050730391268445 9.703251897550173
Cu 10.375745495882436 8.428316805986448 10.20257292132229
Cu 11.859940450114205 6.598598058569096 9.368369939161694
Cu 11.088596943193092 10.753208502680943 10.134411462009586
Cu 9.24908981176662 12.44901920582865 10.143557029219018
Cu 12.959914876568133 11.610769408405615 11.607887093257656
Cu 10.591424423135486 15.230941909587155 11.112238408666617
Cu 11.82840404081526 13.764854543319085 12.695021541901609
Cu 13.733555626157356 9.582166808548234 12.827108449799598
Cu 9.100115856267456 13.86340541560951 12.47061597840674
Cu 11.372520953501846 9.506757519001606 12.301122390150917
Cu 7.079336168320478 12.853850937324589 11.187063212804206
Cu 6.476087646074124 10.549233509629452 11.816673316020232
Cu 10.91652078467164 6.594864894694 11.714314257521139
Cu 12.499048830330745 7.435609062054148 13.31938789538024
Cu 8.601704785803502 7.386278625585963 11.844410697487303
Cu 10.466041206785983 11.881210966231416 12.291009462591905
Cu 12.203121340050705 11.543990795353537 13.902644522278282
Cu 8.094551756449757 11.752999131780559 13.169706918004627
Cu 11.962156158438951 9.293732112757997 14.706288536995437
Cu 10.07398796960659 7.956834518203759 13.715677045770038
Cu 7.82110105389951 9.177927419358388 13.355863012835115
Cu 9.840229965319631 10.368307943302257 14.125795499600315
