50
Energy = -149.85528644 eV
Cu 10.151082459809121 11.517726122867078 15.894625838127928
Cu 10.099095749101547 9.793190191803715 14.234845237378735
Cu 12.259851881091798 9.20248649185792 13.231550236685298
Cu 10.202868381403245 7.84168683647856 12.628086647037211
Cu 9.030858263706605 13.473325090239468 15.202102788012798
Cu 11.525795495581258 13.561460854643142 15.056996937307101
Cu 10.324798476686054 5.938684908126555 11.014188435246446
Cu 12.187549040136568 11.203612158151124 14.679696492747556
Cu 10.225581874621685 12.436430644741588 13.245160893021009
Cu 8.25633004254648 7.361926518753961 11.130022031510038
Cu 12.383760170111865 7.314657568846868 11.52734187490588
Cu 10.0422837741215 15.132753392811216 13.81396551839792
Cu 8.233160453864539 11.385806852959679 14.177586801465418
Cu 13.659003134551268 13.054698952371991 13.907035859263845
Cu 8.166503564410895 9.303266004026433 12.670950379088874
Cu 14.362902506578127 8.709247782641214 12.116726073761303
Cu 10.313496448346118 10.20434094598983 11.772010565186664
Cu 10.454563182093707 8.173429065498764 10.131323182216208
Cu 14.282079762884198 10.703366802869903 13.489329418345378
Cu 8.054213834767388 13.724466060412345 12.995477282979309
Cu 8.39863106967202 5.45243663243384 9.590227373506838
Cu 12.520762837359321 7.401485991051752 9.028517245558094
Cu 11.96677269245997 14.200454787800647 12.62218840165392
Cu 10.465019471301718 6.164865269473255 8.53515185244723
Cu 12.395898875994813 11.637780734477898 12.204914592544679
Cu 14.49841501240034 8.767868065532918 9.688619030643158
Cu 13.951027826345253 13.30335078385863 11.415273278160866
Cu 8.216197586381716 11.646390495211977 11.715028295779145
Cu 12.468351260877167 9.59015929732151 10.662385363707024
Cu 8.524357044523724 7.6933446263324035 8.623479669554287
Cu 12.83133655075138 9.639522076868165 8.0642501696417
Cu 14.69498592566744 10.90419505518554 11.043856883114234
Cu 9.80204975590365 14.587248361684647 11.482795398921262
Cu 10.706231224908478 8.408550035580708 7.590267917829891
Cu 8.36435010507497 9.635309687079564 10.18977090071244
Cu 7.646366836341367 13.797714512428913 10.572427008232115
Cu 10.536054333643152 12.357452860779976 10.675271945516666
Cu 10.63842038811188 10.46329190353834 9.16033273075281
Cu 11.948254942830545 14.174431952115302 10.145407701115676
Cu 14.865366668681347 10.92688541844977 8.556311982961871
Cu 12.915073621122515 11.875001082930154 9.638072394351113
Cu 8.409434901025781 11.86398823733107 9.251416539858587
Cu 9.588223973079245 14.101996989029255 9.064316356488199
Cu 8.777327827990147 9.978045111086145 7.680417640262765
Cu 10.993697796875281 10.688246813885717 6.688174100754191
Cu 9.249689435722159 12.433926547838691 7.036972901618617
Cu 13.21451073040915 11.739556115467794 6.942761403471261
Cu 11.378699627296633 12.84479246054331 8.097365635518681
Cu 7.416070740679624 13.709983512360456 8.111313792979464
Cu 11.359136361056592 12.836213176271633 5.6974577494468415
