55
Energy = -163.67251483 eV
Cu 15.114926690760496 12.502571177639732 9.996531764422206
Cu 13.334435056850726 10.816487244752114 9.234396621762937
Cu 12.802527898226874 13.292293456401133 9.451056185783898
Cu 15.82557495361018 10.341158239964958 9.338317945424059
Cu 10.948499746501684 11.698610974434176 9.021379356241264
Cu 11.993279593767362 11.57392600361828 11.148150543431889
Cu 13.595638608025041 16.80938396326748 11.585497793123094
Cu 16.892791299879658 14.071739016846998 10.016305120774902
Cu 12.816171698755632 15.9032310058048 9.315146051596004
Cu 16.51591688070352 8.911316525539547 11.148587489388252
Cu 12.384911744809461 9.096303573886855 11.49126821359532
Cu 10.120611998210192 13.100537824686631 11.033612943148011
Cu 9.669751714037695 15.515371268599674 11.688573780211513
Cu 14.605219723424133 14.819107076586013 10.58169599574655
Cu 13.727168495704424 12.934720741856202 11.99315966412088
Cu 14.439107506117683 10.49494371851024 11.44631511212873
Cu 10.681531077027296 9.247095212940032 13.2174252684164
Cu 10.093389891618788 10.21726914212402 10.926386238598718
Cu 14.287790294006665 8.570592960985033 9.948242997085206
Cu 16.11125596749452 13.6805078099182 12.230063717269287
Cu 16.761403795522224 11.352548855514524 11.574265841206842
Cu 12.497941115935994 18.908215466569512 12.105290530283861
Cu 11.319979187021383 17.101488543142015 10.91380458015218
Cu 9.262426930907663 13.83490923565345 13.387362941081408
Cu 12.6898579267253 10.90466164603245 13.375926773121543
Cu 12.079155528240813 14.752832537654632 11.235803292160238
Cu 11.652600107976859 13.308316619528837 13.172502630074753
Cu 13.923434518625418 15.00181394983125 13.24288198168294
Cu 10.471965824930267 17.96883947447672 13.051585200725246
Cu 14.581046063513542 8.118750288073727 12.323665472808855
Cu 10.01663785000966 11.534302376937578 12.97003399278489
Cu 12.82419944416256 8.301822847804385 13.911495146681803
Cu 13.073421878673292 17.40116965770841 13.937244059147096
Cu 15.838458120720968 13.954305934833553 14.602621236963731
Cu 11.712360535140462 9.834249639399424 15.431556365272256
Cu 8.992518151257075 18.53427622274919 14.837065866343586
Cu 9.038162465142092 16.2177991335594 14.062041135835484
Cu 14.976490375402703 16.179092816703832 15.138057708263528
Cu 11.388863273747848 15.713174408283763 13.391046000826874
Cu 13.408408170661447 12.987068143418416 14.811310227377346
Cu 15.09018584629563 11.734976023011633 13.511190714034745
Cu 16.307129407919156 9.668142234733457 13.48845487233081
Cu 14.269445263263592 9.936686805771842 15.065844332311801
Cu 15.164683570269345 7.766231052659349 14.616754050413043
Cu 17.353122741962824 12.052933471408943 13.93155650883907
Cu 9.365093609973592 10.3722411517282 14.970860919149928
Cu 14.53639588143859 14.155781821529585 16.677613256495988
Cu 11.021385209182897 12.168838515056768 15.30146904078456
Cu 12.72289030661349 15.497148786882288 15.46925348299361
Cu 10.907681102658124 17.13048265849259 15.395115455235292
Cu 10.443301458103978 14.607974344183948 15.394778293147967
Cu 15.495382753617926 11.943904459931082 15.906047877712325
Cu 13.10663436670126 11.472981806093559 16.640285713322925
Cu 12.119589202276602 13.656365356843029 16.982581573365987
Cu 13.052071071753362 15.753330671318588 17.785344020679837
