51
Energy = -152.30858704 eV
Cu 8.312467389054683 13.316942939428996 13.685532167378259
Cu 10.78886813948382 12.316362060862712 13.985512362676081
Cu 10.144794290550035 14.413257750279419 12.70055086039693
Cu 8.57931358990647 10.973667554501057 14.134566112276309
Cu 6.9711118549120865 11.649617711808464 12.480142509846281
Cu 13.443751362510342 12.485904809436935 13.87771374646649
Cu 12.472586163680761 14.163419701901452 12.429312264746622
Cu 10.509759832111605 10.22283979063996 15.387436750219136
Cu 11.166727550778981 15.665912560896952 10.923540739989736
Cu 9.030085754542355 14.378474788314096 10.559715802047446
Cu 9.447210184916784 12.13541950367675 11.852243759718688
Cu 8.784157915046894 8.619482537684783 14.839698788556385
Cu 7.077943356862554 9.239172626995027 13.195325583432416
Cu 7.640785966518544 12.256219992640577 10.204455330169123
Cu 13.367271786776733 14.735831039135526 10.23391738214745
Cu 12.134144271147623 11.685791891475585 12.00292410593557
Cu 14.29604862548 12.808482504992952 11.504756277127482
Cu 11.129692753740507 13.107534329248534 10.228153861844849
Cu 12.48596589417105 10.186438950819229 14.044163999674906
Cu 9.02696911358783 7.842381769382662 12.577928695176828
Cu 10.367101304348266 9.99273647368635 12.714129721065099
Cu 12.389283398892601 16.55889594315964 9.017333302626064
Cu 8.210299293792657 9.99951804076492 11.188920971008862
Cu 11.073362742319645 8.131985128184116 14.127334175103822
Cu 10.601684513326422 14.933584853315194 8.63496334461366
Cu 12.8318751839629 14.47411382304573 7.81362308997251
Cu 7.08486665850248 7.7861015429370735 11.176745306300056
Cu 8.160492421210392 8.689557369344422 9.126998349413581
Cu 13.447626092063683 7.895236436834987 13.354870831690167
Cu 14.429303939191419 10.548567328193727 12.678419626843638
Cu 10.333712418000689 8.821338490279846 10.46644138804057
Cu 7.567049041603202 10.96245865619767 8.09635616423766
Cu 11.232327580431452 6.960330386352164 11.993635971942044
Cu 12.536113964420297 9.165382300551764 11.633215506641214
Cu 9.598257501810949 10.932448139139742 9.287175320316951
Cu 8.985516022421567 13.190003344124605 8.421045354069697
Cu 11.913254374679866 10.715981729239655 9.783573680723379
Cu 14.330969861781055 10.602195973866063 10.226702721789465
Cu 11.408039441706649 12.410095987649942 7.793943059605152
Cu 9.170374538811314 6.6624195881272055 10.396745245580712
Cu 13.528184973944843 12.59310582530559 9.1372823331226
Cu 9.653516810788094 7.142679161871771 8.016302070443489
Cu 9.163971051473377 9.36042185474116 7.017017009204362
Cu 14.953381620214579 8.54145936097952 11.4224268708959
Cu 13.414302716449763 6.714464936217809 11.081107749665192
Cu 9.34191562978596 11.744504587993578 6.592985557815567
Cu 11.511685566946255 6.8008496483107015 9.557164775770886
Cu 11.291190317555474 8.93274741663383 8.145744004245875
Cu 11.294009248679533 10.446340117197693 6.270150066010283
Cu 13.352596894288823 8.517280695657634 9.377085225694008
Cu 13.237414519700335 10.529938169243326 7.817620361320706
