50
Energy = -152.36841391 eV
Cu 8.443237384490434 8.96274606241939 4.652361507674047
Cu 10.921870050752243 8.295061397645856 4.45755099469498
Cu 12.534633873450526 9.31281338458447 6.1952253934419215
Cu 9.287620840332325 6.830225995908632 5.609365277275122
Cu 11.615364162335238 7.04134377309472 6.501395757266714
Cu 6.0591023799842745 9.919241039625383 5.063119930067955
Cu 6.735814282804729 7.680533508676166 5.922178753316158
Cu 7.64935145625221 9.920604686463408 6.7927735505173885
Cu 9.933286799684142 5.6204934638187725 7.746316532592232
Cu 5.800110260776793 11.580036674448868 7.019139259514406
Cu 10.08309579366327 9.102115187745786 6.492882365766152
Cu 13.830383864866342 10.602529647043504 8.030174185127574
Cu 9.591202457559644 11.481426499428176 7.165225457354932
Cu 13.110612858132205 8.246992117629192 8.346296814410884
Cu 7.575810631220591 5.506390715489684 6.8680440584445
Cu 8.363311273429789 7.570509959914688 7.764375895528472
Cu 5.202447462100816 10.871926394143847 9.309021404650869
Cu 5.960447494733757 13.217579174162505 8.995529845232237
Cu 5.252384525241745 9.181656317533132 7.295022346328035
Cu 10.733122160924863 7.767460338107559 8.69650276012629
Cu 7.6155550176801015 11.567997746224904 8.72992285697914
Cu 5.987415321216053 6.907053742171642 8.225448325215615
Cu 6.860743823371861 9.051898273234276 9.15877984909753
Cu 9.181066459434378 9.666926370361274 8.702491789644133
Cu 11.521169718177362 10.254438170519062 8.256066124393316
Cu 12.260436352351688 5.907412674716453 8.659921969281756
Cu 4.603014717249359 8.44769078876567 9.611276696055645
Cu 7.97545368932464 5.64317293263883 9.341345712098908
Cu 8.318672292808861 13.523996285839203 10.084463760123626
Cu 10.00693935014583 11.772452844914211 9.65423085835836
Cu 12.453453881003977 12.127433477214009 9.583243350686377
Cu 8.772400283597467 7.767337092276782 10.277001923650756
Cu 6.393828773105877 7.120848545207154 10.743562956551711
Cu 10.38596750834728 5.796315871725275 10.311404332774792
Cu 13.065753087249051 9.835609487791437 10.27014858594687
Cu 6.620101773076147 12.000288288652389 11.059290481075076
Cu 10.685148427082943 9.384712562906598 10.61286026006973
Cu 8.288235238102443 10.204017666991476 10.897545487599837
Cu 12.363500799590499 7.431308642375394 10.632517331999345
Cu 5.906340651624628 9.577149024362742 11.401169583938977
Cu 10.780198446025775 13.628069079605313 10.865419308173
Cu 8.36358206467284 5.921910615184494 11.809764376101903
Cu 11.488867312654891 11.400955563483171 11.749017583078942
Cu 9.125763217747355 12.21976313132525 12.036405228453283
Cu 7.852688175726672 8.297622094561897 12.501846041923597
Cu 10.262688071954473 7.477774602619185 12.281429148919813
Cu 11.892921235634628 5.722883363883167 12.248594069028547
Cu 12.148043771789347 9.063413452545852 12.497416243010232
Cu 9.78574408619852 9.920223022014762 12.871941658461367
Cu 7.407726392382425 10.704268200069016 13.059601970040077
