50
Energy = -150.70005135 eV
Cu 9.336343150509823 9.579109032775305 4.479986927922588
Cu 11.981797892187826 6.806267015814473 6.133450772191073
Cu 7.4010546721875965 8.350038802502715 5.523861852322064
Cu 7.726186215853621 10.877109928053125 5.829958899000972
Cu 9.679745077110509 7.278238902487624 5.340613750719059
Cu 10.381253679101716 11.376591328918302 5.887212125709718
Cu 11.501886104060848 9.143640408896461 5.604254384790545
Cu 5.7716502871178585 9.769615276597577 6.912114913668545
Cu 5.575250331200662 7.160658035400348 6.803577897289958
Cu 10.22954328646891 5.108171849998399 6.569997065555574
Cu 7.949343738955701 6.122602727693009 6.987151944865642
Cu 9.334799862987365 9.345188301855854 6.852327919704038
Cu 6.287318721840689 12.2328464171913 7.396228226961891
Cu 8.785542159240778 12.637498429733736 7.1747944787160405
Cu 12.633496092071871 6.759141362256506 8.528934761649857
Cu 11.316995298461682 12.928665397409773 7.929434984353685
Cu 13.486693390453702 8.586395182766877 6.916885706132795
Cu 12.504138032147997 10.928039790664435 6.9967750714822685
Cu 7.313448178225777 8.201522348150153 7.9936006286087125
Cu 7.665765424132786 10.727476132728421 8.508670127952792
Cu 10.107735915997118 7.135652386640234 7.7305618244169665
Cu 10.157103596294665 11.065159825882152 8.59085051479128
Cu 11.619027684044552 9.045611725613934 8.329571178854327
Cu 5.25592173618173 10.773295907775214 9.136420984765783
Cu 6.11511402988806 6.370775575305631 9.240562532612005
Cu 12.473246801727862 11.093375286101457 9.437100700514183
Cu 9.204858537626466 8.970509396761074 9.218826176662468
Cu 4.883331761688571 8.401504524372358 8.861102260374766
Cu 10.833891970467414 7.439349546274429 10.071919258586107
Cu 8.5267019907923 6.473795491990722 9.479592814801178
Cu 12.31865543229533 5.967488024825866 11.021529816212693
Cu 10.708690915566493 5.18547821768227 9.166295733094705
Cu 6.619643739274201 11.982873077047092 10.680144147921547
Cu 6.87290780142811 9.061955639085125 10.278868225418748
Cu 10.71082646017807 12.330042940046896 10.648416363102315
Cu 10.984110171943898 9.80724926291284 10.93051850966477
Cu 8.609282036393248 12.871171202993391 9.553601305494546
Cu 12.970273287628205 8.445668374870811 10.43114889317501
Cu 5.105724320642085 7.639457155384511 11.184005195869766
Cu 8.743760684844503 10.72431279316566 10.957237012450655
Cu 8.908681375169962 8.200325900267913 11.435839070974879
Cu 5.175122351655819 10.101722131296013 11.592251502396564
Cu 9.773464100920052 5.821834383580622 11.576180244422476
Cu 7.22173428057574 6.4686764894470885 11.581783097146339
Cu 7.14243530272664 11.02833537267991 12.83382735552407
Cu 8.60827026491258 12.862518199622427 11.99582681553407
Cu 11.092268901208726 7.800010870182582 12.490531732745794
Cu 6.81947970433506 8.611911932026866 12.80888976394771
Cu 9.207486656199778 9.646115705444947 13.260148589008905
Cu 8.780738504325248 7.167747900075158 13.519357851168095
