55
Energy = -165.65251893 eV
Cu 12.287207037164375 11.520977331480024 8.506363011258669
Cu 10.144773205637708 10.210683112661378 8.901604692295447
Cu 13.628960777844668 11.298962187387863 10.56016392582659
Cu 9.933673031845604 12.589141348765938 8.706819440784285
Cu 13.516831301832616 15.731486600733653 10.201271386858698
Cu 14.656152641854652 9.397383696809559 9.535560252556166
Cu 12.236737548982422 9.368773493684516 9.943290186850337
Cu 14.371672668037686 13.467334098251357 9.772386120963958
Cu 15.832207411474302 11.537784088510513 9.44902748837735
Cu 11.936908726358284 13.92054038152924 9.22029260722981
Cu 11.21534766304441 11.677975202951963 10.663249776240523
Cu 8.734644202828562 11.627206445188676 10.764098039943416
Cu 14.904857143688913 17.064112275751615 11.718228492778184
Cu 8.04493361581286 9.506550651869096 9.91957412619986
Cu 12.092116834233337 10.089619135790779 12.406905213472186
Cu 10.072159412713079 9.341383937419586 11.143973515007009
Cu 15.632617132169065 10.40488197673316 11.679399603440721
Cu 16.247932317547562 12.817474804767588 11.478964227677318
Cu 12.542254986097849 17.851293843773405 11.107617112822581
Cu 11.15224623224912 15.85996305840517 10.795996720669926
Cu 14.091148137926329 12.208565348457375 12.78935612810811
Cu 16.019940365494538 15.215916438154446 10.268503747587717
Cu 12.556694757450941 13.717244941498285 11.51978361137837
Cu 14.800868817002543 14.596220858346467 12.210394094688723
Cu 9.916208110501666 13.788995066810259 10.825861830548966
Cu 8.80228661939379 15.537647350645333 12.206745968382148
Cu 13.88897093830902 8.641283403141845 11.746200699392562
Cu 10.652033563541806 17.167105788768705 12.80093662650075
Cu 12.90522728345981 16.23863705461403 12.79840504509225
Cu 10.839513835880862 14.708038597506349 13.01316927239265
Cu 10.300721704940633 8.355775454486658 13.32664466204204
Cu 16.874405524487962 15.912135543007246 12.458860652056511
Cu 11.297086883017823 12.292538349641152 13.11829077007709
Cu 12.672443182794773 8.215256082551166 13.901495280827367
Cu 16.78673079458296 13.909368968577297 13.721943094649248
Cu 8.794351981345596 13.114232302657623 12.878814812735625
Cu 16.246830839823826 11.557598868061154 13.777190295614298
Cu 9.310668692696508 10.705046318027492 13.002462747237958
Cu 11.079462608833989 8.040891860418723 15.722263850010409
Cu 13.034679450832192 14.136471880790612 13.978220335912527
Cu 11.528289293206141 16.028481025417836 14.930725176751038
Cu 15.00368115218642 15.80059897057875 14.25781078730885
Cu 11.401022697601611 13.737006479050041 15.833242187974326
Cu 14.36814480916783 9.930973607689696 13.811879177375161
Cu 12.913553656376235 11.77290878936414 14.892289847159919
Cu 17.112376407373038 12.528292690800557 15.81110351379665
Cu 9.304090248703037 14.731031732107365 14.801760051369394
Cu 13.024410914910856 9.597091415395589 15.974600925394576
Cu 10.975914217809086 10.177281561898019 14.702598829906497
Cu 15.001851570815804 13.432317898494146 15.242829491031886
Cu 13.481363850507124 15.107060262561712 16.168704289739804
Cu 13.437229589148854 12.769638324588616 17.02342405953407
Cu 9.67361773287678 12.236222368867937 14.995005742561844
Cu 15.05360037008068 11.094901146335111 15.962052546771462
Cu 11.360065510758217 11.407415583479777 16.74536391209387
