5
Energy = -9.81821908 eV
Cu 8.278762039108303 8.08511307546078 10.509973245611706
Cu 7.493180942288292 8.678226625763058 6.5630730054625115
Cu 8.458161039384986 7.3653570981536856 8.304090844870437
Cu 8.653093063598002 6.694657003687512 6.070611683380091
Cu 7.423874861107272 9.467637250441685 8.81119081220538
