54
Energy = -162.00355362 eV
Cu 8.333782042134027 9.977840229300037 13.403172234386533
Cu 8.991041492536082 7.405068823704496 9.20295739983996
Cu 8.493901081719386 11.444043205063148 15.362423162415284
Cu 8.631216164547906 8.626207944731245 11.399893391822468
Cu 9.987706450197 7.904881686972564 13.334317839336826
Cu 10.41410837803451 6.791077231578185 11.11976928855795
Cu 8.622229520298708 11.258734488613847 11.129152719308411
Cu 10.32013308324322 9.838204718476664 14.897120172947856
Cu 8.286721821542061 9.704345605901786 9.216454225928343
Cu 10.805344912865074 11.791331274682202 16.272119087846423
Cu 7.671875395286901 12.329113228298617 13.144293735286176
Cu 9.736873286421913 6.772771959233912 6.968508920863742
Cu 12.12223728192394 6.555774104181398 12.792374175367078
Cu 12.252185558364664 8.706752608118743 13.8066789676164
Cu 10.5192113156166 10.142116017275516 12.440139806302087
Cu 7.702144556890091 11.983292721571248 8.730055473508623
Cu 8.056137876015459 8.48534591248033 7.150952421138315
Cu 12.678679076777996 10.491656831522212 15.39583892633992
Cu 10.437793948788084 9.038974795594138 7.669555815995129
Cu 7.695724459971274 14.38134882274903 8.383064211023264
Cu 10.138814829860426 12.328685493027063 13.863192835088672
Cu 13.222092593384565 12.206040327683901 16.937740798923087
Cu 8.921116626069308 10.77400087847696 6.970456844891479
Cu 10.737723722565157 9.089271050610177 10.21588219128444
Cu 7.225273602474528 13.354327580339142 10.869092635702742
Cu 11.358977669703869 7.030338076568991 8.76002855621312
Cu 10.273241425025105 11.196668472133538 9.051464569845717
Cu 12.746171645655144 7.575378458833919 10.628390114915915
Cu 9.395629669160328 13.368820885424439 9.783790220890399
Cu 12.755879485457898 9.862253433030993 11.583065470963199
Cu 9.649251372113625 13.040963336565483 7.352963511158022
Cu 9.257423655103205 13.892525508208854 12.174887356761046
Cu 12.449386234542267 11.695517938645802 13.195681116880206
Cu 12.680412710247504 9.166424839422046 8.723255523847268
Cu 8.582370548211518 15.515756979951796 10.402179471449449
Cu 14.201555394308446 7.922265100371772 12.440350445033364
Cu 12.301489694202386 13.297703986816918 15.01909198217258
Cu 11.96117723491301 11.214367584379952 7.336107371809185
Cu 14.340225876517367 9.987743443044968 13.593598452137845
Cu 11.090380617788696 12.217534705702926 11.196989895492163
Cu 12.937944552804433 11.447270903571066 9.699987115648112
Cu 14.44455005080841 12.125777248481327 14.72846011368648
Cu 10.031046784012604 15.26686101253929 8.370876153514365
Cu 11.615834077644724 14.094768548658294 12.815099178502324
Cu 11.625101747649179 13.378825978523901 8.794958787641077
Cu 14.684737922095515 9.639557951514574 10.259542069921705
Cu 11.081992030024042 14.98494025144091 10.638417816553773
Cu 14.517662219679615 11.752714124390824 11.92323661614481
Cu 13.983133495389813 13.869363988365695 13.116086153046943
Cu 14.408905388002138 10.643172819511971 7.907854861003527
Cu 13.811065939859121 13.002586107319225 7.984955994185412
Cu 13.338108426979211 13.668029093709885 10.664886740835135
Cu 13.081906106673497 15.776757612145135 11.874386109992168
Cu 15.27347961082053 12.124478535674472 9.695419951647578
