54
Energy = -161.30127708 eV
Cu 13.574007105736541 10.792343545284792 12.536723030949327
Cu 13.65154371532351 12.113938314190445 9.989560896452511
Cu 12.14081121339966 14.80661394471268 10.780732468989559
Cu 15.752287937482109 11.029498677665709 9.190077908622703
Cu 10.105162119713869 16.276872380190554 11.221167358602878
Cu 8.393921874844352 11.968525846274531 15.227164680615713
Cu 15.842440816992612 16.66096969476166 15.388884778854381
Cu 12.401903378271475 11.3557070931701 16.770653241043252
Cu 16.481043416179688 12.669934803457567 17.209410676457175
Cu 9.946504575115158 9.065790666562032 11.489932959310993
Cu 11.976471930805449 16.600948120398808 13.091468815018839
Cu 14.670175109390383 11.724113034345425 15.960796039517696
Cu 11.17412275675076 15.206868166457497 15.16750722521003
Cu 12.867977057635049 14.3327457055418 13.544348679805431
Cu 16.91412958385931 12.449796135028437 14.852647480345409
Cu 11.86571127831458 10.502203733050743 10.590038409132022
Cu 15.277539645111613 15.259752623286575 13.519603121760523
Cu 10.52510770672162 14.535829969247152 12.777055539863444
Cu 14.74628322829108 12.727013066180707 13.746865030646358
Cu 11.311804666942518 10.116845472870029 13.137609484697926
Cu 8.117555510668298 15.22398927837289 12.421504645930133
Cu 17.692380400828196 11.25100211366327 12.862565080015964
Cu 13.536008304639791 15.943524182227028 15.284059491610986
Cu 14.482659903910005 8.55375413800841 12.937735225981305
Cu 16.774971787664484 13.512611542375753 12.53123649232923
Cu 10.692545771747461 6.851914322305292 11.73208229153746
Cu 15.364655996425325 14.235421366233984 15.748500580615513
Cu 10.54381912026007 10.55992420405803 15.397230947630417
Cu 12.555893757925748 14.003184815516734 8.297814516435245
Cu 8.893138915538895 14.326802809732044 14.679512121529534
Cu 13.92308455004805 16.192379302771876 11.662947509448685
Cu 8.068306721755595 12.79953335736338 12.788652828895847
Cu 12.487576419048752 11.98064992816579 14.465139361256979
Cu 14.33224525933874 9.605120617002358 10.579537419820863
Cu 10.225156885079084 12.35290114832629 13.724493273421562
Cu 14.808799842237386 13.015739515667933 8.03707863802035
Cu 14.347940274522356 14.91050178585115 9.54451339691764
Cu 13.313956532772906 9.785782149436384 14.871211220400252
Cu 11.113461502464533 12.674204934512254 9.653447880939051
Cu 14.394900153883308 13.794653846921557 11.65622280153128
Cu 12.020962515782019 12.593510798353922 11.979521843387266
Cu 9.229232010146271 13.859936100056705 10.77861283896746
Cu 10.558920021928524 12.978690091314341 16.0915800714548
Cu 14.26160580772738 17.536720809735048 13.652554794799167
Cu 9.748755776648796 11.510095233174503 11.373532203978144
Cu 16.209211725848593 13.334691887887196 10.017310823919297
Cu 9.634523710536993 16.57364626934097 13.755509540554462
Cu 15.683529321311344 10.381228612671524 14.005971664306182
Cu 15.69120738978888 11.553181336185244 11.54906612021793
Cu 16.510552751191774 9.32968443773192 11.834117104168492
Cu 10.472129974719751 15.015337465935245 9.057463362400362
Cu 8.836441382436027 10.375922114215781 13.351907682083274
Cu 12.969662857243485 13.70677865545335 16.111572475105472
Cu 12.42247159593697 8.430747529132374 11.72303463799641
