51
Energy = -153.2339493 eV
Cu 8.491412347638136 9.342394288757804 8.357620160668894
Cu 6.863309453415427 9.838063531400094 10.275972488780527
Cu 7.234894742405919 7.600039184778695 9.57194923694977
Cu 9.080648988806955 10.791062571084296 6.448419962799761
Cu 8.853961982382847 8.201173757404657 6.295846844701041
Cu 6.74041447966758 12.26229973972405 10.607951065706812
Cu 8.49065958737444 6.1620222109925225 10.982126452865154
Cu 7.691982337416325 11.729251543898025 8.280875470389997
Cu 9.354107335125754 6.854742122654367 8.550083046481166
Cu 7.610059179133006 8.224309515062082 12.155498989351765
Cu 7.774342610675078 10.659032656220987 12.421499544502742
Cu 9.364693226780858 8.580021641989834 10.505151026277026
Cu 11.453878253389608 11.719027138942085 6.329012061636275
Cu 8.465575919290877 13.753165501443076 9.51858436855049
Cu 11.03745422742119 9.282086627227075 6.483630773462482
Cu 9.201012596725402 9.314873120588993 13.89529097256905
Cu 11.74569787363779 5.768145711646531 8.457415483356685
Cu 6.721007204142342 12.725943964548483 13.087177627399125
Cu 10.818340026358708 6.345632405129045 10.55172440160438
Cu 10.887541581783852 6.945132424907116 6.620525672447327
Cu 7.030373747178887 14.579898172730497 11.327627810914286
Cu 9.901469753497627 7.325280567800509 12.642467374342669
Cu 12.275040494831178 10.62841298952084 10.207454151335511
Cu 10.750515673622582 14.705121510003394 9.177598920810292
Cu 8.837796635689513 12.947290086767815 11.891764820823187
Cu 14.79908106222902 10.58060728204861 11.308478435055747
Cu 13.308624472392136 12.62786977730744 11.138338062478926
Cu 12.834223931526767 10.477119342418527 12.677740006970188
Cu 14.36692991000992 11.529048508630247 9.154613003673637
Cu 14.080264939803552 9.01076739097385 9.53451791506483
Cu 11.828242301734745 14.595263578052396 11.458550701089553
Cu 11.700891981604705 8.571717940334075 13.746932256994103
Cu 10.78899375875422 12.63723126109445 10.433994531461476
Cu 14.015618391052309 8.33956507142377 11.960306748664825
Cu 11.131292556587656 10.789334676981449 14.513343417320463
Cu 11.557680038231286 12.564669370330295 12.881466567038737
Cu 10.368391135746378 10.545842908106803 12.111560867611256
Cu 12.241354079129584 12.64290315664997 8.50037429134564
Cu 9.468484633836857 15.237475839143613 11.266725411627464
Cu 12.870162068160985 10.208996832434195 7.759875041396803
Cu 9.150413746215502 12.119733130875117 14.064971380126718
Cu 13.205576644861948 6.846056107788474 10.082788438146828
Cu 10.436209512422035 14.51523222059832 13.46950682843109
Cu 12.363582367030753 6.516514598916256 12.441757479068405
Cu 13.149870384910253 7.691507786592721 7.568672858532157
Cu 8.106981740462349 14.630370488939684 13.498709175155685
Cu 11.705445575412137 8.55495639666704 11.332550186598569
Cu 11.33246382766606 8.426422411800145 8.895619457566692
Cu 9.828287328759787 12.981081719217256 7.662575470109806
Cu 8.926311514111752 11.083555183606437 10.227128339455769
Cu 10.543517820007771 10.77682001489957 8.450720381340519
