54
Energy = -160.9552848 eV
Cu 13.994101544942716 14.853892872723256 9.017661265078619
Cu 15.163717041085562 11.95474920026115 11.77721587905869
Cu 10.012326100311784 13.656193849529997 7.2725330509488115
Cu 14.202822697084777 14.235414807381792 11.505543486859482
Cu 10.04023489045951 8.76543898792176 11.476689889512382
Cu 15.58944553375921 13.839448456068398 13.555023680186128
Cu 10.78795655200625 9.19838395377071 9.218859960521053
Cu 8.043940326910626 12.200836992812977 11.475876364632143
Cu 12.443022036772135 15.970319815403426 12.658749438483293
Cu 8.49126828467905 10.225140372730504 10.001719773442707
Cu 8.123587495019114 9.929626428501667 12.400948121448206
Cu 9.875456098711071 13.331553410043552 15.349961739206766
Cu 16.273410515410397 10.905027212876249 16.31997562992536
Cu 13.184819089446341 12.963316141969603 7.48707731974188
Cu 14.802088109435116 16.059578541857412 13.089487767034983
Cu 9.839198186203623 15.033224200274862 9.312199946300373
Cu 15.962392114104377 11.448021184793706 14.022435450833116
Cu 9.432706297715004 11.71291199629081 13.423787997810038
Cu 12.478788835535987 9.66215195344811 11.02808783137515
Cu 13.617959228445233 12.366623701244375 13.60149139111304
Cu 12.298138556673154 12.623126138011528 15.69414989513374
Cu 10.562456487552213 12.336272046451905 17.46179772426697
Cu 14.777111464352766 10.143622923288206 10.219450991051392
Cu 11.964359960477843 8.171520058265939 12.885434184598028
Cu 11.39187520632456 13.091227106448464 9.148284360152122
Cu 11.496692310423812 11.259150576697314 19.323975800892267
Cu 13.995165310538823 16.540473679723917 10.808700296821158
Cu 11.400886787706234 13.316953564538377 13.370136557290886
Cu 11.908803175533928 7.391146901677266 10.53296048906529
Cu 9.903471029737275 9.203652673259239 13.900075316961637
Cu 8.88260549932022 12.65350783081477 9.249488513449084
Cu 12.44988633326457 11.00300725632467 8.951143264418258
Cu 15.741385347484853 9.138870204321327 14.611878775554116
Cu 12.040138623266612 15.1326981892564 10.430049762284346
Cu 13.245822950632581 8.740683494026747 8.847232801753297
Cu 8.040026198481273 14.589113701321157 10.895956504591524
Cu 14.822588760604539 12.923446884048932 15.714140263569757
Cu 12.2811978343408 10.601096854973735 17.178867844033267
Cu 14.353550058615475 12.518176368402893 9.556577937182166
Cu 10.098783098801984 15.814503459938674 11.83939183956923
Cu 13.971752716251453 9.813262634178056 13.024218817453109
Cu 11.904439442287195 15.08807045532288 7.860220844879521
Cu 12.179819449203986 9.259558953340264 15.032451598313171
Cu 13.317397499440075 14.623366070433335 14.512377229907035
Cu 11.692695368394396 10.770983907633672 13.133285104605363
Cu 10.20767951092322 13.497586667566953 11.269607021257512
Cu 10.511526592528647 11.190504837733249 10.690210843793006
Cu 12.585989626740245 12.314120089631976 11.318619139520395
Cu 16.228722038767504 9.776764214145292 12.207134712406889
Cu 10.456698917181658 10.92771503632818 15.514925334788673
Cu 14.489804563230766 10.76241248486811 7.815229730474663
Cu 14.027667616748102 10.659300364713687 15.505398130834257
Cu 10.756280756225772 15.398448556813916 14.276335044112441
Cu 8.850539951229392 14.106006292499535 13.221301514096467
