51
Energy = -152.94964454 eV
Cu 7.92062965733672 10.17058452268507 14.173401829662875
Cu 7.61366662535554 12.369575820231866 13.062966591695803
Cu 10.429537700822072 9.506982789471062 14.144848980551476
Cu 7.3916005432960405 14.337095187401248 11.571221972077582
Cu 7.533605142228314 8.831903166187578 12.158200574663432
Cu 9.60714156741422 11.927738203680693 14.46881195712299
Cu 6.794307077355733 12.882015658275837 9.645304217942778
Cu 13.066681752327712 9.180636457585633 13.868936894646552
Cu 7.1363124120978 11.00435590040407 11.105551134926577
Cu 11.23523488553552 13.74586357846998 14.584430070918547
Cu 9.310330762984698 14.092387605292469 13.168832587329112
Cu 9.817608226737397 7.909782356301639 12.094472876666723
Cu 11.532801651922922 7.354832311858367 13.685871311165583
Cu 9.329790236519406 10.656848625832724 12.306593925090793
Cu 12.070400842660591 11.365635432379925 14.44684886337637
Cu 9.509692503432245 15.515791481492581 11.253434150806424
Cu 8.990340976727392 12.661390074905034 10.86159782069529
Cu 13.866924719661515 6.949511935232735 13.027159464283635
Cu 6.842005972653596 9.06851493637071 9.758928288409694
Cu 11.594668492906186 9.699875322880478 11.953446258284794
Cu 8.590907492564451 14.494253638042077 9.251796179585195
Cu 11.599219969690575 14.793880561363615 12.317474650717752
Cu 11.132686834149712 12.381179862857872 12.418036067663431
Cu 7.6855538632395985 13.078317068687316 7.389177536111284
Cu 8.02895121926014 7.096853279576287 10.536424503468975
Cu 13.29981741498994 13.341866758125859 13.386628916721605
Cu 9.2976599220194 9.423796937613307 10.202621583221577
Cu 10.958191962772442 11.319802141666512 10.155222284358905
Cu 10.95930860253037 13.966811005647644 10.068444070526056
Cu 13.979453754115307 8.879340855141697 11.52761181933661
Cu 13.630244382609256 11.14324464745797 12.46706436970909
Cu 8.037325157589677 10.955253585966192 8.663042013966006
Cu 11.822940021996576 8.921200754703065 9.585574685916486
Cu 9.929780690310453 12.6765031852621 8.254459231816353
Cu 12.089983948419881 7.079523357103791 11.349131706308151
Cu 8.585049786862315 8.113333434179989 8.306698502700403
Cu 10.277686429036274 6.936237288470395 9.728915009676083
Cu 13.028534953368402 13.036430797256864 10.985985395865695
Cu 10.310962366645139 10.093510348816663 7.985386472881835
Cu 9.063715224736367 11.345373006088646 6.334639053627677
Cu 14.221427228802177 8.610560978544237 9.080861926375388
Cu 13.447301627867365 10.785354819624466 10.069217414893645
Cu 10.809298731603123 7.613322149793337 7.407463177776812
Cu 12.404645479427536 12.577452977938034 8.606208220364987
Cu 14.395617106347078 6.672934734061817 10.63052016560058
Cu 9.168925717056526 8.904296421713276 6.0937223526358215
Cu 11.48940929047454 11.905312162734475 6.478263829240364
Cu 11.490355575445767 9.52861558399428 5.873935523284896
Cu 12.619095130522298 6.674370764592434 8.908447978515818
Cu 12.906847492208295 10.323377845708746 7.7303556011544226
Cu 13.139388223311915 8.047591484566041 6.95205173630213
