53
Energy = -159.64242081 eV
Cu 15.665482903835905 10.461183404886917 8.735544937917194
Cu 16.04258872290878 12.646737611547936 9.569858470674102
Cu 15.718696195008267 10.73520146029951 11.156802222337667
Cu 14.905205056299252 8.334777190648568 9.548703783425445
Cu 14.183906043795456 11.066868555345078 13.101548124874073
Cu 14.857722984007747 13.042472903088951 11.744213427250665
Cu 14.15594872868979 12.236042310470697 7.734420256740591
Cu 13.596886881474775 9.4804817329972 11.148023598674149
Cu 13.732150732691332 11.739524264251331 10.026235708705721
Cu 13.397341395512527 9.859890274300374 8.254978530595832
Cu 14.254032689711646 14.193234190392975 9.457533233160627
Cu 12.605053054468806 7.286382651831237 11.843382765610782
Cu 10.767711290324057 6.599368162043682 8.147344948755274
Cu 12.324180219547387 9.340898534011465 13.36527806013074
Cu 12.482189619345911 7.87079207918761 9.367871952733237
Cu 12.11857726184445 11.366280981322015 11.889331339424116
Cu 13.026010229475549 13.258237417485795 13.421240657642603
Cu 12.242689193682928 11.34437285365966 14.764470266442142
Cu 11.469189636401175 8.850517660689324 7.139115550930307
Cu 10.52631108457236 6.772186290372053 10.635940145073075
Cu 12.556137717625113 13.925272848372064 11.117852904855027
Cu 12.11938442825422 13.231897387443295 8.80657425238535
Cu 10.383474981491677 7.817656752748247 13.04287592426075
Cu 11.797990822054823 11.374287422218396 7.148275637776647
Cu 11.193511474948037 9.099681126891705 11.14442646787702
Cu 11.382693592743056 10.865483323746489 9.475030093483339
Cu 11.363822573257359 13.902796371644861 15.115858399809868
Cu 10.248947529882907 9.792280113719965 14.655895047603078
Cu 8.437527210104898 6.902494834766619 9.21089253099567
Cu 9.131361978496448 7.972346948651885 6.942439571408394
Cu 10.514576514557195 12.393035429228114 13.394653320993795
Cu 10.024510935098196 8.72766332402733 9.083332979843284
Cu 11.078288665099878 14.761511905996404 12.836332564479521
Cu 9.980862632323268 12.026475624819133 15.727611306767765
Cu 9.593604405363783 10.453716712329422 12.308132809761586
Cu 8.719928622821254 8.375737187158546 11.222732902598928
Cu 9.839041426815843 12.610696722950362 8.359032709632944
Cu 10.31413936026358 12.712429092103617 10.926180850558126
Cu 10.530209766409328 14.82842370007094 9.902936537592144
Cu 8.18988658207653 8.861922539483675 13.590304115746056
Cu 9.485908961482853 10.434263058477734 7.39668435766575
Cu 6.527411220846768 8.024762047186725 10.43239363984804
Cu 7.620088586676197 9.144442946129198 8.477110716422034
Cu 8.23023883327205 11.240919474832635 14.216903018041387
Cu 8.839151582744568 10.836295575138449 9.997413479685493
Cu 8.978684108270478 13.93943242431427 14.205351169912964
Cu 8.142237349661197 12.52786504569382 12.172946800068926
Cu 8.927585802353097 14.775164849237889 11.834411963112194
Cu 7.076102981275869 10.243804911160181 11.858444628442404
Cu 8.252647187172677 13.63954445994459 9.799596813681504
Cu 7.423672915952576 11.723656475289628 8.291508670861495
Cu 5.903161386765438 10.22851696812705 9.676676771749142
Cu 6.406968771141697 12.335499435892322 10.554731599875916
