54
Energy = -146.05553113 eV
Cu 12.408363075029031 11.72314785893576 14.931615668399154
Cu 19.39513928532897 15.7492095053199 10.012304645653556
Cu 17.99461802338321 14.585875016302715 14.618517746286463
Cu 17.18100978505727 15.9438576415795 10.913099494994833
Cu 16.42004188645068 14.01340665664692 12.274617759343453
Cu 17.854692832696344 17.58732013226679 9.4102674780283
Cu 9.764134385743407 8.06982211506562 11.740341794243264
Cu 12.84817020093089 18.38371145221512 14.58753546461308
Cu 16.961733749874668 18.525159454221203 14.79812118159069
Cu 14.606005560245704 10.680035241008055 14.362847541425456
Cu 10.162972186783646 12.436878091385953 15.258758105142721
Cu 18.878054442658833 15.114760804168974 12.429632632896041
Cu 18.58875624697807 14.464299750273 17.006009473790602
Cu 13.2151377254389 17.270440284097216 11.130314930874516
Cu 15.614367101607332 17.716795234243257 10.484502922912831
Cu 12.66877548262579 9.280159046640009 14.666164576568423
Cu 15.13139366391458 14.879385882345796 14.413784199534545
Cu 11.38925892857328 16.475137926674158 14.868737777458687
Cu 11.12993275841008 12.771610290984325 12.995790425473531
Cu 18.18195243801182 13.689638881032858 10.607330446305784
Cu 13.231955945816452 16.321613936414543 13.414874714682995
Cu 13.814249598813742 13.278689212872864 12.909249908892875
Cu 16.082362451727082 11.434757868973328 16.215455192171795
Cu 16.38972147475125 13.887318156149329 16.391474277228184
Cu 10.845740265548324 14.516809530178795 16.3914296915782
Cu 10.918093826565952 10.237837719504613 16.08995480887196
Cu 11.097689154983184 22.880089119931387 21.953739623846378
Cu 14.839199487592651 19.66296409014969 14.962289531913088
Cu 18.269509324358523 16.622678024294117 17.92877484859994
Cu 15.0135650601569 11.371700678832067 12.063009418839652
Cu 18.434960402576998 12.733538852588005 13.087091040466229
Cu 10.585140542737719 10.38694412099269 13.662495338730082
Cu 14.977915936384973 17.21582178041208 15.013505847682417
Cu 12.750063133149512 10.884533103704618 12.629716987815668
Cu 21.962708479487265 8.089590576555413 22.878505904345065
Cu 14.95971356126632 15.815433708989573 11.864856091335755
Cu 9.940249591396261 14.640342168331989 14.14826435139885
Cu 14.18489817805974 13.046270738330174 15.786139326901187
Cu 8.956192009747106 18.473705157467904 17.329744184442085
Cu 17.21309458854589 11.643280138741678 11.403315744271953
Cu 17.039813604347888 16.343864212179383 15.963753168871534
Cu 11.532001028696737 15.098473439654882 12.300501514266914
Cu 17.1889563570641 10.650654757318513 13.874528381034473
Cu 14.794152252853866 18.251411544709782 12.833482494016234
Cu 23.337524220026722 7.400564676050555 21.277518640184926
Cu 9.414200588785876 16.486391512293874 16.161250898204166
Cu 18.222666142204062 12.352953471622987 15.526275903521217
Cu 10.161824526370562 24.048946817435848 23.588396995863707
Cu 12.410757699693047 14.284643454544145 14.57832529970705
Cu 16.85265020207559 16.447731539273132 13.420218906032359
Cu 16.021113800239025 12.650034226096897 14.155982980868218
Cu 10.997321972204121 18.48336352611312 16.17070557499421
Cu 11.812354727402743 8.609067522343423 12.541119925213192
Cu 12.80147392968115 20.128579410138975 16.20817344931473
