55
Energy = -162.62891201 eV
Cu 11.014743858651071 9.581031400896038 8.637807462874362
Cu 15.785773484192335 13.884319606459607 8.200850666928266
Cu 12.768742220041595 11.154572819020464 9.24179598172555
Cu 14.209664326029337 13.051500704096341 9.788437519441601
Cu 13.517983101210607 19.013689481551715 12.052298809890765
Cu 11.819539894803684 13.281918021563358 10.491803241487206
Cu 11.330012732161936 10.043874652964174 10.980184613335037
Cu 10.362526350203387 11.853621360890171 9.086167001789418
Cu 9.091067647125366 9.792292396002654 10.132260341787644
Cu 15.812094032309332 15.021305931181152 10.349341083728378
Cu 16.630556175199565 12.735364529550456 10.15673367936311
Cu 11.166105345360897 15.55005478098841 11.799523175276821
Cu 14.88806436837263 17.138290252207426 11.194380227290964
Cu 13.152963817792054 11.46198839323699 11.602405001682172
Cu 12.489600561394033 17.295312316932524 10.740633039686392
Cu 15.160142781202913 10.830195749208492 10.441750596494549
Cu 9.62104327084288 14.063503251943894 10.235308724535118
Cu 9.486712741780641 11.845813560053342 11.27337454103218
Cu 15.916393509993467 19.00267743802197 12.300401897980372
Cu 9.66504108057794 9.733175168627211 12.713899839991743
Cu 13.520013456331395 15.080438544649862 11.098210490139284
Cu 14.957747504634927 13.168330392639074 12.212125200456006
Cu 17.410128835881224 14.092018985380793 12.022184142490353
Cu 15.564923829626578 15.465306816387832 12.8683717727804
Cu 14.555942671153536 17.61008344248856 13.697066210462756
Cu 14.889165557639123 10.003932792991467 12.750401891682062
Cu 13.650859996346076 11.726946285030792 13.950866112216882
Cu 14.182661808180839 9.571706982173554 15.150082150496287
Cu 8.464019568831482 11.792138759682869 13.424051049580639
Cu 16.76172688704819 11.558348610964282 12.320358743184832
Cu 17.644543996568842 15.52217500396682 14.019355925890775
Cu 9.728931192402992 10.584047950365603 15.110982192265894
Cu 9.887027747739442 13.762508897219137 12.681828921597667
Cu 11.048919417209394 11.646565119772296 13.312019812696551
Cu 12.38079430716665 9.620143471035997 13.255861515060205
Cu 11.841573184897626 17.530905228933182 13.147939258990792
Cu 13.198268531823777 15.686989174520313 13.624001417009417
Cu 12.49304466212026 13.563823625749981 12.796411914045585
Cu 9.67978399273624 13.121846634934338 15.03330821606634
Cu 10.89452276620789 15.380291679210734 14.328145661678406
Cu 16.828835697335556 13.290602719144731 14.184074621665696
Cu 15.99997217125912 11.094986168688948 14.690850769929025
Cu 14.570889958163932 13.999205948237531 14.69795930332911
Cu 12.080577970843377 10.647968751251511 15.581934129775643
Cu 12.883018671028436 15.463575624479326 16.021670606393435
Cu 12.126181451753006 13.253698521794893 15.22592545827681
Cu 14.104338906328461 12.102518237309727 16.252536661036064
Cu 10.682050096549395 14.560465599972584 16.702437801935677
Cu 15.444323644134391 10.403244410411205 17.15443399937776
Cu 16.40862448665616 12.703113521915796 16.533876586653882
Cu 10.756993311998347 12.064708194112127 17.01554202867076
Cu 12.65366145426595 13.472085556734497 17.75621060870568
Cu 14.810236736603152 14.437678800068515 17.13346007621312
Cu 12.86044282556785 10.969857444000786 17.95278966101289
Cu 14.814416258880376 12.381175143542206 18.54130249706988
