55
Energy = -164.57306907 eV
Cu 11.997780199973247 12.839735763434714 9.819532875516007
Cu 14.534450390099604 12.273860678893149 9.711043089788541
Cu 13.635171367988542 14.64503589953289 9.683773985786901
Cu 15.448926379422492 16.247151993552265 10.151204526377658
Cu 15.68555658782452 14.011194526214837 11.053445793763935
Cu 12.831526155327714 10.803171870670456 10.748516200547657
Cu 11.07995749155831 12.556360804408987 12.114110509830981
Cu 13.516076840425425 13.001163444162248 11.805629578294127
Cu 15.060466574716795 10.936070574997494 11.78314131705674
Cu 12.911121510305488 19.134723385241898 11.747170445552808
Cu 16.960907096198717 12.03759896308135 10.613286189225526
Cu 11.658783625013747 14.924685692474917 11.168690223630724
Cu 17.98041870330762 14.140081562357919 11.665265440858093
Cu 10.602128172763702 10.269126499726925 11.46927079058175
Cu 12.924145289195105 17.04161029752801 10.388047127431383
Cu 12.242297059136337 14.332831879733316 13.470201804885882
Cu 10.953091686860153 15.79032685657695 14.887781310992484
Cu 16.46407511480694 16.012851157199414 12.54427551911668
Cu 13.908793013305178 15.598172697093748 11.96553266999402
Cu 14.928747958914794 17.862671119568244 11.813655242414107
Cu 15.125277697350182 20.062770188595742 12.676146409566364
Cu 14.626755115686423 9.408389425236662 13.683959660316264
Cu 16.629441224180688 12.57230320865677 12.958072573108577
Cu 16.83959192112327 10.267806854114943 13.432411297786507
Cu 17.711765571207145 14.416045646628422 14.117153890166303
Cu 14.96668110076978 14.259815878249404 13.575364826629377
Cu 9.911925692168849 11.06509882998089 13.67238794192119
Cu 9.948580091169656 13.58716067164968 14.1538836394855
Cu 14.308553679757702 11.952962212256269 14.001546107451649
Cu 13.722126675552895 18.648401876097978 13.960452882776949
Cu 12.024938818433112 17.038424779780705 12.813699603948235
Cu 12.417330131077788 10.443375670128733 13.106956893647283
Cu 12.471083875334278 8.368065937828595 14.303163516483716
Cu 17.961886486513148 11.975296711914549 14.93398537015828
Cu 11.849234046553764 12.18305455183981 14.724038100311061
Cu 13.620710038521443 16.14297690888651 14.464834134260954
Cu 12.029970353547403 17.844686094761034 15.369243989053821
Cu 16.113910873279785 15.942897551410475 15.097001111025099
Cu 17.52511714491037 14.723588164045953 16.600375847918205
Cu 16.032615353961944 18.0675766077263 13.974327013504853
Cu 15.835051973037297 10.72117507088869 15.645681931529484
Cu 11.057797851919904 13.890491699190282 16.38973812646589
Cu 16.019961243004673 13.234014664668072 15.545088185659717
Cu 9.739853116953375 11.898820525904329 16.02160484228626
Cu 13.504894847859303 13.827084043575551 15.567371021201167
Cu 13.382155780605881 10.26422452411196 15.579258723181114
Cu 11.025022397216215 9.911913755869085 15.537054496372443
Cu 12.02453176264849 11.635092784356138 17.17285749288843
Cu 12.696256338084128 15.954919427926407 16.78343958511111
Cu 15.008174788930992 14.975245988965 17.071061346796938
Cu 10.926038426593806 15.344659354667122 18.240962695673435
Cu 14.432991100583976 12.211306995801483 17.079171434444724
Cu 14.374768505704559 9.924683904139489 17.658313495735182
Cu 14.549281421871205 17.567653192984782 16.106145649361235
Cu 12.90567003371962 13.853957327689386 18.024038219103684
