54
Energy = -163.36087417 eV
Cu 8.426674404456106 10.558088433020162 4.389480641568148
Cu 9.473264149934781 8.287464622596682 4.727310537125242
Cu 10.848095850294694 10.483527039667507 5.181709387751339
Cu 9.16852635034191 12.214651159870481 6.143086341487325
Cu 7.050986967897357 8.680376139159396 5.409166386153421
Cu 8.674903919980409 7.275926657039471 6.978547875523683
Cu 6.880291447191716 11.147916456999099 6.328531777416224
Cu 11.724944907550638 12.496696853067547 6.388794908453912
Cu 7.520553977286551 13.224242290174914 7.767420023556976
Cu 8.913439333081646 9.703097485076352 6.531263531398359
Cu 10.793608362818166 6.628772201285906 8.125957915989796
Cu 11.068371966301584 8.483432325755638 6.668436965910597
Cu 10.155370815677406 13.155661907950497 8.209896746677423
Cu 12.910677693707028 10.275784313832707 7.00810015438697
Cu 7.308827810820782 7.076632281130291 9.275859383631232
Cu 5.060435583059417 9.360304913937938 6.7858890496070154
Cu 6.173551403951083 7.06762831471395 7.096846966222805
Cu 10.685707907912752 10.787380234058883 7.6391959437255945
Cu 8.334401309668321 11.138088557447821 8.571232967223914
Cu 5.7352655540331785 11.079145059349269 8.516153155650642
Cu 8.811031330462706 5.341957042518164 8.555973619181422
Cu 7.095074145996838 9.113869853059951 7.9903745357586855
Cu 12.442909108864203 12.011954555158365 8.799061047261096
Cu 8.678557365271855 14.191763375990975 9.75060351419863
Cu 12.90033720430703 6.833016484641253 9.35181381822914
Cu 9.457686190164893 8.925638395176092 8.91694835097328
Cu 14.01675028962846 10.055066485164899 9.311130063256416
Cu 10.865364530384735 4.917058849980175 9.97281921714425
Cu 10.375311931637853 11.271999322128124 9.946887443683622
Cu 11.903431500615936 9.029988981484227 9.019866268303044
Cu 6.58743881164661 9.70021818778574 10.465667033025014
Cu 6.988153691785461 12.446568473418413 10.12455431834667
Cu 8.59872225571347 8.300487902377517 11.086990268144746
Cu 8.561853814060305 5.8002680215986056 10.960854879812164
Cu 6.516571872446984 7.31839405665736 11.568803835836595
Cu 10.947270615450119 13.390520907084664 10.679056769464689
Cu 10.729482289913364 7.188849656115929 10.51173670343163
Cu 12.602265877300677 11.070337311812684 11.08449894510639
Cu 5.126576446751222 8.320540073522373 9.07924465152956
Cu 13.150105318357669 8.568498212984393 11.157722010733591
Cu 12.65642634953241 6.12752860380765 11.645139799231675
Cu 8.55996009344083 10.711465353124687 11.403051370104215
Cu 10.751061567587941 9.406465316781636 11.375814017753468
Cu 6.4925279228826795 11.513712855106041 12.3022955878388
Cu 10.450927761508336 5.378756695225811 12.383760357751004
Cu 7.32096607421599 9.240351650605472 13.007666305701562
Cu 8.74814616455265 7.087870058576577 13.140869899378147
Cu 8.719848793844726 13.04200471037129 11.86952607788559
Cu 10.648618229127134 11.608599911063928 12.551816145312724
Cu 11.211954101907661 7.543217312256814 13.127054135320401
Cu 13.592728512211032 7.654108422534321 13.338920816905597
Cu 12.276078164616239 9.785799053874358 13.238088253781726
Cu 8.4414442507077 11.4309161037303 13.767755608432848
Cu 9.712892147551909 9.393764998561805 13.617128112134699
