50
Energy = -149.02726244 eV
Cu 6.697843877305187 11.241379548004026 7.531942864982457
Cu 8.985724410032006 8.932770876670705 11.949549554419272
Cu 13.89943039608524 7.517313979006798 10.70652866079157
Cu 14.35033811247143 7.57103035113854 8.180706110898686
Cu 9.75385386544437 10.503309389795476 13.86663220619991
Cu 7.712333264211652 10.835927464128204 10.98727759043803
Cu 11.726915766651294 6.583564226372601 11.580028633634102
Cu 12.981595297604692 13.294896141876698 9.301529713485026
Cu 12.123556669710776 7.065097988264165 9.126854058003273
Cu 10.878351141320467 8.335304088310325 13.432875947568952
Cu 8.199504788457984 7.482037129486322 8.314114415945792
Cu 13.904360775458963 9.871838952797724 11.509665953115238
Cu 7.295999264930022 13.243711134895108 10.963868491427213
Cu 12.979725207783204 11.464665051381951 7.557272977432754
Cu 10.483582814201482 8.171075180363447 7.7630583396729715
Cu 9.870300279565686 7.168732488517146 10.091713547511311
Cu 9.00795041968661 11.9650636139383 9.194880200761283
Cu 7.246870951732091 10.126564251601502 13.322465559159147
Cu 15.509499940931098 9.11535800757438 9.775647510569813
Cu 6.828932984056914 13.21991753664882 6.158431236484497
Cu 8.40103628758594 12.285207529075473 12.916673670955797
Cu 6.920056587097256 13.414213545651274 8.589900860706782
Cu 5.822764782548715 9.417558112397279 11.355019606566529
Cu 12.081754132565433 10.423082256959539 13.069709861658724
Cu 12.85556182129345 12.119297501901379 11.499611665996499
Cu 9.244896273797195 14.352221682085935 12.070768709934375
Cu 13.181810948453732 8.043910912143115 12.976740189909098
Cu 6.8335918200718 9.39744002167542 9.093308434375643
Cu 8.461198293575315 9.600515409888535 7.191417195947173
Cu 8.663465154663387 8.312877474629268 14.35231483291517
Cu 8.87217219047437 11.950195302297855 6.632227748803341
Cu 9.321157592242965 6.610371608578932 12.502095432500774
Cu 10.922501532773776 13.397618384112238 10.627917733026269
Cu 10.843278506953778 13.072104335551312 8.058347340556475
Cu 14.422958366585748 11.373897523198673 9.622812166903648
Cu 11.441176903829353 6.120123076600268 13.888194217792135
Cu 13.094382478796037 9.357095936722411 9.121677289377953
Cu 9.415706463722142 9.559077309088105 9.540980262903256
Cu 10.14544408998293 11.072195425112115 11.482126257324772
Cu 8.974663936038938 14.444677382272774 9.634608401165176
Cu 14.905008015930306 9.926834851720185 7.549273477226409
Cu 5.778683168952337 11.541852756724573 9.80324028096096
Cu 6.84882833555413 7.764449442309893 12.889781872589865
Cu 10.906435088363418 12.720396957517995 13.0716495779157
Cu 8.774996670726798 14.24085823853449 7.2769494412692195
Cu 11.519235459191155 8.986618338280438 10.977352129133786
Cu 10.709962108294487 10.560382644310435 7.391725239389378
Cu 7.496639850317728 7.563611114346892 10.603980489940039
Cu 11.610984288433304 11.213113147446917 9.581708988709366
Cu 12.626466425287145 8.982132179839123 6.846330852789322
