55
Energy = -165.1490481 eV
Cu 8.57314322334867 9.570327530819942 12.371415552586319
Cu 12.078868775022158 16.272589259033253 13.621236954214547
Cu 16.154946713267464 15.544285584232805 12.714768891686528
Cu 10.546804928103194 14.834622250911128 15.052186955597945
Cu 11.492702563614415 13.106854326219013 8.630698709389115
Cu 10.345090276203226 12.847797698401864 11.09752724428194
Cu 16.402503294166436 12.5012160547892 10.246110803088794
Cu 12.363620706074133 11.357841256987658 12.802543708828079
Cu 11.669414230275127 12.639740353268346 15.260387200571294
Cu 15.604550016963278 10.736402895730611 8.80024116274691
Cu 8.205663984723184 10.35575407385489 8.238118618894843
Cu 10.4410432878466 10.66575113027227 15.880113351544942
Cu 8.404736715669015 11.180164322114768 10.491554212796963
Cu 13.059446623914548 7.347444385728651 11.002447045263867
Cu 12.761467089090475 10.425750600408334 14.999804166699166
Cu 10.670635281246742 10.301857419967039 11.41403518157159
Cu 14.25430854022667 12.263505456032641 11.555817450599987
Cu 7.753446567191002 12.007576294993914 12.71656644845015
Cu 10.733897439638726 7.922223137216702 11.836302921201568
Cu 8.367630710174137 10.549895809306493 14.621786171836586
Cu 12.818358099423712 8.503934360943347 13.329095420241208
Cu 14.123652171451177 12.700911122088952 9.103615111505237
Cu 10.550122632627682 9.389441326422515 13.810256195260452
Cu 9.872377667112456 14.750536726995755 9.609742752530318
Cu 9.04203586844586 12.661372179093718 8.66805284033226
Cu 11.710477174058155 13.751196180984383 13.07894202355601
Cu 10.062155099256222 11.791799094203583 13.367068624347054
Cu 13.205634331577299 7.584508903904042 8.425281921360662
Cu 15.052670281227964 8.233346523297564 12.22422237231281
Cu 11.672769977533315 8.418093321673112 15.638996227383913
Cu 13.438560072153058 9.761471876464459 11.267219977124748
Cu 11.642052781018876 8.81012411305738 9.710084432464626
Cu 9.09264725263558 12.835944797052269 15.293346964605018
Cu 14.6592573011109 10.417649483461345 13.348366946146436
Cu 15.89859514646851 10.34628475513122 11.220319210013674
Cu 14.942577125091425 8.576273431497318 9.746341200984155
Cu 15.130385950008176 14.452673321797636 10.728360231579963
Cu 14.454850601201805 16.57087082601264 14.262257690268653
Cu 12.299213744071162 11.573066602713295 10.216519798102842
Cu 13.049049716798866 14.696020473729858 15.18444873322863
Cu 15.465673917233708 14.426834407099735 14.77384294206937
Cu 13.914663172383786 14.720277776523137 12.78620052085706
Cu 10.522423132655499 10.74269386616071 8.77793737782968
Cu 13.192212913431355 10.253857561577625 8.414685190009608
Cu 9.198109765121899 8.912168232521157 10.00604106526928
Cu 13.954693650213278 12.567184725333629 14.251025497787895
Cu 9.595855020927686 16.48371180456634 13.507854225359967
Cu 8.104474634689941 15.081410080690462 14.90008432824674
Cu 9.106918602739778 14.106347982632595 12.977968642022702
Cu 8.490124287940889 15.874535002039268 11.384689581346393
Cu 14.906850289488393 8.921626392507807 7.329041602829559
Cu 12.617553104630778 14.062258145536644 10.695133038568061
Cu 7.974152883706246 13.583677395318874 10.776972800235175
Cu 16.07729113846729 13.056624974708956 12.805184958317112
Cu 10.887848405284744 15.559881270916774 11.6373456829962
