52
Energy = -157.0865615 eV
Cu 6.079733219011303 9.745518929958402 7.015114959490971
Cu 7.9708412237909805 10.316243546705236 8.879680467904626
Cu 11.158401485544047 13.015169049980551 7.9866719818095655
Cu 11.17187331758134 6.625723244007956 8.404719340890994
Cu 5.393948183323901 8.474543016751712 11.72228255745611
Cu 7.04850513999629 7.46960806480158 5.906135121929166
Cu 9.523781406703625 8.505814098662979 9.557007836145022
Cu 13.612788723472736 10.290072218602111 10.334923822474758
Cu 9.378423625672248 8.183316404503472 4.819287787816274
Cu 7.760744622806931 11.827422794918224 12.834983355603907
Cu 12.730274480738915 8.068304012460935 11.886165596456749
Cu 10.079074985963025 12.423891536860397 12.024695113831696
Cu 5.528269564418181 9.191305573376397 9.352520691002741
Cu 7.9541209799069135 12.475118656429554 10.438875201655186
Cu 6.46570437567994 10.607608377882912 11.062821940540296
Cu 7.153625145209027 9.625272587302971 4.7078726842971115
Cu 5.916683838843439 6.717443548411441 9.839891633238755
Cu 8.840071545082367 6.45038616792747 12.172417242133866
Cu 11.128798269035107 6.689421074785158 13.282816850776092
Cu 10.085833662719692 8.450212316583954 12.009543372998763
Cu 7.561524926211861 8.188405075025887 10.8759161714103
Cu 6.990898825619311 5.704498616436017 7.721167033189244
Cu 8.499448780047528 9.339479201306284 6.670829912728058
Cu 9.63185868662881 10.470747442053597 13.640472424084408
Cu 12.389210647326847 10.671270669118124 8.12153491729394
Cu 7.396594303238213 7.944121204189649 8.354979876679753
Cu 8.677398057336752 6.218312548966649 9.603216275118355
Cu 10.694367326376783 8.872970726789033 7.520439372337028
Cu 9.158084656724956 6.817230479520535 7.032604031733575
Cu 11.454401923920779 9.584562989914309 5.425192845641584
Cu 11.893023203132929 8.767162855803218 9.716360378687481
Cu 11.661382357428327 9.08887440760236 13.863742704603114
Cu 11.497976237879865 10.399085725829874 11.601952617950152
Cu 8.889185881798964 10.358881649961301 11.248582456838086
Cu 5.1601999708241735 7.475217228988023 7.558884364319519
Cu 10.185996078520851 11.149891258136265 6.8999929910352735
Cu 11.794524544789764 11.6260719243013 13.634507085670585
Cu 9.313699478483096 8.058317988771087 14.238134725453138
Cu 10.305440247896852 11.02201429765092 9.377091366443956
Cu 13.001051675395063 8.213539212476752 7.581357125262395
Cu 9.434890738225375 13.10685886368163 5.8276784312538314
Cu 13.230140215995098 6.804522611464673 9.75152067078616
Cu 11.373629262342938 7.141493939612878 5.95705423501113
Cu 7.537377521358172 11.585167766941572 6.333249270198319
Cu 8.67020944916978 12.740474098285253 8.15706383339095
Cu 9.319441668859092 10.765101447737191 4.695548892951079
Cu 6.223116189708456 11.788478701496455 8.61965478144133
Cu 10.97528543279769 6.526618522929074 10.797373874234669
Cu 12.11445487317705 12.357772977287068 10.231982755529417
Cu 7.498017463087271 9.280891288561541 13.050904297336833
Cu 10.02896440059405 13.721891141174059 10.004552295059577
Cu 13.610933215594272 10.211903953065168 12.802256463865582
