55
Energy = -165.60210605 eV
Cu 11.712861220528684 15.24104008429757 8.67005829302325
Cu 14.700641504491983 11.916161707595935 9.325646292581219
Cu 12.391233891757564 12.936412089144929 8.663438795290515
Cu 16.84221934212888 13.251525835982987 10.166035355225235
Cu 12.58396602478188 10.440129414238418 8.833937804350736
Cu 10.489312105715292 11.625698969215948 9.516611701448332
Cu 11.120447061962114 16.416780329001387 10.681883824484725
Cu 13.377794959422614 16.774587847095813 9.641387633379129
Cu 12.661099818216405 8.064825769996965 10.071882909514425
Cu 10.678587955965865 13.848313434211862 10.487794218211702
Cu 16.21473836886764 10.928040169328973 11.11975907340659
Cu 15.290010059685155 15.471195373745108 10.496269154553747
Cu 12.99521167370472 14.57484007288737 10.656514399859038
Cu 14.91841793880427 13.144595929566671 11.44613477343374
Cu 16.7147702272092 14.752519634794819 12.330431687388806
Cu 14.127397724812974 9.825801596417108 10.567284671210112
Cu 9.19270994328334 13.7725077850353 12.591940295072495
Cu 10.317663179603683 9.584965323064521 13.161813373703563
Cu 11.270402235608277 9.806002792254825 10.890024611686481
Cu 17.405243938385436 12.46550264780813 12.500585377428411
Cu 11.330896197191217 15.027253466553727 12.594974635409761
Cu 10.552633697804897 11.843408122103208 12.01530821161625
Cu 13.068570342688744 16.992235465774996 12.031798848018287
Cu 12.699917924610213 11.931529864863581 10.81429524857359
Cu 15.273067591488452 8.77964861557815 12.470939429778467
Cu 14.297049362075583 15.065620811396492 12.865689284019934
Cu 15.574920966283859 17.020358122171842 12.458845195297174
Cu 10.91141496988994 13.139773315878223 14.286213614482692
Cu 12.89814756113777 13.135304400289685 12.884576864393106
Cu 13.825625663564235 7.241661430834628 13.924246504797344
Cu 14.309254913801695 11.094614287968957 12.707358172952064
Cu 12.772241798418376 8.804696317461172 12.487169107125895
Cu 11.465675943685023 17.100032172897823 13.933188403256413
Cu 10.448387006353338 10.697031666896212 15.507515391448225
Cu 9.65257992333869 15.341020302748023 14.395972817591034
Cu 15.519431445225594 13.080196729210925 13.937696893043883
Cu 16.42458481953969 10.602048255256905 13.720010985353758
Cu 8.972185132968283 11.605101699133524 13.82012591645939
Cu 14.338309940325658 9.454488413637543 14.630696210671497
Cu 13.959005992079724 17.102365843868707 14.355038019213643
Cu 15.970799450565297 15.53624770929399 14.57000724281987
Cu 12.168831770266491 10.967518105363638 13.802895754138264
Cu 12.627364748903618 14.99610351379907 14.719876952040034
Cu 9.989933545847459 17.202578663196537 15.895386674771466
Cu 9.09614887221017 13.167991825891992 15.75817484924207
Cu 11.9712746370958 8.716308171897879 14.840884187665768
Cu 13.337403640823547 12.717934727025439 15.26785853474731
Cu 15.30308764734916 13.836082738925693 16.2632682077336
Cu 15.27047710071946 11.369536827565549 15.755526283806747
Cu 12.339634924602263 16.823268418731384 16.311634119225754
Cu 14.671248140905568 16.16111299895562 16.504966524419135
Cu 11.36848954272255 12.609025018763557 16.73576228777288
Cu 12.836679953796226 10.566784796258132 16.26820307445833
Cu 13.033966104658083 14.461907242297473 17.09497444048736
Cu 10.698757585657752 14.950491165355466 16.532214901444863
