5
Energy = -9.82471579 eV
Cu 11.331772038252362 12.462422251348961 11.349024632814075
Cu 11.224785540828973 10.363002928922834 10.329667292640417
Cu 9.225805715845855 11.449894132281813 11.06959215197929
Cu 9.09133997614032 9.335384374533822 9.980315932781265
Cu 11.063229244093364 8.326371247740463 9.208418790478815
