5
Energy = -8.59794247 eV
Cu 12.609857920304758 10.928530660615154 10.894681582882138
Cu 12.743983994268389 8.848615987104317 11.810952555283231
Cu 8.08036903454367 12.669204936553081 9.313632918630546
Cu 9.884353910884494 12.078283808145832 10.685961959862748
Cu 10.672043589500012 9.873727783979396 11.09341511437675
