50
Energy = -149.481231 eV
Cu 7.683781926023851 10.78147269551023 13.52408194069664
Cu 7.9649859639674 8.396451463102157 11.770812582131162
Cu 9.126182716465085 7.087455849502955 9.960415885006446
Cu 8.666390484597045 12.586938026150849 12.097992863378506
Cu 9.061805258917222 10.304091106466496 6.271976988090703
Cu 6.264722691465626 11.004759957051528 9.003986891827783
Cu 8.81356814649409 8.621414680220267 14.119439964707517
Cu 10.97949648974335 7.385635010000025 8.205293284253974
Cu 10.243918210591392 7.709149550780028 12.282124673898165
Cu 10.583777079721923 8.363738638363554 5.9863957498909715
Cu 8.886772559247467 12.843917436609095 14.476279424255104
Cu 10.026107605097753 12.232266741803588 7.787681520638466
Cu 10.989179949413618 11.823368304699212 13.441723450486837
Cu 10.20654958991064 14.333300131280811 13.010796144277608
Cu 13.273506492189988 6.760084006105206 8.533591599195697
Cu 12.789942275430786 8.662902518491217 7.063166209124801
Cu 10.333577728856872 9.131891144183502 10.1365973697303
Cu 10.888741543808356 9.91805315685646 7.835396461590254
Cu 9.21344014471418 14.479786425285036 8.260994245346007
Cu 8.558095761679624 10.493434400340316 8.635744300936585
Cu 13.613939195963805 13.4093038727283 9.823924614854741
Cu 15.787767859037254 13.072431531109713 10.718408654497907
Cu 14.116006994070723 7.289469831509236 10.701289777815358
Cu 8.786322552406652 8.145208715736711 7.669010841509551
Cu 12.90977029542186 9.108179587577403 9.468492807925196
Cu 6.867359043511344 9.512432429299668 7.165020849425528
Cu 12.206723813965574 11.494626214095927 9.087258902348593
Cu 11.682710044731303 6.976087753777121 10.454495745463179
Cu 11.990872016876178 10.488975199963125 11.505730341188894
Cu 14.083559404551352 11.916440766663344 11.867289690110919
Cu 7.1964225362676535 8.622141911644649 9.4721151428415
Cu 10.066404426511632 11.605123662654892 10.291149764348367
Cu 11.351608606672173 13.827183221606331 9.123824918440677
Cu 12.639778508283694 8.22273848948915 12.385720946433718
Cu 14.539932314479683 11.119509794170384 9.553073229858311
Cu 14.401940089004283 9.569623500157682 11.435835421876043
Cu 11.850240867192433 15.336255592170284 11.223675367732103
Cu 11.775717545160344 13.006150521199292 11.462263339369004
Cu 9.622235710315556 10.142542185166485 12.330722818219732
Cu 8.012419346668443 12.763737671265094 9.550649541063029
Cu 9.591357888022804 14.347536727784657 10.663586307408032
Cu 14.031314797614282 14.31840917153717 12.081647789673772
Cu 13.341280170837022 10.360002203039961 13.600401969639472
Cu 11.224324538309466 9.254351541674511 14.06655556865259
Cu 11.163903255814192 13.529133998189183 15.187328228644986
Cu 7.623187237153157 10.705646860124618 10.973768223867923
Cu 12.065092965002265 11.21788987536488 15.515629331134006
Cu 13.260531662484533 12.82647148612684 13.996866338720775
Cu 12.378473441137727 15.05930297902923 13.653904584741808
Cu 9.622023266449848 10.685312334170908 15.19990167691538
