50
Energy = -150.29710946 eV
Cu 11.427830232234724 12.931964427856558 5.727018581290897
Cu 9.31966385071757 11.944358921215064 5.918638908552984
Cu 11.335486815143668 10.530153748374024 6.357202601195099
Cu 13.286900447164278 9.656128323918777 7.4888205216106565
Cu 9.079584158729068 9.906240001606959 7.16227595593539
Cu 12.20337393006818 14.452239675693736 7.3575368324981545
Cu 13.246474668408752 12.059723799323113 7.1421999548216695
Cu 11.04257683144949 8.993836722327705 8.35442558345741
Cu 8.066662011222226 12.152941911006588 7.9144467239083935
Cu 9.6621954048755 14.069694572252688 7.335469251793829
Cu 10.967102033193491 12.276109920742623 8.154450964192568
Cu 14.667679653932646 8.747042090063308 9.244698549783541
Cu 12.809622327128881 7.337358610747733 8.411698536254107
Cu 7.122890865191969 9.944628176860988 8.636448868422727
Cu 8.84186019337533 8.280637396995386 9.132172958624961
Cu 13.154828954550348 13.303834461580301 9.22688976988038
Cu 12.360698432123202 10.624245746717204 9.654318532212217
Cu 9.474434020343153 10.81838369316964 9.441628191587636
Cu 11.049715198744282 14.650112156942166 9.449898660078869
Cu 14.598123456447507 11.242879148201276 9.076020181961105
Cu 10.833762193758483 6.981686989446545 9.886545297511548
Cu 9.099428742275464 13.308254952667275 9.807386580572503
Cu 12.759484586272686 8.268664981671831 10.672209199794695
Cu 11.251798457799685 12.456502552504372 10.701910992720999
Cu 7.205822162233527 11.760637498789482 10.239366540625795
Cu 7.840036148523171 9.52553706069971 10.984126569906515
Cu 14.348818268388866 9.97099186084769 11.28470682096576
Cu 13.747779317746623 12.290045868170566 11.301109345715766
Cu 8.904602719845323 7.364761811547595 11.467148169228814
Cu 7.711838866590486 13.520016550569975 11.77066952181324
Cu 12.483483503407442 14.461772268700113 11.431625070269343
Cu 10.47571668370987 9.235464151225681 10.908945416554445
Cu 11.998310701544233 10.598106585448507 12.233649173555593
Cu 9.318698847077213 11.430018859581908 11.923321899809935
Cu 6.992391468223968 11.163850004701397 12.654178956129584
Cu 11.273349248017288 7.334242964864442 12.39192801174491
Cu 7.628345890820762 8.65392648211278 13.269091552247021
Cu 13.2089334314782 8.670310602076423 13.160582145297072
Cu 9.376509607172116 6.820667538412917 13.749202609577027
Cu 10.163109100816106 13.802770392703332 12.344671662016177
Cu 14.202609676956941 11.09387578612732 13.412920555314491
Cu 10.019812264351662 9.354156176394703 13.373353910076986
Cu 12.428176527724684 12.862904129608014 13.269833407474296
Cu 8.366589771893644 12.897659164374376 13.936247389674465
Cu 11.396595556874326 8.01260477835641 14.823719869661616
Cu 12.354115236843905 10.347775465827826 14.720346270247518
Cu 8.276721717093148 10.61393282004121 14.661229848342106
Cu 10.46409484769757 11.773627037270431 14.116090151458785
Cu 8.84024114804512 8.380016838563785 15.419048009972805
Cu 10.341094999148295 10.152679498471315 15.92855010103266
