50
Energy = -150.59272362 eV
Cu 9.144260987554578 9.365968957777511 5.966235417471811
Cu 10.332138363199515 7.1627724028586135 6.159083088696795
Cu 11.720333086072195 9.230277403796412 6.090538211726854
Cu 10.554689967906532 11.071889501119479 7.249352034075141
Cu 13.005539429711138 11.451659226878181 7.147525815998169
Cu 6.302660672272184 8.664473914699855 7.709220445040763
Cu 8.152264132013238 7.313579082530284 7.142929713971357
Cu 9.012536949568265 12.955502108155981 6.983130118024868
Cu 9.959786930571495 8.66476344026677 8.10355966935205
Cu 8.168941064245805 10.674893740798838 7.841995408310333
Cu 14.012565108013094 9.066885943571773 7.029687546426283
Cu 12.269100604857098 7.3001811963631065 7.629391185397839
Cu 11.348442463297722 13.413319863252797 7.868543990948707
Cu 7.205454466872911 12.914914514910667 8.68775382867468
Cu 5.390181593267083 8.389596524055316 9.950329887588866
Cu 12.190385622890668 9.613536845066132 8.449993184119059
Cu 14.456618499600973 10.531689031623396 9.04011254944578
Cu 7.809912654809833 9.004633059275172 9.616145344408935
Cu 9.902895273442654 6.316638674525646 8.573511987477133
Cu 9.267140904710478 14.578219908960559 8.878483231541844
Cu 5.9001127735059296 10.696685259828698 8.976404153071345
Cu 7.252973910592299 6.7395911357056715 9.344080846300477
Cu 9.683933253834129 12.286220078284583 9.211127964645332
Cu 11.56667545291884 7.607408029514473 9.956740548699958
Cu 13.981138635672433 8.065229756431636 9.376971528531929
Cu 12.775057745709894 9.787274743851382 10.729835930264148
Cu 7.056876868690528 7.772239004756508 11.745083655070315
Cu 7.844711755104369 11.283577004706306 10.36027621702522
Cu 4.040854426871048 10.498883505364892 10.441014677225544
Cu 12.329949883351812 11.931600428680381 9.526273505400832
Cu 15.005642063647203 9.25290135655391 11.345990828372498
Cu 10.887493640304942 13.697586805276153 10.649553323139697
Cu 10.229359716733539 10.10243725033321 10.055118002766502
Cu 5.740818014332443 12.386432553338862 10.778254552632491
Cu 8.123875532884083 13.634909585718038 10.89908219007091
Cu 14.247291081847598 11.575681610032825 11.31812865030404
Cu 6.023597060544066 10.016227861456759 11.653054930397474
Cu 9.609522362073928 11.978403006708453 11.934338427965965
Cu 9.271177719208685 7.405389646577246 10.750111236114453
Cu 8.60468919759619 9.718523530792742 12.02905529286773
Cu 10.940933288369909 8.848937971315689 12.002404156371135
Cu 13.082006335503298 9.88164823934943 13.121897317784764
Cu 13.180781692219318 7.657731221716079 11.910755177169472
Cu 9.159282996436769 7.847727710424104 13.414450972321365
Cu 7.285633754514839 11.792646253638337 12.713348869028422
Cu 11.914310024266324 11.750544770315386 11.976621791949464
Cu 11.006037967494212 6.486042386882798 12.26332311867017
Cu 7.060491490070207 9.26395539445043 13.756301699706695
Cu 10.55155538962353 10.418945873498647 13.69380731560379
Cu 11.60391282266507 8.095768315475842 14.115616093296323
