5
Energy = -8.60445608 eV
Cu 6.66282223332106 7.78537040089213 9.160120401902939
Cu 5.118147373138196 8.127440662532193 7.184070999603588
Cu 7.198942470351513 7.36623770579539 6.576498789306957
Cu 9.555517761709106 7.946209740972619 6.818438951553802
Cu 8.98245990249452 5.826605126190882 7.076528240571731
