52
Energy = -156.11069861 eV
Cu 9.348020290086417 14.032497392913267 7.7930840471929095
Cu 11.078721216945766 12.745549334159318 6.7270522871387834
Cu 12.853459239241904 11.51770915634488 5.711773138512948
Cu 8.699812273811036 11.575945257465472 7.172369604061215
Cu 7.24047596779229 10.450198029302527 8.891580801995104
Cu 10.79475525687573 10.252469063101408 6.572082339607817
Cu 13.46951962671942 13.031955429491088 7.614494628113249
Cu 6.18579795086716 11.96731836445371 10.540437862346659
Cu 8.117719985787438 12.73857323991053 9.362331403210566
Cu 14.76764789687157 10.88000130174458 7.062424721854027
Cu 9.384501549550361 9.400946290988891 8.414025794796787
Cu 10.352178177280924 11.70915894731012 8.840357093663433
Cu 11.529709102264775 14.05488042782335 8.820070782475714
Cu 12.552946736621676 10.79470293097272 8.119778317611814
Cu 13.123364161667455 9.161418262248839 6.3610351995446575
Cu 8.752034141851537 10.731634613543536 10.863184516169847
Cu 7.977135383855981 13.16942346696024 11.766604107823902
Cu 7.9432441819044275 8.377155825703863 10.148864457113424
Cu 5.928158840356685 9.599240449623247 10.85651140984449
Cu 14.65152982049543 11.619032949544836 9.338369477543317
Cu 11.66392222009903 8.342561871914995 8.094025598424235
Cu 9.430465168566288 14.7425943498959 10.178558569598248
Cu 13.827404452869825 14.069574334032975 9.84282006448795
Cu 6.148083925213742 7.160616045807747 11.189907919098768
Cu 10.177594482566462 7.433291677259919 9.861063065938044
Cu 12.421542794439667 12.084535658903775 10.215675617652648
Cu 7.322529764326763 8.68448025269391 12.594083756414182
Cu 14.055670262723623 9.033400478451622 8.743715463970632
Cu 11.234000798153817 9.74134220329436 10.086763157842059
Cu 10.251501248758931 12.694200444972962 11.053428401026812
Cu 8.5794546505561 6.626440773604941 11.784996937919027
Cu 6.893213444357308 11.092383707083963 12.67926651559484
Cu 13.954833023170671 14.786709827239198 12.169474797359205
Cu 12.649953640055118 7.736639353149294 10.32508367368939
Cu 9.828668507749407 8.759340070553282 11.964574680142508
Cu 10.076301431790409 14.119456529579512 12.882861578389658
Cu 14.43748528197267 12.421236501523557 11.652443369953108
Cu 7.924044277521069 9.948911477968377 14.55982500374003
Cu 11.085087316462863 6.572767064508014 11.956392647855598
Cu 13.619958004749792 10.049382456899538 10.981609976170734
Cu 11.764955880928612 14.79553466631888 11.116533395596466
Cu 11.259838545131908 10.831454225538087 12.232696181722597
Cu 8.811052792333657 7.6073346938874264 14.111427613702483
Cu 12.347774960618727 8.670318352243177 12.597986272606908
Cu 9.785671027714438 5.44856846333247 13.650141837441026
Cu 9.208222137003231 11.709565631471408 13.352271471868729
Cu 10.238952297021376 9.589955020888048 14.300025758465992
Cu 12.316912379028645 13.054298228915986 12.72009937911867
Cu 11.22805633976875 7.313420772899295 14.338465076560963
Cu 13.478457697604917 10.886378586495999 13.31267026599865
Cu 11.423374990775201 11.673708197001046 14.531835184144596
Cu 12.520103382368392 9.36819419286879 14.930362945165285
