55
Energy = -165.80895939 eV
Cu 12.422000136712134 14.99198570444532 9.781913805618771
Cu 10.345830832903255 13.76957746415996 8.854212164404409
Cu 12.653626899410414 12.77725128726432 8.762197886436816
Cu 12.897327717727848 10.295715273224639 8.989867818630511
Cu 14.560067599295905 13.736526375437311 10.151783123574123
Cu 10.778395235603421 11.379688181558809 9.574733297773705
Cu 13.439019850226996 8.01154693682621 9.478607164748844
Cu 16.686349742504923 14.784607482374458 10.560566292847813
Cu 10.175639342837178 15.734192866071567 10.37275878189437
Cu 9.1617365056007 9.75489196721346 10.452353125553397
Cu 8.736965448274415 12.206714132638727 10.84859496192132
Cu 11.534739922135383 9.063493746344955 10.611292297386655
Cu 14.866327396726787 9.702630645471714 10.51091718615724
Cu 13.019158927486803 14.311819556237909 12.108136605147283
Cu 16.875439270078328 12.322843989271401 10.20798038636404
Cu 8.622482094150964 14.589594939601428 11.833998931159767
Cu 13.431260406891507 8.248722299817073 11.87437678181672
Cu 12.872633441769189 11.908143268854786 11.056533572586346
Cu 15.488028776182938 14.351516560819592 12.588164735132324
Cu 14.853769834718113 11.638346858618663 9.090876878222721
Cu 10.650360439172745 10.855781595796149 11.986088666115547
Cu 14.42339148561406 16.010948799576894 11.025886559474976
Cu 10.817794306760469 13.443757249356409 11.123817020922854
Cu 12.065605103398283 16.567839329477266 11.74140909972131
Cu 11.325857229970234 8.739310314382923 13.171244923112786
Cu 8.407326318635679 10.454546082783668 12.719678685937636
Cu 17.60726455296926 13.245101997489709 12.309140401412382
Cu 15.389669704052952 9.486745570569212 12.914511076974605
Cu 15.209899925185312 11.781762019293561 11.792038672351888
Cu 9.17011327735414 12.69963825857231 13.238925720819767
Cu 9.65933390209218 16.841652579641696 12.499986495236046
Cu 17.36464399599808 10.843200380083479 12.307910092099368
Cu 15.213346059897821 14.721849535223928 14.964015623584162
Cu 10.764471153708367 14.86275841123689 13.249531369671391
Cu 13.681228120350864 8.353401839289322 14.251822936191719
Cu 16.99378115229111 10.102087957843498 14.607627021027767
Cu 10.300367245650492 10.796800047231796 14.440562974088929
Cu 11.742807754239072 16.991989100726787 14.169346117439776
Cu 8.676810737361942 14.83867023426925 14.374445212823634
Cu 11.710141759276752 12.596793022921362 13.247016477835444
Cu 14.094253114288755 12.65408149141087 13.728556761971456
Cu 13.92077724985272 16.215545837303978 13.4623453985566
Cu 16.396334197553106 12.435996714667747 14.30504331466443
Cu 9.410391467621196 17.075889312345296 14.870901304395897
Cu 13.014992789960239 10.447805446229122 13.146420077655312
Cu 13.379763158119383 16.229704372056776 15.952415459015482
Cu 10.368602396486018 13.20302613761121 15.346888206349007
Cu 10.881086957986234 15.50717681640885 15.967350500165445
Cu 14.647125016769097 10.534562192426508 15.087234908631151
Cu 10.74279736794369 11.291822310375716 16.861368116850972
Cu 14.579049111313752 12.776995657279288 16.196143430704677
Cu 12.515477358573811 11.81949866715128 15.43020455118184
Cu 12.04485636907935 9.503490944318637 15.541891483573634
Cu 12.712128815138524 14.35254530095233 14.758928016959688
Cu 12.208142063047998 13.648205976393763 17.010228564054984
