6
Energy = -11.84162353 eV
Cu 11.899159102422226 11.417246382808228 10.16224687404662
Cu 9.976586862535866 10.068603210951771 10.47834728307346
Cu 8.065964518062634 8.753006374561101 10.847371087431396
Cu 12.804302753429322 12.656275479968267 11.957529600406106
Cu 10.898608290418876 11.331213887178036 12.322269073430862
Cu 8.97256589279697 9.99298985894837 12.63942319163568
