6
Energy = -12.39141868 eV
Cu 9.5885487441279 9.20614642094583 9.149343372024621
Cu 9.374933711536036 7.884632047135679 7.154404128310439
Cu 8.905232759244601 7.048927242336728 9.356789384063424
Cu 7.439485123400748 8.631680846171788 5.946619409577041
Cu 7.341910507993801 8.696181013259142 8.255890328638898
Cu 7.624639774792985 8.845029159069082 10.569864081230882
