6
Energy = -12.67520128 eV
Cu 10.13039586728205 8.978717 9.424686061470233
Cu 8.978717 6.948122300308471 9.915694827490542
Cu 8.978717 7.795321378414375 7.595770111039222
Cu 7.82703813271795 8.978717 9.424686061470233
Cu 8.978717 10.162112621585624 7.595770111039222
Cu 8.978717 11.009311699691526 9.915694827490542
