6
Energy = -12.63447528 eV
Cu 10.222634274911824 7.482771992607927 10.329301491098096
Cu 8.537696888016328 8.61825063511561 9.10675810667366
Cu 10.29061596973754 12.107734635620202 10.158125957627385
Cu 10.280222399642861 9.783966208434709 10.090946341222663
Cu 8.656890191334211 10.997724270640132 8.769706083277635
Cu 11.863451971165336 10.848334793948942 11.413992557946992
