7
Energy = -15.74281416 eV
Cu 10.092424714208276 9.036833783072455 8.542279480430699
Cu 8.092009319097285 8.462150705067618 9.694215311471615
Cu 8.75403336671248 7.25037490842461 7.630624531045377
Cu 7.538039833175316 6.163086348870102 9.40690002636071
Cu 7.991003400962069 9.587369547325315 7.536710822936079
Cu 7.287342054863242 8.039962926131212 5.865552606051305
Cu 6.400810445247205 7.7847706989929835 8.065932179939203
