7
Energy = -14.94202368 eV
Cu 6.180950381949985 9.319668303610914 9.794590195359568
Cu 8.32684301429358 8.649982850535613 9.185977071492365
Cu 10.30144893680756 8.831636481632048 7.873967034373569
Cu 9.817678700688168 6.7783033002538815 9.088396126191693
Cu 6.462622724076606 8.292101310259092 7.712345500705286
Cu 8.583345514593784 7.334787060238262 7.133759671135911
Cu 6.796538498232244 7.244191109814259 5.645520740745948
