7
Energy = -15.46203482 eV
Cu 8.492690711058119 5.666601900429758 6.936318134211997
Cu 9.452889170898013 7.421995210244017 8.152973468833554
Cu 10.01769590525706 9.399877369154561 9.292084102308808
Cu 8.395850616503797 9.544968915917776 7.514256473087428
Cu 7.826684721798636 8.478384817095641 9.66875817914412
Cu 7.109109669887259 7.452280969905571 7.549123546656359
Cu 6.112360165142404 9.45059533134801 8.287306082700722
