7
Energy = -14.48525294 eV
Cu 8.09196339956929 9.19742697420594 6.607594695638109
Cu 6.7765325326217445 9.185361165534363 8.58810316786011
Cu 9.180428170251679 10.270029874105276 8.418990226202405
Cu 10.044997437058846 8.214696571049345 7.511581548771602
Cu 8.729750915015432 8.192826570498836 9.516428799057662
Cu 7.629591781446847 7.128034609025326 7.691984189575022
Cu 9.377870719475393 7.741197640887689 11.62242142412514
