7
Energy = -14.89959697 eV
Cu 6.550739568239029 7.183131992472673 9.119298
Cu 8.890664715490749 7.336969871445397 9.119298
Cu 11.221866649878619 7.489357712724234 9.119298
Cu 7.536197891621627 9.325121961396789 9.119298
Cu 9.994765797297491 9.471245787190897 9.119298
Cu 8.650688382544855 11.414025059873563 9.119298
Cu 10.990162864737448 11.615233484706268 9.119298
