7
Energy = -15.59712138 eV
Cu 10.155346422441252 8.113138620610446 8.623773
Cu 8.371481636243624 9.532187903902196 7.436535613622378
Cu 8.33171886373939 7.1199692826702785 7.441038755327679
Cu 6.590369646446341 8.461198830969627 8.623773
Cu 8.33171886373939 7.1199692826702785 9.80650724467232
Cu 8.371481636243624 9.532187903902196 9.811010386377621
Cu 10.214293675444676 10.487759303125884 8.623773
