7
Energy = -15.58543156 eV
Cu 6.498377886474006 5.438481039123853 7.983480616518867
Cu 7.003312373720205 7.499749056987809 4.7354102814534755
Cu 7.296691841630197 5.231573536548081 5.666948465583638
Cu 5.2721641043119005 4.356594017022341 6.321557826574467
Cu 5.411633437890408 6.735202063648489 6.337585392423465
Cu 3.449208279352252 5.347121955057597 5.274337546419769
Cu 5.4942057370600175 5.7878627038500445 4.121962543975449
