7
Energy = -15.97343636 eV
Cu 8.62859300100522 6.568424646822619 9.201679555685471
Cu 7.839085758090361 8.818333099404786 9.570555297738522
Cu 9.244998643152691 8.23368349053817 7.535595053927838
Cu 10.212677048674214 8.309867787757314 9.749156416372934
Cu 9.473940448630552 10.361594157131865 8.681714504861088
Cu 6.953980651672122 7.522378871228693 7.718760348356471
Cu 7.460749141245737 9.883088158210567 7.428688728115399
