7
Energy = -15.95370088 eV
Cu 8.050896281866828 9.018838951857346 8.750229446159148
Cu 8.788566223871138 6.850775836103091 9.52098952707108
Cu 6.211612734984758 8.70375028929209 7.211274425256995
Cu 7.910576095905833 6.967360046905836 7.26398918842224
Cu 8.440190608170877 9.150577642978261 6.36027850756652
Cu 6.42366504341296 7.2552614914233295 9.14822386458356
Cu 10.034474067839186 8.006238267672465 7.785225741002523
