7
Energy = -15.98445801 eV
Cu 7.010375642857115 6.596505499999912 8.222912499999998
Cu 8.939540642857075 6.910737500000106 9.65290450000002
Cu 8.582803642857192 10.087400500000005 7.386416499999935
Cu 8.991791642857216 7.702323500000068 7.368342499999917
Cu 9.900416642857188 9.07601449999993 9.148901499999969
Cu 7.4990016428571185 8.788721499999953 9.122154499999958
Cu 6.794202642857088 8.55642950000002 6.81650050000008
