8
Energy = -19.01583512 eV
Cu 9.016600555895149 9.016600555895149 9.016600555895149
Cu 7.26815744410485 7.26815744410485 9.016600555895149
Cu 9.016600555895149 7.26815744410485 7.26815744410485
Cu 7.26815744410485 9.016600555895149 7.26815744410485
Cu 9.54744988810625 6.737308111893749 9.54744988810625
Cu 9.54744988810625 9.54744988810625 6.737308111893749
Cu 6.737308111893749 9.54744988810625 9.54744988810625
Cu 6.737308111893749 6.737308111893749 6.737308111893749
