8
Energy = -19.0461 eV
Cu 10.793062707814485 11.56501999664601 9.491670602495281
Cu 10.857783532706687 9.365982113458326 8.575212134457985
Cu 10.60994673199592 9.671236133415606 10.982982540590855
Cu 10.251324121880755 7.527925537742665 10.020038151534848
Cu 8.758533252269396 8.251209709707792 8.141011851775376
Cu 8.77875896417047 11.24515455395743 10.945174831425724
Cu 8.342238591782419 8.965233207461337 10.416414376078158
Cu 8.749651693616388 10.583917945249674 8.635789572964173
