8
Energy = -17.84375119 eV
Cu 11.46613380982597 8.6179379274927 8.682250170860154
Cu 7.663880194826545 7.527829184973548 9.945248521824801
Cu 9.12043962177911 8.578848894257245 8.30209122850503
Cu 8.147053119918276 9.896902132214818 6.628971059611924
Cu 10.508606981412926 10.159260883253907 7.182758858645205
Cu 6.740981356904094 9.03601100944712 8.373799480257597
Cu 5.470535284200222 8.366424047448596 10.269453616254589
Cu 9.997328658202333 6.996004627530983 9.792288376694284
