8
Energy = -18.1978129 eV
Cu 6.896096764203136 8.602596723913424 7.960011792047628
Cu 8.849515630346195 10.245230628732928 8.241851094361577
Cu 7.9367180555806165 9.664638693225664 6.127992407028257
Cu 7.835082818294283 9.132941704375888 10.067314818198849
Cu 10.171483647382365 8.550533386625895 9.239269789449594
Cu 8.253614354246167 6.845550268322674 8.761207117260591
Cu 9.379136351023062 8.048940509501229 7.068831645188611
Cu 9.062928767097628 7.294144473476036 10.91809772463835
