8
Energy = -19.07685591 eV
Cu 9.511408375 10.272223875000032 8.580544499999997
Cu 9.903287375000083 7.893054874999947 8.729996499999968
Cu 6.226392374999935 7.810642875000069 8.706260500000084
Cu 7.465814374999946 9.487878874999998 7.557823500000075
Cu 8.07517137499995 7.138900875000028 7.3034545000001225
Cu 8.169567375000074 6.541512875000031 9.643411499999926
Cu 8.01705437500003 8.941984874999976 9.869581499999871
Cu 9.554148375000098 8.836644875000033 6.531771499999953
