8
Energy = -16.9357157 eV
Cu 9.641016809802272 12.32176112992522 9.739228349961962
Cu 11.413256780534935 10.717319492617914 9.905425183927274
Cu 10.420683405159298 14.567951971614068 9.943412172777247
Cu 11.447185857859296 6.950210037581493 12.465570116928774
Cu 11.628624504220253 12.935921322153478 11.068477495104466
Cu 10.116416385128147 11.120174200876255 11.775262210704193
Cu 11.329875083137699 9.049890562794113 11.6580410025528
Cu 12.592109751313531 11.070668621646494 12.125602378727335
