8
Energy = -17.25225564 eV
Cu 10.209129269630134 9.188148209128608 8.138029512796553
Cu 10.402448171973033 8.377852257474549 10.389084242314205
Cu 6.1626854076879685 9.24665643029774 10.087489952052502
Cu 8.244449017643477 8.512198651299576 9.364673773360293
Cu 6.39439627818411 8.586815866845651 7.8497025397018225
Cu 8.532438414281275 7.916796758482071 6.956564194211998
Cu 9.796396402555281 6.803651701668081 8.684834595713875
Cu 6.591247724145878 7.931767479258541 5.616916289656722
