8
Energy = -17.23745282 eV
Cu 7.129462968219113 11.10958583060723 9.571220690201399
Cu 8.299006214436625 9.379381689732085 8.46799563254479
Cu 9.534681399548623 11.514760681353883 9.359057084616287
Cu 8.830531184273193 9.918933689373002 10.820523527007422
Cu 10.558748365071446 9.227683612066043 9.227528408774868
Cu 11.10035416671527 10.814052632004286 11.045386818680138
Cu 12.572306983661544 9.006928015179358 10.500602481501701
Cu 13.148532351586935 10.449540993847663 12.221043592678598
