8
Energy = -17.62797626 eV
Cu 8.613466536208794 9.069510532608746 10.03592611685713
Cu 10.983607257036097 8.643687080899904 10.093381493544017
Cu 13.176392852157989 9.428549186803535 10.037047440057895
Cu 9.090452088874137 11.43090920131505 9.980951552639862
Cu 11.461116626797445 11.004916373454888 10.03846314321232
Cu 10.628049561096384 13.180616053449967 10.039036055971007
Cu 6.901418136934105 10.639888474121875 9.863319414891043
Cu 9.442540810704571 6.898967097346177 10.208918913017058
