8
Energy = -18.69879352 eV
Cu 9.881371457894469 9.075741670772905 7.100206653425316
Cu 10.724018319160038 7.139063338578386 8.412646557781775
Cu 9.17772286130545 8.61861357452126 9.399198977415876
Cu 8.517963057890022 7.107753646320661 7.579542785555071
Cu 7.584095264314569 9.411495947848092 7.609391777424743
Cu 7.3499681298557675 9.973141498836027 9.952976920856779
Cu 6.937312018033909 7.671518566968788 9.339493222007603
Cu 6.2664113737823 7.441534238390541 7.045405587769512
