9
Energy = -20.19203621 eV
Cu 10.113635791165098 9.545592171424106 8.073209869056603
Cu 8.872881948202807 8.864526706089658 6.156062506063892
Cu 9.052185776401888 5.453881832462542 9.128667337080977
Cu 10.175092141748236 10.76308532238518 10.096463053629623
Cu 9.647769845274844 7.251976979955874 7.723971672150565
Cu 8.211356111992597 9.642159695752808 9.493862988117316
Cu 7.648176721046145 7.316362995776314 9.005569882633715
Cu 6.968328483034309 9.075672586315704 7.480503698039363
Cu 5.9755770443830025 8.857579199291692 9.675740173294502
