9
Energy = -21.3963433 eV
Cu 6.734938238341741 9.87925244602944 9.301267324782092
Cu 7.589862709290234 7.6440711980322105 9.766773109117532
Cu 8.721607105706699 7.973651895393477 6.81428409534896
Cu 7.6685937609571475 6.0676131168890235 7.909632796565103
Cu 9.051148809624255 9.34070159394186 8.832269150784077
Cu 6.424584141336427 8.100315496473728 7.694520725082167
Cu 9.765588053470132 7.058562730089915 8.824160037939276
Cu 7.629110546213779 10.091074844684721 7.020244606735726
Cu 9.769343807539112 5.7919880000991695 6.776332894002177
