9
Energy = -21.40417682 eV
Cu 7.8232546349091265 9.16664800277212 6.604461928183902
Cu 9.734056452778352 7.822950837070717 7.349431583322891
Cu 7.45904885802768 7.013840449261037 7.583881651333067
Cu 9.274133239689014 5.892138749163163 8.750118327672583
Cu 7.318432605713181 11.161331798714231 7.844849501005299
Cu 7.379297904734292 6.849513386176029 9.990247780018876
Cu 7.2906067792507505 9.020948556338954 8.97851888800691
Cu 9.407072930327185 10.03744517875262 8.305946664835638
Cu 9.42900059477428 8.11342993756206 9.743065981163538
