9
Energy = -19.01069493 eV
Cu 10.050675291014212 7.824508872414081 11.632570499137003
Cu 9.846556273663994 6.843520835173712 9.548750562950133
Cu 8.993001959304053 9.755383999047293 10.92492594436735
Cu 9.728253500010075 5.976041105867061 7.4094726963219
Cu 8.797337098655436 8.802457991607412 8.784391728987357
Cu 7.8455268692678315 11.612702985061789 10.163997331464394
Cu 8.671660723366456 7.880089550831677 6.625455554417735
Cu 7.696216232920059 10.740005566725838 8.027719262017838
Cu 7.574033546312939 9.788653108920375 5.918979580325541
