9
Energy = -21.39180261 eV
Cu 8.580684222222292 7.778192888888958 7.14060422222226
Cu 10.721022222222206 8.63656888888895 6.4513602222221875
Cu 10.18584022222223 8.508519888888864 8.814371222222302
Cu 7.136356222222202 9.000919888888943 10.858442222222232
Cu 9.153099222222272 10.197473888888839 7.405037222222174
Cu 7.14507722222237 9.2668718888888 8.436801222222263
Cu 8.859477222222264 10.332186888888886 9.779000222222262
Cu 9.509242222222214 8.413159888888917 11.103478222222273
Cu 8.143732222222205 7.30063688888885 9.445436222222177
