9
Energy = -20.83056049 eV
Cu 7.468820950874565 8.892505505608074 8.888422009292968
Cu 9.607043066235448 9.464849708736043 9.99265777444951
Cu 8.205444659564844 7.714725634420579 10.888380442630755
Cu 8.216483310918901 10.12541667104846 6.919345134974612
Cu 9.592273606889554 8.331360551915616 7.789860619081978
Cu 10.309221581313267 10.641415239341551 7.999997921884552
Cu 10.307273819514153 7.174328199445355 9.797056438823393
Cu 8.207297751937274 11.194644529984732 9.083246941827099
Cu 8.208942816645049 6.58355571507113 8.763834153142108
