9
Energy = -21.09856385 eV
Cu 9.954391 11.526335110234738 10.001228066737422
Cu 8.357229419341943 9.954391 9.025436855902212
Cu 11.551552580658056 9.954391 9.025436855902212
Cu 9.954391 11.181191517468044 7.6558168163343705
Cu 9.954391 9.954391 13.419448634936279
Cu 11.187027000379931 9.954391 11.402553507483319
Cu 9.954391 8.382446889765259 10.001228066737422
Cu 8.721754999620066 9.954391 11.402553507483319
Cu 9.954391 8.727590482531953 7.6558168163343705
