9
Energy = -21.38965043 eV
Cu 8.826813 10.03709859524485 7.546101479976457
Cu 10.0813416257725 6.800838169964916 9.481727420782038
Cu 10.79479883118818 8.826813 8.308861713947431
Cu 7.572284374227499 6.800838169964916 9.481727420782038
Cu 8.826813 7.616527404755148 7.546101479976457
Cu 10.0813416257725 10.852787830035084 9.481727420782038
Cu 7.572284374227499 10.852787830035084 9.481727420782038
Cu 8.826813 8.826813 9.804481056875044
Cu 6.858827168811819 8.826813 8.308861713947431
