37
Energy = -79.17208528 eV
Ag 12.038253337369387 8.75744199074674 9.016857914459923
Ag 12.469571040620435 6.662935363668958 10.771340701003982
Ag 11.651076268253414 10.87378225420599 7.255246984575599
Ag 14.165062172933348 8.848612777345751 11.03099366694728
Ag 11.046321528932195 13.258009366843282 5.8146423732624
Ag 9.046977216498986 11.91497617833055 7.167463006936077
Ag 13.744984337192996 10.988629970760286 9.224776251507034
Ag 12.90844742751034 13.34839719957608 7.860291622447249
Ag 10.205502646863723 14.1973379240402 8.380165041121717
Ag 12.426203828802372 7.739768647175898 13.39800544188514
Ag 15.627737172053012 11.205090562238526 11.39358042866082
Ag 14.870997256867456 13.529892281911783 9.808295077428895
Ag 11.013115875149136 11.952128555561393 9.892268282750695
Ag 9.420583801711757 9.752931776293325 8.852836331182894
Ag 16.843736872103946 13.73223408737602 11.77424563985494
Ag 13.043516239234602 12.312980944720131 11.805133797657433
Ag 14.350700876873821 14.927542232033716 12.196632620226524
Ag 9.830513941565117 7.637742714047871 10.618554310543322
Ag 11.538172287486463 9.789529761762223 11.670221079299514
Ag 8.193434614868979 12.237566927951535 9.779070959559023
Ag 15.201843828515763 12.693754559366313 13.785959804711515
Ag 10.595783778949425 5.707676325305042 12.556813960493944
Ag 9.606438242960904 14.295039959230419 11.144824397857136
Ag 13.868780223297739 10.167428184752001 13.541187305488764
Ag 12.261962782373129 14.688662482354077 10.274351084366032
Ag 8.584522881347624 10.030853490578988 11.530800031679126
Ag 13.820091477852449 14.892630560815471 14.92578759795236
Ag 10.369295507868888 12.100728329264287 12.811360019544134
Ag 9.56271169111214 8.114090101578663 13.419875258499717
Ag 12.587671873393552 12.438645651173296 14.759095641195302
Ag 11.241569506692112 9.993511096786277 14.672446268534305
Ag 7.556201254019803 12.519268967596284 12.484263595562867
Ag 9.0471149331871 14.463381577938652 13.911326556417022
Ag 8.404441568792004 10.465215048548188 14.347034571362327
Ag 11.68809311201304 14.698210557939564 13.098455260438646
Ag 9.979893683606889 12.410318019769704 15.649629314724267
Ag 7.218476276169932 12.809502443546508 15.273663966408956
