36
Energy = -76.25163816 eV
Ag 10.939984446092456 17.434479562718572 11.324000911134732
Ag 13.723882106635477 16.461849343251977 11.163604689620206
Ag 14.09107361600029 13.727956774815318 10.280424876316154
Ag 11.570515263592238 14.844306203811726 10.613054001562423
Ag 14.515621450203417 14.591635901605994 13.011480996020582
Ag 11.851110837777107 11.841973328505487 10.761453361665858
Ag 12.000918052069489 15.996684695525273 13.394898044550711
Ag 14.291979469286105 11.792912134118636 12.4373149687731
Ag 11.99337729357707 13.193051027122541 13.221820655877222
Ag 11.744662064272193 13.380133063890762 8.334256596142765
Ag 15.962843564605631 11.628648781263905 10.25661471529029
Ag 16.610399342330826 11.403208057435519 14.008192650541947
Ag 9.079145399869661 16.002118818248064 9.863834422293108
Ag 13.963138107861683 11.679158345926387 8.29442896771529
Ag 14.604307646653726 12.845680800325493 15.166028110700655
Ag 12.55251468157642 14.588734395522295 15.686832266608125
Ag 12.013154910328842 11.619296801889057 6.243483353704847
Ag 15.841927071731563 9.461021187415344 12.21230724003911
Ag 9.47576598200673 14.963595747650873 12.466362937337559
Ag 11.628664135649233 10.041067302360466 8.524093856569934
Ag 14.212618269347962 10.03632697256112 14.721689762210072
Ag 9.282914500745186 13.275605345578073 10.005645900675216
Ag 13.82273921419723 9.66567066177952 10.278496144978368
Ag 9.565530593745846 11.708250578246622 7.649443998763675
Ag 12.05146629540518 11.801731784982572 15.772935021901501
Ag 13.46422783233588 8.144444005076853 12.655007531037997
Ag 11.72843180487401 10.351970861924242 13.197168389957374
Ag 9.942250026186574 13.704890691953645 14.966695918476162
Ag 11.271369367407212 8.64209022051758 10.902312222307977
Ag 11.777397962330934 8.9975574302085 15.671924774694586
Ag 9.260708859085298 12.168650941202989 12.582434769863406
Ag 9.301093490161234 10.515081147174275 10.210047171246526
Ag 10.917293136450944 7.477757765896163 13.444664000222948
Ag 9.477624896756618 10.937614845210732 15.127241087810207
Ag 9.02744737412044 9.387058241996241 12.754206932554846
Ag 9.082719364246374 8.245710557048067 15.420429660821407
