37
Energy = -115.34585831 eV
Al 8.284152894464443 11.91868262820524 13.917128345007422
Al 11.82411079442057 9.122825247687048 14.287353808992538
Al 10.532220984049289 10.096746990832864 9.687542216734503
Al 8.564075998566258 11.728976712037303 8.500846562838602
Al 15.169391330855898 10.73419749178639 8.538014185554518
Al 9.261350899492955 9.69635692840553 15.26118155475325
Al 13.85503835565299 13.046587605361347 9.522655050959424
Al 11.076535083283142 12.724683461838916 9.439104701156381
Al 7.164671912982226 13.919858648243387 12.353580149833572
Al 9.888849301462225 10.067909696880651 12.526889063018714
Al 11.73927089552043 11.86645573055567 11.90325644512658
Al 9.39238345087452 14.739501181224165 10.492303822159148
Al 9.344270987397799 7.822087242060024 10.873634478524105
Al 16.657717931223512 9.615897639681574 10.529658094328646
Al 13.597850414840202 11.222414345948401 14.057086887606548
Al 12.06355061866061 14.60299197355302 11.377123177937877
Al 7.722236356358814 9.857176265379742 10.319083150755096
Al 10.503527147671544 12.18908709159043 6.780331651813818
Al 11.931295110932064 8.507572462463697 11.563793743633209
Al 12.155188956522641 15.069159367055354 8.791378521412417
Al 9.848834955129718 7.507649601953029 13.496417520707917
Al 13.946343977539632 10.54287379972427 11.008129936471343
Al 12.643954994596337 11.153487428978764 7.852180911395233
Al 14.641750178078528 7.804387120997846 10.74128178219467
Al 9.857385389424449 14.013462793800672 13.071611533715622
Al 15.985682205058286 10.811844554512897 12.87021459288597
Al 8.970765764104112 12.154225073714597 11.174631851841461
Al 12.906893946312962 8.808748580193944 9.050359859529607
Al 14.34717350090182 13.017364153876082 12.195511984134539
Al 12.441225420283052 13.766687491178564 13.933135614119216
Al 6.464176085675888 12.395314414853097 10.00104834869875
Al 6.272231345044844 11.158461399732392 12.329203746398305
Al 16.329141658674413 12.323038534985201 10.554243085796674
Al 10.924610669718044 11.714936823076755 14.64444001265913
Al 9.681559111332666 14.466908019221503 7.880588209553685
Al 7.556579670420829 8.973239118420164 13.158748379447367
Al 14.25167281219318 8.697357975712393 13.224203475076429
