37
Energy = -115.17182797 eV
Al 12.304855989794097 7.843745908527974 7.940315622036198
Al 9.782897027400338 8.823480445926235 8.564851417544634
Al 13.934845759539762 9.87720529498837 7.162862081456342
Al 10.666376540947288 6.34809641709884 9.519640559631018
Al 11.195379185599005 9.707435881722896 6.327739194923776
Al 13.636377334378738 6.7609773132019635 10.075185248945266
Al 14.200581593020942 9.429010191711733 9.739198005220592
Al 8.069208167265602 10.529194295409079 10.02281986775696
Al 12.585753875722792 12.02949551209696 6.599716901933449
Al 11.755584337295224 8.675765889448995 10.58525210871596
Al 14.142103626684754 12.053751764703854 8.960365660117576
Al 10.747837583486868 13.651673173014997 7.416259946660666
Al 9.302354377772387 11.30989919435331 7.577365121950987
Al 11.835882402404817 6.256688488154613 11.975353412744306
Al 9.097836183671353 8.082017073727569 11.052744537880361
Al 13.891763107153793 8.53555429402454 12.254094403153674
Al 11.706721670446795 10.805829950198024 8.934833429613938
Al 14.656214354086888 11.370276837769223 11.625163557675643
Al 9.71809810069337 12.739287564378236 9.810923634000643
Al 11.282424857086093 14.971926581961789 9.63478218889929
Al 10.954247567292883 8.359137265655155 13.198008126671862
Al 12.32482723487908 12.664239521724117 10.902601969372085
Al 10.394417115829324 10.741793276744156 11.490618683300903
Al 12.507391068598983 10.663569221294697 13.184094168753756
Al 8.346710387782531 9.778498994848933 12.96792834355825
Al 13.574859562351264 13.139701081598973 13.324130844613313
Al 8.078089954454203 12.34905503592847 12.01043878406507
Al 9.336344457010082 14.831989922375648 11.509795306122086
Al 12.075315654703028 15.134515256648212 12.161948319116133
Al 10.54845566803602 13.06321168137643 13.262106758452335
Al 10.457452101830228 10.022319142032046 15.062407900580748
Al 11.922887135539362 12.1645905315201 15.44276106492194
Al 8.508540230394399 11.830468024863187 14.718222302735885
Al 12.175350136680258 14.754729942960374 14.925245169335533
Al 7.966870402676679 14.320640723458927 13.819611471445016
Al 10.039490781289416 16.057334457145625 13.860013527418266
Al 9.748207246923048 13.978332386233749 15.904683609092176
