37
Energy = -115.51691697 eV
Al 10.795110774195548 14.096647922116148 14.657786866532943
Al 9.877534173712762 12.668515689958491 9.82080719578223
Al 9.509114390213245 15.363494362237612 10.35120354226448
Al 12.130009775367013 12.918285946682243 12.45304121338677
Al 10.598329765611341 14.57673728894003 7.8753437963925315
Al 8.003389095997548 14.138363848987492 8.306181909377463
Al 8.290571511331951 8.74632612252548 10.008713240732087
Al 12.129813088350717 14.380447270996182 10.014892009068722
Al 12.277548045590882 8.055773381128551 12.1497670075715
Al 13.605688045781882 12.1739848185998 10.221450790784207
Al 12.914609562039582 9.786054573412608 8.841752689871566
Al 9.401813467789976 12.211240863718261 6.932758784798214
Al 13.056388873475965 10.450904697262885 13.313795550382045
Al 14.432116793249827 9.698323849821957 11.073183776828964
Al 13.483369849189023 7.3018173531570705 9.768709507656279
Al 7.590624916711219 11.198162296914964 8.971702652030272
Al 15.057713317556797 7.21358365837633 12.063175421024887
Al 9.365564681243162 13.633018532613523 12.517007644054186
Al 12.200240781990608 12.009254378103881 15.386048486649969
Al 13.76033129825682 9.83105851290504 15.954035812758294
Al 15.00719063984458 12.027329545768486 15.079249504167286
Al 11.415730326749518 10.5694449854417 11.045110190810979
Al 13.76458976387981 7.783773339342132 14.354237184049808
Al 10.8290470587013 7.926774841235852 9.823885878938473
Al 11.93799160527789 12.185435614324975 8.115891811570545
Al 15.050024134414114 12.15355852051454 12.432686120235793
Al 11.263731582595698 8.976374794509415 14.688878157956955
Al 7.319958390713201 13.464649950493238 10.91072629631163
Al 8.522756187989035 11.094237220405153 11.5802505169409
Al 13.558249483119193 14.39586253385659 14.397960777279916
Al 9.67684686310231 8.841095036356876 12.378529585529932
Al 10.121366759900846 10.190334725088489 8.515274865872625
Al 11.52983250621906 15.655756765914969 12.489730701128265
Al 15.741191077662387 9.696058593735279 13.555485455793056
Al 10.303850321251396 11.319111893009996 13.634884254654317
Al 14.176905587853941 14.59137387686909 11.723683584728494
Al 5.6421724587037065 13.018149350308526 8.933494171716461
