8
Energy = -13.71453661 eV
Ag 10.993139880279308 10.110635576090589 7.798729614162739
Ag 11.968147029414293 7.8511592511862665 9.363013684819848
Ag 10.196043285619984 9.572884296337856 10.463324710629315
Ag 9.453792631604612 7.799348899025898 8.375126095745756
Ag 8.37498406903405 10.497542488534787 8.364831313747121
Ag 8.093887400558677 11.11145768060524 11.08293859834781
Ag 7.638286165710579 8.450144147712045 10.409582507989054
Ag 6.8824180708992175 8.207526193628045 7.74315200767868
