18
Energy = -34.66275405 eV
Ag 13.510324232741276 8.958373923974742 6.9799484487853425
Ag 8.862373573072487 10.74611323299466 12.747278222665045
Ag 9.523480037996075 10.714179143727772 9.987549103463305
Ag 9.947184835090434 13.035612087285063 11.627753742147828
Ag 12.046696945459116 12.215005222712852 9.882511276341349
Ag 16.276367736903588 11.139376028584142 12.233037722597382
Ag 14.067123225208116 11.238256229355596 8.285572376665359
Ag 13.717501254012618 11.592961762484498 13.103925911311984
Ag 10.61735794376374 14.92048391727299 13.574095292203992
Ag 14.730046916753864 12.725375972811253 10.553083290957371
Ag 10.624264256560716 13.81495396449851 16.13588119870398
Ag 12.59595646664571 13.962623306632649 11.940531876303341
Ag 11.524468434911206 10.247579572257374 11.900696306598874
Ag 11.136067695471656 11.923974481942011 14.102277618735185
Ag 13.078299448735057 13.788151587737325 14.76242999637977
Ag 8.643807105626962 13.103712468537395 14.227592000615292
Ag 14.113100826549172 9.959844887550895 10.899008100031917
Ag 11.960314334300772 9.500571137147608 9.165317952159306
