46
Energy = -99.30622233 eV
Ag 12.67448543631557 13.09912224942125 7.877616859599329
Ag 10.416827313645294 12.178505747295798 6.451692481452049
Ag 8.490352318230682 14.086851250613284 7.4739989715174255
Ag 11.848605897883736 10.410216853529995 8.184178112293942
Ag 9.095081642193717 10.01838041524567 7.910728762887313
Ag 13.224830134344709 15.834423207623532 8.468189505153074
Ag 14.382795213060943 11.149740751197578 9.084362183304059
Ag 7.333757419562314 11.980569637151149 8.93755502127451
Ag 15.031834823968559 13.853937216751861 9.277300060293777
Ag 10.53309403514642 15.339822012453475 8.829882660547904
Ag 10.528393494191638 8.272573250960008 9.643620869722406
Ag 15.92741666895777 9.230930220827213 10.581943763539792
Ag 12.330469895882352 13.886410741607927 10.580317891482384
Ag 16.62305437545102 11.965624130712618 10.699223323187251
Ag 13.262040721345201 8.691694935227074 10.019708877534026
Ag 11.956140086545833 16.793494160925285 10.783195332662771
Ag 8.719528934558344 10.185169371274393 10.697863221759922
Ag 11.606867189364637 10.790179439908602 11.065466876669387
Ag 8.268024861618652 14.345511634799392 10.303823568642034
Ag 10.141526446954064 12.484115027372438 9.184579624188222
Ag 14.780066667183956 16.274409459450577 10.745154837378035
Ag 11.948401444951216 6.535158696474298 11.477515869423364
Ag 15.019797687208834 13.795814729030909 12.102689406499884
Ag 14.256089093126981 11.058293715234207 11.931196825111908
Ag 6.8797147493759665 12.07957749147167 11.703230781169674
Ag 9.647804147922162 12.523231562592951 11.999631429414622
Ag 7.7686417840218835 14.384024536615515 13.065520537345298
Ag 10.449732981681814 15.156834678922658 12.541362869674094
Ag 13.19773866253252 15.67951768345352 13.013853630613122
Ag 15.847068411484528 9.073001483988552 13.414836200784471
Ag 10.062638124633272 8.356001011708598 12.402324481612869
Ag 13.054003419544758 8.707733642314892 12.847556610357394
Ag 12.333206642785115 12.851469369357126 13.144307397012096
Ag 16.299682972011862 11.840552671959019 13.692590072332596
Ag 11.685995863184562 6.902980064902239 14.394925221348258
Ag 14.31083085421519 13.605130455940683 14.869695056213606
Ag 8.24757419867793 10.515851577938887 13.59007342106861
Ag 9.591379135229225 13.08357650407278 14.735341264664438
Ag 13.965059448466656 10.672636064568342 14.798191300889735
Ag 11.718764614039422 14.85679219988422 15.219527936126084
Ag 11.003632480088822 10.542240864745514 13.88108469517863
Ag 14.196599915616597 7.850589407603821 15.32313600830363
Ag 9.384559706254596 8.341596251381713 15.106137581189893
Ag 11.97155416992425 12.171083206753195 16.056697429081016
Ag 11.916246026489494 9.204534594796863 16.14059553327454
Ag 9.495518630171667 10.812960351354215 16.333030577650426
