16
Energy = -30.41358278 eV
Ag 9.322539816384529 7.3965997799424965 8.674831621965378
Ag 13.145858565486293 10.676371537874418 13.520380578740617
Ag 11.280151847301724 9.281279364843263 8.590918368723726
Ag 12.435688530623404 9.620452182984492 11.085657386516004
Ag 10.997045937621094 8.47038768834565 13.192773299379557
Ag 14.619751886059241 13.525437846367167 9.975084134031674
Ag 7.287693996965569 13.686289022793586 12.601453548831042
Ag 7.990764551179677 11.558667463816924 11.069016520516104
Ag 8.387320423205576 10.045174192279816 8.772486117647508
Ag 9.886501262404897 13.670494772322716 11.906272239563886
Ag 12.490242731370394 12.748986030495542 11.60488444189455
Ag 10.479554908243806 11.695727524873867 9.835353020874734
Ag 9.554759629168277 9.015895950350567 10.96490762570578
Ag 13.17486976624798 11.359727194433365 9.067683454251947
Ag 14.815640730678576 11.174853911213473 11.40602513273234
Ag 10.429817546618722 11.112273737325 12.664710651043142
