10
Energy = -39.62733133 eV
S 10.828375444293354 8.62772409106016 7.8242112888845226
S 10.0795080205049 8.638965670039203 6.064334159761281
S 8.258101871635906 10.770265543620338 7.887463742061006
S 9.376018037454898 6.641011894873907 8.633717229351946
S 8.552326333187105 10.348242410101388 5.978635288668008
S 7.066304438715579 5.875255115880198 11.124918816911414
S 8.461321321485624 6.415750302721391 6.9864712008106435
S 7.599316268807782 7.548239623117041 10.337361324827926
S 6.366615130378268 10.071916646778313 8.603717559162057
S 6.261716005809976 8.058450259395277 8.715090215853186
