10
Energy = -37.23621874 eV
S 13.037925627109976 15.650971794056167 6.781382515635226
S 11.660601523105635 14.468440780940812 7.352998532700006
S 11.449822870598435 13.31583362232022 10.569216020486582
S 10.807891695440809 12.209007834462847 12.0108386040878
S 11.863320606961945 12.08138761253545 13.61558353424208
S 18.567232361332877 15.73803840007661 18.08949224713089
S 13.251189791942446 12.537118606420583 17.507177745122004
S 16.671652098592798 15.393086993569723 18.132528236123353
S 16.02273835394167 14.206609259574998 16.52246916786878
S 15.118897545294026 12.850777570363096 17.869585870923913
