10
Energy = -40.45659296 eV
S 11.309694156110435 8.896727223720427 9.605596226656738
S 7.945234641469558 9.079294510656126 10.388518585996625
S 8.039242843731621 10.118342082411925 6.896669577776341
S 7.25334440561948 7.019666263713934 10.127550131033724
S 6.8952775664619015 6.960306031803493 6.795706228827669
S 6.788466824407799 8.801987845490943 5.888970948233145
S 9.73715646292374 8.946984854959224 11.197480148023931
S 10.490015897251695 8.07921584373787 7.982462026810986
S 9.984799136505137 9.582526845379228 6.579950186320949
S 5.894730641234137 7.094103283290001 8.644472519561907
