10
Energy = -38.98691891 eV
S 10.508165786921676 8.982123341305654 7.505122661672717
S 7.115471415873088 10.071083414678398 10.500770742071209
S 9.360017473868087 5.18524701523766 6.928763620202956
S 9.928333635325021 11.475936248828539 9.729669203705397
S 7.684282900925284 6.129935934177999 7.203639938104786
S 7.013183355993217 9.218117584142021 8.339212974733009
S 10.478887476783873 9.91186105445554 10.70656207031593
S 9.772117995433037 10.755385717000932 7.49212108664743
S 8.387996385037967 8.964553386873703 11.429256004038516
S 8.306827930626065 7.727105995591018 8.517565359596407
