11
Energy = -40.94051427 eV
S 10.715780736862753 6.289436015882886 10.406394378603427
S 11.721217897233812 9.857671435766301 6.975247334700874
S 6.942850797189133 12.047051253334782 8.722023797633263
S 7.4955301537020205 11.302557277948122 7.062474401656244
S 9.798146235430844 9.45651452620747 11.608714107363035
S 11.258117387548273 9.860824303232453 10.410927962282013
S 10.469878412368463 9.373099854738745 8.341784898036302
S 5.956503240048141 7.832203389774336 7.937447769058021
S 5.6723656908450755 8.49012089255385 9.725269547004626
S 10.842049416441883 6.942648750560324 8.617904427990762
S 6.5389453783171 6.006914947246961 7.7188028714698085
