11
Energy = -42.32139126 eV
S 8.90085401861188 7.074574377200206 7.916564688862555
S 10.165618672286955 10.41106210188133 5.311476753547776
S 7.386260088245663 9.188641320202365 12.233725139378231
S 8.344027190694026 9.305521438748537 10.556053093798642
S 12.348513004789204 8.284302974090918 8.04605456071067
S 5.493106217692107 7.976088863796421 11.496721334136382
S 8.21378540879614 7.061134616615791 9.70113504399517
S 9.535997372852625 10.855943461438097 7.093059284054188
S 11.821637382060516 9.653540535679909 9.304617074463057
S 11.11487693779167 11.445688651667538 8.362325503607973
S 5.963836811712407 7.794743880919502 9.626013133571478
