11
Energy = -41.81386356 eV
S 10.503530762013924 7.452787541402691 7.010428402399188
S 9.661998043970726 11.259936182987973 11.417899612378365
S 7.948110583077303 11.831320496153177 10.451411422602044
S 10.767589670104618 10.097849265424271 10.30326819311279
S 7.683302091255623 8.466670177946659 11.21261131481326
S 9.403166449967939 5.972012089242554 8.062801203355512
S 6.660051789445658 9.849455706867317 6.502975607018949
S 10.531006214309073 7.092497004053067 5.122664109003867
S 7.954897210829923 9.437872958067175 7.846420091989492
S 9.552797243448223 6.328294384426938 9.954865006360542
S 6.942610774583406 9.836959952115327 10.100106943182308
