11
Energy = -44.13106338 eV
S 7.285429886322474 10.757968628769543 9.673351637911114
S 6.13096812544014 9.53558737190401 6.6322515271178775
S 9.813567133375772 7.174803555377659 9.920483508011293
S 6.274802850903391 6.891968832676509 8.763252755193038
S 6.474295315324059 6.803384754430525 6.854862192905183
S 9.93488021526694 7.515640553767096 6.629209685259972
S 10.958285103560103 6.7284235292885635 8.267820306374425
S 10.149002912804281 9.13380793131793 10.445404282270662
S 8.469235359913775 6.236325038751269 6.0906851003661036
S 9.170666871340513 10.391435427074862 9.082818364185156
S 5.801993787877369 9.569288042687047 8.525313666133208
