11
Energy = -43.51730975 eV
S 10.224801749004136 7.18488409331129 4.358968629508488
S 10.565723892645138 7.946394093625877 7.95442379748538
S 9.434364434274906 9.27968844334742 6.771982169062557
S 10.185713920250475 8.25087787045623 9.946450279123056
S 8.315252868174658 7.120852674501238 4.500393956316612
S 8.768347067370103 6.843890715857415 10.465972652572638
S 7.853182265713887 10.810471647090752 12.141758168446524
S 7.7174864992091115 8.415426209954763 6.26583077269478
S 7.0442991424292085 7.817785207869387 11.216088450374507
S 6.165304904544849 8.94468650582515 9.848810210704144
S 6.879189447646911 11.043537010491137 10.520420412017682
