11
Energy = -42.22477391 eV
S 5.759627942681069 10.550225208948627 6.150748600515375
S 6.160440310071444 6.525023090885461 10.062530727695254
S 8.903889007887624 8.082149133322316 9.14485444485601
S 10.999019220359655 5.3379096820548915 9.250477083311571
S 9.549608904389114 6.074727800286073 10.261930870460542
S 7.516919822290833 5.475950604729269 9.162929971211087
S 7.17252122114792 11.21399238425395 7.277216490586525
S 9.028296699094568 10.39943027953254 6.494140107791584
S 11.63008575398388 10.201715515528395 8.597698351879892
S 7.272009312562478 8.628416196614124 10.032287147601656
S 10.513253336951285 11.42749215169534 7.592476419577999
