12
Energy = -46.00719049 eV
S 7.136456510800737 10.594826988640419 8.153302948789992
S 11.19356283348005 9.92466447799541 6.59818050395187
S 11.781304785787817 8.754470498265206 8.201028881630037
S 12.670530251355625 8.4731023412029 6.342078510505542
S 8.499326321848054 6.336368669032502 10.493001208056613
S 8.829434069269519 11.781140968715398 7.902716681215585
S 7.666619839435585 5.238465182124632 11.862360646531005
S 9.29839160898168 12.541015964010402 9.75214646752591
S 10.18052635682289 10.934758329169625 10.777625613875271
S 8.730793032643591 10.088467209105238 11.83211510533448
S 7.605590663001647 8.22711875635914 10.542140508864534
S 7.757104091666602 8.675079718719628 8.470449988833854
