12
Energy = -46.9369169 eV
S 12.101565657165422 9.945565421238282 7.8993644601649216
S 10.154805349089289 6.728172868031505 8.72356489231754
S 9.093058770671403 9.585942737116193 11.581346690987475
S 8.3214574700104 7.773202462274968 11.611262846257398
S 7.032498494002315 7.856337818067895 7.973067112039215
S 9.113307756756864 10.143482777743488 6.4821618190702495
S 10.063603661904205 10.68688753752703 8.151120476805911
S 7.376009754883037 10.938815762589114 11.289535613483537
S 8.018992443640553 12.736144665052775 11.562034940397202
S 12.756322215163806 9.313002594950099 9.601074504005338
S 8.460708986919377 6.625914322124965 9.595872327589067
S 8.407187153264854 8.075815186262021 6.6120289738347715
