12
Energy = -47.17889229 eV
S 10.495066256558326 9.368296373279833 8.006853893007197
S 7.475525453288044 6.980680652601702 12.485323435628008
S 10.233386746784394 11.448584132043697 10.75732224559339
S 12.217687341112374 10.320561428905025 8.083940962609324
S 12.0738748134924 12.098607318369059 6.812209378632366
S 10.269481566529608 12.948485011951746 7.010866355719677
S 10.292182082754051 14.121920281633086 8.761216570238098
S 10.658022630068878 6.422137877337222 11.356077042661877
S 6.844726613298756 5.163870302832479 12.585787003421316
S 9.112606233087247 13.107921216618527 10.08693794435172
S 9.448940183949228 9.80913861104718 9.938803658810262
S 9.699474036249114 7.0324225255558375 12.906562705617308
