12
Energy = -47.57708844 eV
S 8.085011632568065 6.076997262260279 13.571409552885628
S 10.214916027198019 6.969916653905994 11.008723191260207
S 10.811767606005382 9.038988597573391 11.42051599354074
S 7.015724127976949 6.686863396853804 12.105912233368835
S 8.381236265491392 6.9831637150483665 10.31128842054214
S 11.185843009538354 10.031238714527548 8.223907337580107
S 10.312410143616248 8.590097073227442 7.061349545106185
S 10.00341375678544 10.162752893554371 9.962338465563924
S 9.044336598349888 9.468547746541772 5.620807781087073
S 7.2550679885560925 9.827219213859518 6.42206418580757
S 8.93403969047954 12.755675061538746 6.025951531482453
S 7.332427384109438 12.063162748719243 6.811847945124221
