12
Energy = -47.79884653 eV
S 6.514019952592021 10.924363994013843 7.931307556923986
S 11.650274627511775 7.9217896292465015 10.646578096162923
S 9.026814188181703 10.120848061617322 10.471694596819711
S 7.724143270793963 9.629458508874409 5.229579422393309
S 11.506861277325182 7.372644062391987 8.632356099296693
S 11.129164830655371 9.876461044348671 10.804595842943625
S 9.089184559149235 10.534619235053494 6.2059595551627575
S 8.14690327145912 7.4042109320260625 8.568218502134552
S 5.929647262888624 9.888149953205323 6.437742669359556
S 9.866211765717873 6.160119812511779 8.55829088362757
S 7.97881639954897 8.933494619964478 11.661791577770616
S 7.262185433646639 7.249175060357774 10.335506992651627
