12
Energy = -46.14330521 eV
S 8.920589455620968 8.958561978066273 9.865591431465491
S 7.268509594335844 8.700245720628898 11.089930780089418
S 6.033207501356348 13.040340536016078 9.627754049487717
S 9.375699312879851 6.741831099526839 7.670324426029711
S 10.65260708690679 8.736012766516284 11.034868162606978
S 11.695831032553448 10.462797262122516 10.85964449099869
S 6.588900043923005 10.507736394197178 11.751550470824473
S 10.452535580829247 5.693082907127467 6.193664915478472
S 5.483321811982113 11.237140229263035 10.040868565289404
S 11.689655096922186 9.935407731903998 7.548777454233158
S 12.885418057517107 10.165676956280178 9.090192776866287
S 11.326694436124711 7.310876181138138 7.281196876880889
