12
Energy = -46.76727674 eV
S 5.196496189768286 11.132242282590198 9.594171650844913
S 7.120158118510114 9.097310572508238 11.266098068717648
S 6.884084432428806 11.216177750641483 8.505022218380365
S 5.293944064277045 12.217972835177745 11.227433850849838
S 8.168809803550257 9.63222785523144 9.75869658280431
S 11.414103359074788 5.815265032281547 9.29506455957458
S 11.428184780695188 6.054864825772082 7.394945321299791
S 11.358065972726049 9.532896307929397 7.831308369582349
S 12.455910675853277 7.579178311015879 10.243975072789612
S 13.05879746836814 8.651918918306462 8.673192740648098
S 9.871769692754507 10.808931117169855 10.51763353792088
S 10.855333328249813 11.297037522476396 8.803234947442698
