13
Energy = -51.48338727 eV
S 8.44925000961411 8.43737433035573 9.967301265820863
S 10.259982283354878 9.902404564489263 9.796492905918171
S 7.130717936092492 11.223722243541067 8.21888625321727
S 6.8815287876261655 10.209132874415962 9.852395091850822
S 6.642539301076829 6.982632635605237 9.778529467633312
S 6.015740116255834 7.087511238367604 7.896817311826816
S 4.8348684606825145 8.868737026506858 7.634781703462392
S 6.02342542790969 10.10712893560394 6.6336847631957125
S 10.889833058484937 9.824057548151192 7.916170194287118
S 12.076326334924326 8.050131836394753 7.629534171281228
S 10.016541445443385 6.672473190127865 9.810147573349733
S 10.89199205045971 6.8338598204535685 6.597394228317611
S 9.77453885240758 5.688374461899619 8.155277454961743
