13
Energy = -51.13051179 eV
S 8.841245743579716 5.270434656224883 5.750634409501224
S 5.137212660256245 8.739595975631829 6.2421018224553135
S 7.563645549236503 10.870583403619756 6.8951389721162055
S 9.742623003218315 9.67737072953941 7.762001580368426
S 6.819431579078152 5.649796636926235 5.878479576399818
S 9.93727820767917 6.271939308528102 7.224468189241846
S 5.918294565545858 4.234921896740623 7.049858630779429
S 6.624893572314847 10.658069016714585 8.551662840088106
S 10.564989341881294 8.016347677730485 6.461677134824468
S 5.641978664935124 5.144292973947942 8.979386250889988
S 4.991735500479085 9.077522105808562 8.115292305803683
S 9.027855091167636 8.996780109024801 9.394266757968765
S 7.33193559012195 5.53546457905667 9.83815059905693
