13
Energy = -51.5998885 eV
S 4.586763583086056 4.102914731090931 2.496598496069594
S 3.4654787327217456 3.6191173413698445 4.142264985640222
S 4.468663320424685 1.8977764918634623 4.918466735331477
S 7.432793406059165 3.2772909069349656 3.889007363449436
S 6.318705227524993 4.964154499580518 3.168528912040428
S 7.445230132993912 9.408661136717546 6.7593614612112365
S 4.661941002819732 8.448442097192812 5.105680650664751
S 6.9045979659329495 9.034961467409552 4.964403561829724
S 7.405588417864929 3.3404788117296236 5.861629487628651
S 5.451996137632687 2.467976699852695 6.533013387079571
S 4.331142899095159 8.59018208055503 7.033341863839168
S 4.931403344102485 6.590321049638603 7.825939814121137
S 5.035057597208803 6.697084453531399 9.741125048561763
