13
Energy = -51.26857055 eV
S 6.9498958703335205 7.7239598706786285 10.975119073465393
S 7.954561096747844 7.2522346558673 14.093974026964181
S 7.249107022042751 8.428355381142017 12.742618867872848
S 8.725768832873822 8.82940648264007 6.745838043875215
S 10.386223139439766 8.32865382943471 9.780975999357528
S 7.1998898391543875 11.132737167868438 8.672262739549275
S 8.225329039435465 10.935540405015116 7.0012043395488766
S 12.028174491681884 8.142839226587295 7.8806926880256665
S 11.225678044546695 9.908718247611162 10.527003609263708
S 10.62744265965239 8.696948187603635 6.179957690463156
S 8.566094302762844 11.978263547715937 10.240615173593811
S 10.406938827264437 11.715964867615519 9.573701739521143
S 13.164912164513227 9.628604169761891 8.29565609813532
