13
Energy = -51.12722441 eV
S 9.9254455 11.583849393849615 13.675071593150951
S 8.233941339383009 8.247218927184981 10.011365560937355
S 8.233941339383009 11.603672072815025 10.011365560937355
S 7.561001087438909 9.9254455 9.016933851122923
S 9.9254455 12.322338260486497 9.07062124709597
S 11.61694966061699 11.603672072815025 10.011365560937355
S 11.61694966061699 8.247218927184981 10.011365560937355
S 12.289889912561089 9.9254455 9.016933851122923
S 9.9254455 9.9254455 14.654517906924863
S 9.9254455 8.267041606150382 13.675071593150951
S 9.9254455 8.97555382337358 5.402779131229856
S 9.9254455 7.5285527395135 9.07062124709597
S 9.9254455 10.875337176626427 5.402779131229856
