13
Energy = -51.4314004 eV
S 9.091414624141027 9.10623487130545 12.088906655316075
S 7.810178620196738 7.514039620355496 11.632648890730833
S 8.379694472747246 10.898680320475252 11.404783767127993
S 11.216654180514903 9.072116726153295 8.656759904938495
S 10.819400287158027 11.014666145989297 9.114552929548976
S 8.704101520334214 6.417307188526454 10.176665657739525
S 8.766069862511294 11.04323411775924 9.36772327372202
S 6.05021702613699 9.894334432768868 6.987249315996363
S 10.940296730868537 8.943637874618947 6.520915878695502
S 8.153103212095072 5.191595034243548 7.241138562811661
S 9.246287115040365 9.907902366759652 6.138209551235612
S 7.528962879757306 6.638642882044546 8.348754318530979
S 7.423484644764964 8.638191888530182 6.488768335320477
