13
Energy = -50.70506102 eV
S 11.175653881279807 11.605904892871633 11.673458377579909
S 8.527386812529436 9.90627930389726 9.988112
S 7.346918894068688 10.978551274921688 11.471488858653707
S 7.346918894068688 10.978551274921688 8.504735141346321
S 11.175653881279807 11.605904892871633 8.302765622420088
S 12.335328412332759 11.829199569558423 9.988112
S 12.665433739042998 8.085833849747745 9.988112
S 11.411707508166966 9.652004433961231 7.549652723764288
S 11.411707508166966 9.652004433961231 12.4265712762357
S 9.840479791246631 8.55305766307445 8.065930961971116
S 10.89894865404453 7.394285900493636 9.988112
S 5.86883793665253 11.050820550771377 9.988112
S 9.840479791246631 8.55305766307445 11.910293038028879
