13
Energy = -52.25499861 eV
S 11.56547577772882 7.34781891014812 11.855062320537751
S 11.803126075433465 9.70591170889368 11.36106401664312
S 9.617292668071633 7.299167260253169 12.020935685676466
S 12.61478336090457 9.625465869975747 9.007792016501496
S 9.998171844859684 10.24636233950576 11.118548012944668
S 8.56662816597145 6.368254709042787 10.330409665881556
S 10.534294381003189 12.003969586313593 7.850187875227616
S 10.902618888081241 9.863565154565975 8.138101299815379
S 8.24294994618187 7.598320629927993 8.80466508744655
S 6.560314910312891 8.823483510376777 9.426734518580165
S 7.172251501433234 11.899538497380178 8.08575185391061
S 8.828658728557421 11.937088399171653 6.785030170502884
S 6.227858044293581 10.051122606415248 7.865222588995702
