13
Energy = -52.91565416 eV
S 10.72755422649473 7.67345498749274 11.108821928631667
S 11.785116063805086 10.197169324443868 9.105779716895
S 10.270471323302159 9.518236323661194 10.232742376194631
S 10.214001948751608 6.192219486000953 9.760872567887294
S 11.566337249225871 9.313864154736502 7.125228711972898
S 8.26604393106506 5.5725237004921535 10.005701037550256
S 9.635132415912537 8.817986526884887 6.89191660190076
S 7.092205038421637 6.529381239577632 8.580493776441537
S 8.507524799762255 10.401092577519238 6.112840318570501
S 7.808488643431323 11.523554433467776 7.699866620990703
S 5.675572708534394 7.693312708731823 9.526371329703494
S 6.305638475407119 9.604769901649872 9.989589650193558
S 5.978504089938261 10.846697158752441 8.355917250649599
