13
Energy = -51.89797221 eV
S 10.29875883330025 9.55971778188595 9.913441076883792
S 9.444896092258556 6.413975619574011 10.661218840429093
S 4.900091013812525 10.138719645629573 10.163744977939594
S 10.97916349706866 7.76240820689377 10.723225549189014
S 11.476319653711393 9.969237863239629 8.270902672344182
S 7.336906949402085 12.240710173839684 10.94577629767738
S 9.349158042876088 5.635492929301864 8.71777158983338
S 11.00139139046195 8.847319975100374 6.611347739053732
S 6.7145692367743735 10.741894887519383 9.913432310625035
S 7.42178541423387 5.920186420182066 8.05878962590084
S 7.009049722712943 7.860976185629121 7.513431307152718
S 7.874381442291976 8.171826839140497 5.639071352349911
S 9.249760576604308 9.66889889838954 5.808578158908431
