13
Energy = -50.41796997 eV
S 10.045450094256037 5.89938841231091 9.418852036021367
S 7.457885964139133 6.693036780920185 8.251872566820575
S 6.756510268652261 6.339977446646417 9.980203804116005
S 9.049472305328381 5.5893780910967275 11.006196590527754
S 12.922282391948924 12.333533654422288 7.222526292509817
S 10.765371627609563 9.599253860113528 10.749038941571635
S 9.03324993410886 11.464371113381292 8.604501791931929
S 13.725251518918181 11.530662164180113 8.747085797856556
S 8.811918343870813 10.191377486625507 10.097612369262846
S 10.975280958198217 10.60334213794968 12.51958655314074
S 9.413810967542547 13.484682897023909 9.504920299618938
S 11.323797775367497 12.571687157494093 12.074350940707234
S 9.389298714441555 13.265589947708985 11.468436923527555
