14
Energy = -55.18074035 eV
S 10.075565015023233 12.780297967826527 12.691135977368164
S 8.281098855809809 12.473197435526787 13.31954639279796
S 8.031897806352049 11.309941717372745 14.836465224919497
S 9.360420359330242 11.782937940981583 8.505037264272142
S 12.327978160712592 10.509537138745703 11.155588261436124
S 10.420462134487678 8.786364517370908 12.8769126641737
S 12.503079230634988 8.76256063534787 10.410368275348256
S 10.977551955701333 11.430153007791109 6.992787273936496
S 7.927284753251044 10.470474239223863 8.154740190721894
S 10.424701055376552 9.909293048061675 5.861479373294834
S 8.495762869578023 8.6300669887952 9.102012593283941
S 11.154515496977547 7.549726919317522 11.623932201242345
S 10.90682079865908 8.101751366808648 6.905603574719561
S 9.062783692641409 7.4537358250680645 7.523688762616184
