14
Energy = -54.09316817 eV
S 9.707340561661844 15.68962341859325 10.210745499962444
S 7.6550448724504 13.103101115952086 10.243125226175925
S 8.728254908107962 14.371862572098925 11.224758053419123
S 11.722747532692951 12.405148385883754 10.73062015272032
S 11.606275727834348 11.03113511144822 7.644679927483066
S 10.522662788104771 11.593310759918968 9.452622685511079
S 12.729548803733206 8.050175092952179 8.58131990576859
S 10.61242604912409 8.700863403705828 12.084207473906122
S 11.195130535166532 9.086484930746376 7.406734126155521
S 8.732501969858026 9.622090864746284 12.201622595125622
S 8.259898970686015 8.75279837307959 10.344221888136953
S 12.0707474694462 6.287590813170911 9.001456980144633
S 10.114039707424661 6.759601821420545 12.115800872380026
S 8.289069513091672 6.811322154627243 10.818441107449704
