14
Energy = -54.72436521 eV
S 10.33851808910347 12.002696677261584 8.660605710682947
S 11.898900393477874 11.923641581225922 10.23660550126955
S 11.206210089781615 10.744066529777161 7.213812573906301
S 11.279420559162453 12.963513127987959 11.7169768883981
S 8.722909440837563 7.038816872012029 11.7169768883981
S 11.125047303340812 10.131814833502977 12.975920747628548
S 8.877282696659194 9.870515166497027 12.975920747628548
S 12.444892390452292 9.473995119764975 8.009494055087716
S 9.66381191089652 7.999633322738423 8.660605710682947
S 8.796119910218392 9.258263470222838 7.213812573906301
S 11.69580851714643 9.632881666375294 11.194739818900326
S 8.10342960652213 8.078688418774087 10.23660550126955
S 8.306521482853583 10.36944833362472 11.194739818900327
S 7.557437609547713 10.528334880235017 8.009494055087716
