14
Energy = -55.2803467 eV
S 11.19665959262242 7.563432118943037 8.787027152271513
S 9.162906555483444 4.390374976246301 7.9833689400455246
S 9.496892815773991 7.116820484236183 9.96315488404797
S 12.252895277876389 10.477476182281132 11.02185919660394
S 11.619016889284834 11.016855917381115 12.892757394597542
S 12.59728946594097 12.139480525614585 9.880342554503544
S 8.243407352684645 5.923597775905414 8.70875004308354
S 10.793374733984963 8.774840034953876 7.335129888023609
S 10.902877576729148 12.516378365257673 8.65684894495665
S 9.497005485109794 10.897391221378946 12.99811320970867
S 9.779795282993026 13.906583773613281 9.483587359609905
S 8.507231779866792 10.787000253750922 9.93440903692594
S 8.083594508187163 12.567919112283727 10.462667058393961
S 8.696553041368023 12.678726841770725 12.756962424331634
