14
Energy = -55.02289975 eV
S 7.76526528374433 6.819454535733673 10.174560280624453
S 5.626402549347686 5.8752900150867555 8.717387651460534
S 4.861559228175905 4.711945764913942 10.029289578094529
S 9.552180009797382 6.690625085732241 9.504178122738546
S 7.0537719899334705 8.915873209845168 10.204554690181752
S 10.23583496297294 6.966325724358658 5.97076340641211
S 4.406589469508264 7.888917589219737 8.59641391225109
S 7.863491597459927 7.481059497991505 4.709820384493064
S 5.32411171983195 8.935723212269629 7.290682641893168
S 11.15336403397228 7.912022021029628 4.6121810227010585
S 5.203609606250611 8.575977927871634 10.751105532336702
S 8.82398513877917 9.180317646694352 6.59082880175306
S 8.79796604152709 8.430992186250153 3.366535877577005
S 9.736101515975324 10.165367021786272 5.258424180778608
