15
Energy = -61.18706636 eV
S 9.208045361530298 9.931699780689533 5.195893392812912
S 10.491230069270648 8.10743200490842 5.442017026218548
S 5.599309629173434 5.675424655834422 6.9892243505376195
S 8.367757356126246 10.300636286722682 6.941481510559626
S 5.503846853295486 7.72413367031548 6.757444985264841
S 10.361211628650468 7.559022548407179 7.335379983002284
S 7.491605823347787 5.14824331425051 7.620508780017586
S 9.765489927842768 11.407931099416404 8.13190456800022
S 4.647620488438906 8.560939106649933 8.442048297073162
S 11.710345949078725 8.766220611728084 8.479172483758191
S 10.423421006159783 10.01119074082618 9.477815620614555
S 7.498093298958732 4.94435354166965 9.675895676336033
S 6.127260462998164 9.24527453055095 9.708589967074625
S 8.161734277286746 6.691605509222302 10.55219640543346
S 6.534739969041374 7.81760470000829 11.142139054496367
