15
Energy = -59.4094968 eV
S 6.904853836651202 10.608130856445644 6.148475021403819
S 7.73898602304433 8.021874982597373 5.413206623048111
S 9.37098467324006 8.34609588034634 6.3449035338056765
S 8.561773066088213 10.8533314899475 7.05804267158583
S 5.392787805984751 9.852302186605835 7.692865554401111
S 9.202162880414626 7.489321153416032 8.43961931320612
S 6.546574014876141 9.320777554140326 9.184731658067198
S 12.653653458869517 9.031997188447235 8.845521975849552
S 7.262046210187469 7.2919214282974085 8.692649078119036
S 12.545721902856782 10.787868983670677 9.598552755097536
S 10.268983627477635 8.00574768770388 11.850331691932928
S 8.492798253126663 10.758161892212183 12.23574310655494
S 9.129214497389269 9.18436984325565 13.181467194562591
S 12.407988600141975 10.567838505088572 11.870185431078085
S 12.259929076952789 8.618718295127186 12.182162318589295
