15
Energy = -55.28225485 eV
S 7.7772598080337065 11.488646944439491 8.210366996967997
S 9.67452816195369 11.170732965017281 9.009108665063165
S 13.746055336202767 10.231209864845836 10.677369905651041
S 8.366954136373238 12.467910698217139 9.961549711469031
S 14.631834282444359 9.160557997065416 9.373926175249036
S 16.61272572469438 8.835529168845111 10.28799688048343
S 9.099831233871658 14.244092214821299 12.406824309917916
S 16.47059540909643 9.783619911632227 11.932630483630907
S 10.581211143309332 15.001225080604511 13.332221459917982
S 17.148089333853182 12.57426517341415 14.682891775292466
S 17.25997014430729 13.66011595467219 16.26826696424744
S 11.856735600656757 16.39861924755247 15.965601890433186
S 15.734875461699803 14.743846231927241 16.767694931224742
S 13.33699634289678 16.498246702979593 17.418300494044935
S 11.609431300252444 17.64847526361173 17.6123427760524
