15
Energy = -57.7172599 eV
S 9.604428780397694 8.63935053177407 5.732770735607325
S 8.237080801391643 7.606334520566568 4.901050218548085
S 11.560107783034058 7.845900407451802 10.838635723873313
S 6.589151294887254 12.133914050039193 9.42527362278489
S 7.845246468508784 6.374654638345476 10.617822733416478
S 10.83187226649346 8.752029473933645 12.532532442030703
S 8.602269449847485 4.941093776188545 11.612450736346803
S 11.310848759037114 11.766715558525682 11.480366825560278
S 11.369136525877593 11.997865355073788 9.520012696279926
S 5.95473787623396 11.240823713647128 11.009503144640592
S 12.376957042665762 10.195032310779167 8.658158292163947
S 13.115006102636974 9.144905817196967 10.169968081137446
S 8.564747801541435 11.824575094080787 6.781664179944763
S 9.742893284669288 10.375879529823555 11.939995759496226
S 7.980575901600927 10.93465816541176 8.387333657349677
