15
Energy = -61.18695993 eV
S 9.370037642197154 7.975497490643126 5.159171146544881
S 6.096215544618744 8.249925755866167 4.800830748034471
S 7.610914490500922 6.9205483162718755 5.174256405722165
S 9.329929803571657 9.008675863597377 7.02987707655767
S 8.893376480866273 10.901149170110825 6.664691594376521
S 6.664334910859256 11.063044749105398 6.494484352838263
S 5.903097756788076 9.247497876605108 6.678614043580176
S 8.888679925509514 6.071164159712447 9.161491227480322
S 6.968536212772011 8.74049156937151 9.988977596810283
S 7.175945133677871 6.689781301649783 10.136854842899801
S 10.436626056604506 5.917415198540235 10.518183362330287
S 11.565520427207652 7.646179066390554 10.462700396295794
S 7.721639311138984 9.638134863707613 11.68570201244253
S 9.640956354096208 10.28801833965355 11.290514659149382
S 10.983050746597373 8.891337075779859 12.002511331943483
