15
Energy = -57.56477398 eV
S 8.444274515242277 14.218773419145478 10.594751596652975
S 7.755842627863192 7.760508649553174 10.60370835729412
S 14.407250511118846 12.191129221309273 10.789817415472825
S 9.073919190200593 10.719107177390397 7.912476106734573
S 13.288497936131762 13.18093237224211 11.967108609991984
S 11.459614127198368 7.604762348056895 13.640334074179593
S 8.206523133135782 12.902186479898871 7.643684809322842
S 12.350400082054865 9.564335582925946 13.959676547000772
S 12.198618388419902 7.047173164271364 11.829817427553733
S 11.485986507971182 10.344940820364284 15.494951000740508
S 9.81204156579468 13.957103383177586 7.501887149035619
S 11.087083492934196 7.939958134693259 10.339179718552186
S 10.958465231872186 10.922240456004317 7.67417102305712
S 10.021982529121228 14.809936022252607 9.700598627806002
S 9.334699521482532 6.70976559947913 10.214999391021038
