15
Energy = -58.79129693 eV
S 8.345402885155005 10.043566334155965 6.309634310177767
S 12.297388993865843 11.071876751903952 5.788826573607143
S 9.427296405516913 12.116902454021787 6.460714026426763
S 8.618885530288129 9.176002404369946 8.030468479646967
S 10.356651324142426 7.840112701219097 7.806567490249895
S 12.42140668134098 11.344670718835227 7.671803591409121
S 10.233748854803702 12.15857679916463 8.200399314761384
S 6.730858236866651 6.428133890808039 9.204631925365343
S 9.769947544227945 5.695050855202885 10.361163921625229
S 6.647540397731649 11.196962021235848 10.95892034444521
S 10.886030923129256 7.441395686874213 9.680242501983521
S 8.407573552733902 10.999149827533486 11.712618305099339
S 6.690503201800544 6.845581599970807 11.07344022167214
S 8.717145332561447 6.246674839413288 11.934034060854787
S 8.68919208670955 9.63491506616532 13.046106883550038
