15
Energy = -58.67978044 eV
S 10.950187937609043 8.070407705297466 6.106014740279577
S 9.643146832594923 6.101724367416408 8.557388875649528
S 9.858429654791953 10.635519444182737 8.02225407899637
S 9.807424947902295 6.187550576754052 6.65332278035816
S 11.149674753684018 8.993680564041215 7.863897730835309
S 9.482943066375784 14.48900704244233 8.710198404755157
S 7.95661818659561 10.17930788096111 8.739870805353029
S 10.932735188974615 14.72078697565798 9.920590223824725
S 8.001515450257575 9.73845577529454 10.70471148569599
S 11.754370945642698 10.851287037828405 11.812472455382737
S 11.558986554283827 8.49663541439967 11.420345068212942
S 8.443837045971716 11.687178979416094 11.61422117799737
S 8.823170384224579 11.347883875138617 13.494922699875326
S 11.11903879415658 10.946315910220113 13.6262922486458
S 10.826945962471754 7.863284156485924 13.062522929674538
