15
Energy = -57.67071122 eV
S 14.679916102979227 10.533193147329964 9.638860497546606
S 12.958982086441447 11.507716367093662 9.278361227532914
S 11.535845833372036 11.076535428745457 10.886722217480935
S 16.09531174608653 11.860200074326023 10.461838979188366
S 9.832285587987204 11.668134158710885 10.20219997475609
S 16.77615914310916 11.010483944568193 12.222698610503802
S 8.716323926748409 13.287514547807486 14.065829562790896
S 9.754873768016362 14.854143465745361 13.70302027531647
S 15.865805180101331 11.795513461137231 13.86256353657468
S 11.920195062949745 14.47364408635478 13.830791853015441
S 17.178190625007907 13.501086092115196 14.218303964304479
S 9.965497765644509 16.165648815586348 15.480336684933421
S 12.114462436557249 15.742359628580619 15.642171999421382
S 16.65713333592978 14.364040252161235 15.86160812045552
S 12.518944804612277 14.729713935280705 17.214619901721722
