16
Energy = -63.7027506 eV
S 9.393517693235168 9.614231646028427 12.910432782586264
S 6.353341610486616 9.272925229187203 11.434583180716647
S 7.270973406595283 7.559552484503258 11.292468800120739
S 7.82335631801147 10.691025621451551 12.472456434430427
S 8.318716240873094 10.928615158115369 8.811796177045432
S 10.815238482911099 9.612231725587648 11.240595155670979
S 6.9407968603189 6.849895428493921 7.7889322742007705
S 11.213166614124479 11.490083131688854 10.762419056707056
S 7.100941858838539 8.439541930741699 6.573882468591545
S 10.012134503931492 11.798008520110619 8.769419970999563
S 8.552956685018174 7.223290883464826 9.331695069564278
S 8.542096469927573 8.033200664733434 5.094563017645811
S 11.654690833040746 10.442348697731534 7.861904630273094
S 11.199922522743675 9.985713657174193 5.966908211533
S 9.323423954116523 5.535920888895551 9.821923898140511
S 10.40551954942779 8.02463557809346 5.9204119154862145
