16
Energy = -62.93865652 eV
S 6.44074999561619 8.083094529792886 4.300958549591741
S 9.72239999483672 7.668740013710778 4.649318345327716
S 8.365083630790677 9.007056364364004 4.168078789737795
S 7.831455031920729 4.574085502960019 6.602229172118523
S 5.263953100371439 8.855627289261642 5.786513111257192
S 10.320556165700307 8.463173321163179 6.841359840055336
S 4.823610608689106 5.932906285622521 7.217682049760361
S 9.300734875887265 3.7937269166437444 7.630602363151925
S 5.545413919151508 7.917757465284207 7.5895233267131115
S 9.357608357252376 10.111554746993113 6.990656787470893
S 6.147608601246938 4.679562868836904 8.023138452747174
S 4.39586749720014 9.290022731395082 10.942251299052325
S 6.213399919928702 10.053617048008336 10.284079723464126
S 10.21425703389025 5.550066268451401 8.827609633649418
S 9.174199929656702 7.122580021177585 8.328975104982451
S 6.11734516898226 8.130672457456324 11.051267282041495
