16
Energy = -61.23521634 eV
S 8.986115130472188 7.748659461483464 4.141597105279095
S 5.282763752212394 6.8978036384949055 6.41356455300288
S 9.95679770692568 9.257100103986238 5.103160067316667
S 7.620232569418478 9.284429827002631 4.087066437200505
S 7.438542064478394 4.49643195243365 7.262491840156897
S 4.560304871925183 8.215132638050802 7.702885686449585
S 8.880517319469059 5.73127434375648 8.17508375399817
S 9.571928409793504 9.156163139837615 7.148210528881624
S 5.522203361448946 5.0867019382398535 7.524140965475403
S 11.534908374002345 8.621143304054394 6.569585042459279
S 6.356939550394381 9.314649712138605 8.822895597805502
S 6.264580751883227 7.451947506606474 9.960088778436154
S 5.629727660448581 10.83308365781653 9.716086572862944
S 9.241282780007719 8.955078592178033 10.25652263484148
S 8.981325051228305 5.488485222704985 10.168280238904144
S 8.200906076822235 7.490990392146066 10.977415627860834
