16
Energy = -63.03897686 eV
S 8.211549115936883 4.1270016965257454 4.48359380253642
S 6.3484888175523855 3.263855051835375 4.785896287877437
S 6.552018896412534 5.336796586998543 4.802302926608564
S 7.535604271104891 4.673752578130447 8.559977870501976
S 6.564153434897808 10.03459242112181 4.606863682978973
S 10.249868161323109 6.264062676867242 7.560529050773148
S 3.9913074173938994 7.923035729483121 5.1565895805153925
S 4.487909644062038 9.935579373142197 5.165527745923173
S 3.522885233824445 7.420805661259123 7.061251585557261
S 7.6051428135398975 8.553863988709445 5.434240548012933
S 9.478905799458762 5.398906795968502 9.217326395897437
S 5.527603916438384 7.518461212289506 7.963375158516854
S 6.208023487128239 4.9225341732339425 10.004469355743698
S 10.170736265046013 8.390591860314448 7.586480927698494
S 8.252885020246767 9.001225719494306 7.467745842743337
S 5.468322783461366 7.020598029453269 9.865320870405277
