16
Energy = -62.77310107 eV
S 9.342370819726819 5.585530218447154 11.053595713152083
S 10.466414549910693 5.543440800094127 9.103753781193424
S 11.530243268141083 8.549551091418426 12.715523136316868
S 7.932452831270504 6.913560703146859 11.040794836538401
S 9.457700828932811 6.753478206271394 7.873344379489088
S 10.249347835554795 9.557993589368351 11.694692774711093
S 8.188908302618149 8.85770346158308 12.451283057928766
S 11.516036280444816 9.636057553430982 8.28296353038855
S 6.736405808468473 9.948300807223516 11.83311488114038
S 10.763599769296981 8.231272809526814 7.052887238561075
S 10.293640670559217 11.355401796460162 8.704888657761979
S 7.024230672417372 11.020641671619682 8.07580292039112
S 6.888726901019308 9.009600820915505 6.7480009979154945
S 9.96822229653879 12.453348583601446 7.09556201510977
S 7.433259283520211 9.634977056872842 5.032463348795392
S 7.692774201190627 12.237589199874732 6.742520958746118
