16
Energy = -61.89576765 eV
S 13.263260879071638 8.64865360861212 8.509246938764138
S 10.560959807505876 5.967979596410886 7.232752666541676
S 11.411588868148625 6.530800891389915 10.794487663588262
S 11.654164060582334 10.131746230922978 7.86414260843805
S 12.892936875057528 8.321016044919938 10.392409684514854
S 9.704532984180625 6.46031516837037 8.877019088475171
S 10.547092116950214 7.006092730522334 12.432598501589355
S 10.316832737985811 9.915796099057204 9.31885718555603
S 9.114719330415713 10.546549625959821 13.028959318225288
S 8.879622488031186 8.488787440421781 8.84382131882433
S 8.976052932928278 12.755145869090452 6.410913262656576
S 6.674581720348332 8.32349365585631 13.099242196407669
S 7.399635289002028 9.956771020547363 12.377642241145246
S 8.324360344874519 14.439492777736351 7.011260800768726
S 6.963628195933212 12.053310976308175 8.717607739448882
S 6.928230963064171 13.956242649221924 8.607299477519556
