17
Energy = -62.76320408 eV
S 9.50194625494053 7.032904235569695 4.966851393917198
S 7.569243782672019 6.239536238342969 4.5107730923008305
S 7.3181117564529705 9.076885245885187 6.179778288246278
S 6.530331917443695 9.11830200896695 7.93074398928855
S 7.886056479747969 6.059721108900586 7.733383682112668
S 9.8088432635035 9.205403012570763 7.628637943336411
S 9.123591218354823 11.641304190638879 8.078681773930763
S 7.652207766235226 7.60369731141819 11.50211731667099
S 6.517265052133009 7.0041290456043495 8.723519553928762
S 7.7760682929735765 9.923492521706283 10.86245074196691
S 11.056555107631235 12.274549266657361 9.702649744644974
S 11.41638098200974 8.4791969913693 8.631463972719464
S 7.746463914045685 12.045949350420207 9.666345038426181
S 11.226234425001904 10.856767059790982 10.905190223964182
S 9.069446705038722 6.528086170478545 11.009407885021503
S 9.538039475008528 10.18942924176476 11.999454773819053
S 10.866165609756266 7.330157283957065 10.565382462383498
