17
Energy = -66.97838943 eV
S 15.273692308433766 8.374418353380646 9.705029192822893
S 15.52706579297135 9.039831977761546 11.890171885827652
S 13.893624702346525 6.505068374159864 9.912485414120985
S 13.766329401426367 9.995380454357992 12.164316967939644
S 14.182780312590243 9.709822305720754 8.887474385907083
S 12.128203043494606 7.4614185830514765 10.092800101807017
S 12.574279985622574 8.79356775636331 13.274303525496297
S 11.481588720197385 7.372425034410889 12.010144428400803
S 8.191486745009064 14.984798197442416 9.10294237688219
S 10.517920754433204 10.985990042166593 10.291143519567472
S 8.145049530329315 13.103091713196454 8.318793924722792
S 9.077005868082578 14.709978757226347 11.06517854549213
S 7.371707123669034 9.78815993832582 10.791697642032824
S 9.24280078461494 10.445312077582248 11.640989791652544
S 6.310378710278522 12.209747542638016 8.679346346042143
S 7.789179742838226 15.04785184923147 12.467351553033337
S 6.264757289125134 11.496173253734332 10.629191995494311
