17
Energy = -65.5534636 eV
S 14.119631219932925 8.354673992954314 8.367480635823531
S 13.017007322664204 7.460521452702695 7.048834499569586
S 9.474825365591167 7.011717458759798 9.62803199560612
S 13.54966319243356 10.082707612874497 9.019116641034909
S 9.767414981789141 9.418109523641787 7.3279796750098685
S 9.04104291112657 7.496918745922159 7.71126316545077
S 10.578389856425991 12.685524469461543 9.065074043725668
S 10.761371064407175 11.867081355928754 11.449244624356158
S 11.515690211483008 10.051167223301327 11.4235640810443
S 8.181271256480523 10.684161246550332 6.9302218748406625
S 8.950209025459518 12.06943872665708 12.149664466361534
S 7.485997151951215 11.503289713023461 8.660251426757474
S 8.71463988561273 13.232652570472403 9.045867841217596
S 7.646100910966251 9.455431205081405 11.600602287801175
S 7.6456402972134265 7.090674955071621 10.866944373427861
S 8.077049280199004 6.005918220354828 12.395296826832341
S 5.786291682015444 9.875983033294355 11.77681563633571
