17
Energy = -65.54473783 eV
S 11.119411793295702 8.235254579196921 12.038892023911421
S 8.922975334051833 10.255850455763797 14.067284352065947
S 9.21538420769178 7.665468483006632 11.722280489605144
S 8.367341218979853 13.501542751927685 12.142895468470416
S 11.55395973620246 11.828478612585497 12.274588214548668
S 7.941774205293007 9.39736565757658 12.676476563227602
S 11.955363641331322 8.963157818504563 10.363008964591842
S 7.29041025526241 12.4061638049535 11.008490088378755
S 9.799290676799405 13.604696898120599 9.115384716119094
S 12.280874252470618 11.264199020227345 10.614378348059446
S 8.14168851434663 10.422316327410764 10.729973075556732
S 8.018249654438923 12.802956975263267 8.729543305653406
S 11.301831543789342 12.283726355235013 8.753180949787675
S 11.88486583742415 6.69827649060387 6.521939677628834
S 10.251998564159761 6.699729937596916 7.970624491040996
S 10.615945367652262 8.437657454073468 6.863061889401361
S 11.609231570346429 5.732279635452183 4.905423578292983
