17
Energy = -67.31551743 eV
S 12.247364863830583 9.651301576465562 11.850025585277068
S 10.273288506920464 7.879099385546056 7.982342493444214
S 7.346527579606536 7.5407626584902605 10.629880777189527
S 9.911492816817107 13.339765495181547 9.683390312320075
S 10.672070316888588 9.201326336338617 12.921433253894467
S 12.512062164692084 7.7164582695601736 10.46813325204601
S 8.943936775870345 10.214361872700213 12.091039357361456
S 13.095533663848265 13.282545383233593 9.189557220369123
S 6.003576814168489 8.122517980302769 9.293840969162359
S 12.059613502950734 8.603433327670247 8.176846139029925
S 7.422481913550428 8.920584601139216 12.277179345351708
S 8.92893324170537 9.596079928260728 8.488116694666697
S 11.297863761808589 13.122897895390956 8.12532097874294
S 10.940419376620788 6.691874320248317 10.768981669949206
S 12.727257912167607 13.53344413085922 11.073385968698402
S 7.187851240459259 9.187770252457026 7.6946279681498675
S 8.127012328094754 13.093063019989057 8.98318462126398
