17
Energy = -67.16345368 eV
S 14.650213438043462 7.720464962925826 9.465826263512263
S 13.747717478351035 7.85047211423848 12.507900161814122
S 13.58612082145484 9.725231627729261 12.017845941764676
S 14.032502405810234 9.524921491371606 9.61373109084074
S 11.874902095041586 9.370325929210463 9.023761221201491
S 11.982267176445339 6.658917033211468 12.043219131625179
S 10.335544290541877 7.214804437911367 13.103412267911118
S 10.457536044900975 11.113524381258255 11.506023085506424
S 7.829310728229687 14.099353076225896 9.182189764678835
S 10.91253952476211 11.092020633269348 9.453492196942781
S 8.744847202731947 10.08338458873351 11.940392891522603
S 9.039771114782091 8.035479241096432 11.701987596763887
S 6.635255508197323 12.357846668578084 9.632000760068891
S 9.105341226215083 13.705533207800968 7.783748671468344
S 5.522402130478498 12.093539033542497 7.972616915841164
S 7.364865666413096 9.266374583803895 7.664769550917351
S 6.615045156971353 10.736005049574123 6.6758292151068135
