17
Energy = -66.00314757 eV
S 7.94741777158325 7.13239515062452 10.616497294195918
S 9.464707239057274 6.053312807052882 11.473587175542516
S 11.294730322875878 6.972545483847294 10.972983030411301
S 7.859701690411845 6.564995399495448 8.621658060088349
S 10.281104255311917 10.928222649564745 13.708501959683646
S 11.858729339533678 8.1951417515726 12.432053966019653
S 12.998769674031113 9.310064385686843 8.767319881376531
S 9.716098086322344 10.05286463536229 10.464571422574618
S 8.523351362826876 8.06351855459874 7.3658719732801545
S 11.172849998187642 10.431186284033458 12.088405863675062
S 10.519747292322105 7.797391134634399 6.926753888348541
S 11.671325353998611 9.596560979857747 7.392964854722543
S 10.362262734210397 11.459602092671947 9.037621617895134
S 9.141064309058637 14.795410689802905 10.92904382761971
S 10.993772336248412 14.756469457574296 11.468919322633997
S 8.905336651036508 12.632971585959533 8.569208717493963
S 8.390619482376346 16.479968382337464 10.364232556948233
