18
Energy = -71.9304533 eV
S 12.71586578466568 8.474261432490229 8.077856467835506
S 8.360503338217912 10.232407175239521 13.651573876822097
S 9.844448819161856 8.675588504004939 14.524715371399571
S 11.315432030106457 8.350154179699505 9.425518353892812
S 9.580266150118605 14.843854499846023 9.948871350034173
S 11.109427761414162 13.801250715239254 12.66237302049207
S 9.471620165574627 14.89229218601134 12.179249071877408
S 9.124493323801765 10.799456312035245 11.94977671714183
S 11.259734423542035 8.502974601254513 13.196522526966264
S 12.833314171715438 10.018948943260407 13.61996766770565
S 14.141859486107844 9.661889266191361 12.180141289373262
S 11.284576359643419 13.772326914121212 9.685441171187074
S 12.747742365257556 14.96853789714912 12.358736106659947
S 8.38145166450283 9.431722982997979 10.363541272173208
S 9.660894766874026 9.739560639040114 8.885799852169178
S 14.123479023814518 10.168031177014248 8.821787268659776
S 13.32248987403351 10.830999120741739 10.471435348791644
S 12.859728391447453 14.973071296960672 10.134021166818199
