18
Energy = -71.16950827 eV
S 7.113285796431411 6.890214140005148 10.64832753115056
S 6.729351307848474 8.843304510351995 6.244195616853766
S 9.190564864353888 6.497965393845407 10.017782406821647
S 9.48656258073901 6.925734700522531 8.159688195386476
S 6.653337360619729 8.81919405380554 10.438349345664996
S 8.146358018819974 10.137505090492425 6.032495221615274
S 7.342557651524738 9.738830263358857 12.264799115232321
S 12.09429799024382 9.904384927579407 7.429738956650616
S 8.870901673594066 10.657650242779354 8.015054554332735
S 7.525555848096564 11.72620729846328 11.818747978203394
S 12.641109695227273 8.97897557855136 9.224874983891471
S 10.717276043645722 11.432190630243825 7.6636658056265174
S 11.899937131289102 9.696072482620233 12.691319501528634
S 9.300137508355258 12.156952729190317 10.923936811961816
S 14.158133435588711 9.97900885682285 10.077639953931765
S 10.639815032926906 12.385889050621124 12.6462436802117
S 13.459058158653153 10.643387177707288 12.137459253604606
S 12.357113350143186 12.983917526793695 12.000409741130397
