18
Energy = -71.64420016 eV
S 9.540642930940644 9.957969129966585 6.286672623673474
S 11.942163548257145 10.165302649205842 6.553590988518687
S 12.409703659051896 8.47153073109372 7.29854468848255
S 10.342441534375634 12.970369673142876 8.463908126075816
S 7.101936101970832 11.417539669921224 8.389889688108143
S 9.433609103050093 8.109310629351178 6.937502490598653
S 12.011705899721042 11.8341939064056 8.148684837554296
S 7.51038325120502 11.83697806433444 10.200314832093888
S 9.648728976112581 12.762007023170536 10.327873803350595
S 13.084719667989846 11.545128383075564 12.919556271580294
S 10.495662894217007 10.979047294834515 13.523866526375052
S 13.429755868101916 11.942785259169174 14.737360780805579
S 9.540662379450334 8.052547378805935 9.018790589051523
S 10.846583862323303 11.33184774255252 15.3526135316469
S 7.548507882917764 8.479095267012719 9.669699017166595
S 12.397881634967224 9.015134128182035 13.560287437599271
S 12.711795804901294 9.368911661641647 15.392652046664319
S 7.740972772480534 9.635312116010134 11.231310762630354
