18
Energy = -69.1198649 eV
S 9.34892801374175 7.499487805829443 7.812036928459533
S 9.665879819746435 12.31676429476445 8.738269948978797
S 7.303073091362776 8.368450672923501 11.088080925317678
S 14.536310907010641 8.493164068740036 8.506226115058825
S 11.229234306903269 7.960599860533908 7.687996148729092
S 14.286990795397548 10.072214163358579 9.849342912885499
S 8.579059425102775 11.32822137090205 7.11600133478921
S 8.850390522874735 5.661228168821664 8.16403524819219
S 9.232545756148028 8.937722510821105 10.919725495281645
S 11.55924613855113 12.166243982191151 8.411716096002364
S 6.0041210505808875 9.910933665681327 10.55710158087372
S 11.843794712636015 9.21579549285817 12.943525648987258
S 13.110272809195617 8.382739476076503 10.022446232806546
S 6.656016548033672 11.614475248432818 7.691565478324329
S 9.853774770571073 11.94736780826999 12.654730686319201
S 9.9473204311094 9.588027163759877 12.920415822789025
S 8.067346639923509 12.550833414697196 12.310661708585032
S 5.822590065044102 9.88262689191345 8.50301736323248
