18
Energy = -71.28617046 eV
S 9.806031358003034 10.588671357442804 14.578450117073418
S 8.09396014740263 10.53934362546167 13.560039103844534
S 9.481218331179793 7.442242738413653 13.568647679589667
S 11.343903041267906 11.455776646983857 13.4286757312889
S 11.495684541501578 15.415483157142598 11.02763964681613
S 7.938375336746457 8.368979828903559 12.922490192070624
S 9.624708140373816 14.543801848370437 10.564813225447773
S 11.9643446802329 16.654855554542753 9.57458267267276
S 12.520331602898976 10.027950898694161 12.53819524513471
S 10.525418473574 14.453959123132078 7.3871634735081555
S 13.16476790923529 13.488765054371394 9.304379161506267
S 12.851928018038551 14.90717856565921 8.083226633160402
S 10.121068353778016 13.296196052219612 8.926538708634903
S 12.942342367630681 6.0849243802083945 12.382468360915988
S 12.141634781765259 10.076999548001764 10.502836403327313
S 11.821261030721885 5.532576567618893 10.905460883933412
S 10.776356328222565 8.61162041097664 9.96023642986057
S 11.791514180094687 6.967822013833419 9.302655000565208
