18
Energy = -70.80775497 eV
S 4.051201035565014 6.988254915240054 6.087559069953308
S 8.276200079193973 6.36882816495319 11.890534683650216
S 5.788278494649304 9.750331683091064 8.85134154310831
S 5.274656687678963 6.526271236419812 7.6696055245875385
S 5.517685889029104 9.277356586820304 4.049013236829155
S 7.364637838120861 5.37825428689816 10.533639020523331
S 6.615586758437491 8.027506729756347 7.810398427520292
S 5.3135975552947485 7.388086514521069 4.272168606692435
S 7.286279170663417 10.26684482357552 10.020397114019241
S 8.646588485691137 11.438267419858562 8.61194822691206
S 10.228970023776093 7.095271564937588 10.86816635408098
S 8.081968580703558 11.024455297825199 6.78416688961046
S 9.318909405963831 9.32696011670004 6.151074936322151
S 8.5012363670797 8.37850244940404 4.491785479357499
S 9.916239360382638 6.533619944575018 9.016599188914663
S 7.586478594599124 6.674862953191854 4.9064729800089895
S 9.896649998454757 3.7167316797550853 7.239533977204069
S 10.466406993532008 4.38735606675587 8.953118166074523
