18
Energy = -70.80930303 eV
S 7.2258904151791175 7.572517212653654 9.970887567531946
S 7.7529830211193325 9.385794617541883 9.82176325952944
S 9.803999172612505 6.850925507577274 10.416892539805069
S 8.84311349416539 6.936648358955936 7.865094672140529
S 9.377070637310458 8.749227478876678 7.7353022258745465
S 9.881179078766536 12.198316244989948 12.168214998743723
S 10.344292648065522 8.65985343314752 10.265991418968879
S 9.228131591926584 12.520496391680078 7.696810635074121
S 12.442422256827163 10.900877956789072 8.07274680436106
S 11.568220355100477 8.590985344586654 14.426738812720354
S 10.775904353747874 13.47794952538278 6.96148689655367
S 13.264442043864069 12.415325301991306 8.905309872537755
S 9.903705362487761 11.543374907779983 14.207942124358084
S 13.139859005931177 12.386099082292636 11.187134620489585
S 11.527848042574883 13.389865388504509 11.870082438393107
S 9.576524506754529 9.58703043290767 14.206903336195785
S 11.939522107934652 14.308302982324532 8.378500522271542
S 12.80913831192593 9.852413332407508 15.164834860880632
