19
Energy = -73.8454086 eV
S 10.398221096155023 6.174847232467886 11.957429943552967
S 8.270653852302333 7.717582077356243 12.698188445322181
S 10.713711776302397 8.168749757078327 13.79772716224248
S 10.799372919906187 7.395137476856822 10.56688158731133
S 8.664438221137843 8.937927559632334 11.307798429358472
S 9.173689001939822 7.940442134460095 7.542235998576789
S 11.117940127418109 9.389436232099522 12.410523092986235
S 13.964813815035827 8.47032231397378 9.706932372451833
S 13.051592606119488 14.142601387153267 12.961836640293253
S 13.429049605885593 9.541663155707493 8.204479011759092
S 9.981447986106813 15.691844092030456 14.547511389963482
S 8.867906619306941 13.757585054018 10.186965802577953
S 10.44604545155307 9.267773773122407 6.953379129038632
S 8.910704568919867 14.440914219889327 13.58763321328241
S 11.8097381009884 14.750931378700358 11.613949833404694
S 12.951645045438307 11.542186890245823 8.924388232532245
S 9.919476468492713 11.18219557290333 7.852614838232996
S 11.664284617820769 12.155964686862813 7.460015969504654
S 10.046996473162684 13.349511836768226 11.648874922127796
