19
Energy = -74.31621737 eV
S 10.270586567328753 4.652710242807377 10.366153623057862
S 11.299467464502507 5.62706826694605 11.645736904424366
S 6.912195819428749 6.66851936273652 12.006166734582594
S 7.288427829377461 9.01564100664016 8.434668706866335
S 10.224213129177906 6.761319680031678 13.161216667082684
S 11.769285129209624 6.720871992506094 8.539423462502242
S 8.28918115273326 7.7231699888566565 12.815646698292086
S 8.40386673853443 7.406489629660187 8.473922196331003
S 12.474684464388874 7.262852705807049 10.301433360955203
S 9.026601987257168 9.277520073065677 11.397150457065642
S 10.361432637077716 8.048180637217257 7.809561185530931
S 7.076357266891376 9.87176060797087 10.752154975561345
S 9.669340375326877 11.08767247486384 5.797318139840936
S 10.00258721827571 11.739515951504558 8.39480223301893
S 6.845888025476243 11.778510609189297 10.753158689794711
S 7.699007113374082 12.398920336813452 7.149487802123265
S 10.415527319558926 12.746860887697892 5.2675329847809955
S 10.763842914610526 13.404363036222588 7.911467420705501
S 8.442819088672891 14.057482192183361 6.620321741597441
