19
Energy = -74.45816553 eV
S 9.27897964930883 10.311322954075573 5.398739527994057
S 7.305378127895138 7.85961460846261 6.453825464583706
S 11.293165754712899 7.754335865901193 6.111433066981157
S 7.696368256400208 5.990999592441725 6.760255709880556
S 11.03793843782552 6.161606112943963 7.739867202033083
S 10.43640677570894 10.905346287310532 6.797602822497914
S 12.087437511010162 9.311860722748841 6.97425536027616
S 6.8772991943029975 8.95336343712042 7.98918803769063
S 11.055259663864025 6.900175600912979 9.559885903123975
S 10.009094082645133 12.582412441750682 10.00154468905395
S 9.129437362678322 6.416124298243578 10.544574825175305
S 8.035082390944153 13.141342990444087 10.44629928128047
S 12.24237180294189 9.579626311040752 11.957052615380578
S 6.794120857358641 11.540891444885553 10.3289560992031
S 8.716178025567322 7.598154578955728 12.111822138591556
S 11.080830576984738 12.745805324583065 11.724155486180424
S 6.841325459134008 10.563527951038866 12.220742831069412
S 6.8208313768297195 8.57492796144793 11.877963629891699
S 11.002056589977315 10.848123411781451 12.741397205201803
