19
Energy = -75.19166505 eV
S 14.943437492747634 9.585244445071952 11.68881160349753
S 14.418728733335655 11.326963134488556 12.5757068580333
S 13.26180369126529 8.026040350020748 11.63380848927163
S 12.517038158950625 8.64854409854878 9.27012883694222
S 11.515956074427589 11.845609124554667 13.85991696721541
S 13.74297035270855 12.716050934830797 11.327956092080818
S 11.502215469313809 13.100588816428978 12.413596980699218
S 11.671633772411445 8.512588529162517 12.558348948722127
S 10.660954917259637 8.945576639781217 9.710391404352265
S 9.753183409517893 7.003459184302078 9.27773125960774
S 10.113838393703382 13.583026491904446 9.377369868448115
S 9.876416944352039 12.423239980611214 11.176824012469998
S 8.651222779228647 11.344380724797235 7.6617743028363305
S 7.853761129846691 7.057578802554333 10.06383499210749
S 8.3571442918245 13.41675959013874 8.474684878925725
S 7.3423195589726005 10.298436686818938 10.16328998780586
S 6.487188181167951 7.386862784419319 8.649581694794973
S 7.064521015340805 10.671823457151145 6.800456093526557
S 6.042200074456774 9.665530212607063 8.926163621442189
