19
Energy = -76.58903072 eV
S 8.626816781491653 9.449738785975477 5.169097378791115
S 9.099040963924713 11.182418096811217 6.498821964009377
S 8.543225071949001 7.240798196846719 9.00007071554803
S 8.485367263277084 6.650511409880083 7.1066187587293514
S 12.982784822343456 8.927467906679134 7.1381441151109986
S 9.693603703739448 7.928188352962536 5.856948383458092
S 10.041279900987039 10.431389783288264 8.06782927518876
S 12.19761898501933 10.57985426438389 7.850084004024957
S 5.307160781718549 11.202177037879133 9.52852541677367
S 10.28306709620719 6.201094970486085 9.957764412627366
S 13.216816395103447 7.650210681115094 9.117770207165954
S 11.616450577543363 5.775331119046582 8.631380729468544
S 8.451262558469018 10.139991353146213 11.310697110720191
S 5.51648444495697 8.968869272373032 10.014496181494005
S 12.261887867284965 8.597080270789036 10.462026311728831
S 5.452817673162166 8.783123567581466 11.93697821917451
S 5.803761200646938 12.073766456070604 11.229729589529107
S 7.8998181619221075 12.162467458750431 11.421512226709895
S 7.572298450521643 9.107083716203098 12.753067700015768
