19
Energy = -75.21276899 eV
S 11.32038113102743 9.692592278312757 6.357363743718187
S 8.453760676444297 6.185242835206397 4.5293317780210565
S 9.722657117326044 10.355617749663189 7.168982498312233
S 9.979288958442304 4.737350383453326 5.9184280654549335
S 11.61676526553629 6.260993467321441 6.240017333898227
S 10.085034655715074 10.118910763328634 9.459641996704375
S 11.703076709840584 9.004995661622372 9.50163895718468
S 7.518622627903126 8.998144556063957 6.194644265120264
S 7.275089703010051 6.744603227123085 5.957854783272012
S 12.119952821625057 5.96987944186852 8.17414946078008
S 8.987625137369118 4.587181479506072 7.535389074510505
S 5.958338684382367 9.555107294812709 7.180327302750271
S 4.734614298945351 11.173620545528232 10.57549787777694
S 7.311595594142798 11.87986602053197 10.964091226926667
S 10.904945106131326 7.013761035434901 9.446006495114908
S 6.619908033119884 9.253898016180708 10.478783509351548
S 4.50573014456671 10.89115391702501 12.433198215687291
S 7.1415969714591645 11.549155381458997 12.823300292163303
S 6.465141236660517 8.97827549987445 12.347444274474753
