19
Energy = -75.21533003 eV
S 5.493494326063732 9.693915521814008 11.068539553314563
S 7.176495282602868 7.668931874634904 10.228072839597035
S 7.0684638710087055 6.872501412644169 11.956614147235658
S 5.358766587652019 8.902868587711382 12.796573381184146
S 7.13112499487792 11.27860105688045 11.138395732859813
S 8.84063594268416 7.608451098162704 13.189665718636732
S 8.119990523346948 10.823605580115434 12.773059475750657
S 9.467305786869982 9.180533972965033 12.192238054879983
S 11.064657310595546 6.823725465402949 8.817969955213288
S 12.102741140271316 7.4556859033380505 10.292169801018057
S 10.699276546543112 12.220886433505786 9.731139116092193
S 11.65473562267914 10.096449671011673 6.806694441659303
S 10.704248397608225 13.862457618205248 8.598649000086972
S 11.986502053500951 12.791413768303292 11.300485788425581
S 12.325439359827273 11.415864172959417 5.570153114761735
S 13.47690085673742 9.092060973683987 9.484384003602823
S 13.349310898884935 8.86769639337398 7.5320613453789385
S 12.892887434003661 14.383655500687537 8.699527023243828
S 13.532513098723832 12.902523690104235 9.877412546777162
