19
Energy = -75.22199084 eV
S 12.537315881934049 9.572098473035657 14.832755770234792
S 7.860766692014483 9.989467258674212 11.935295725521954
S 10.982920805738688 8.026843135038607 9.362021852752221
S 13.555542156100923 11.104836741204375 14.255585026502894
S 9.123112730682195 11.072719086489148 10.72147363770486
S 14.49805718147671 10.998373383609923 12.577284157017203
S 6.3189967292282185 9.25975701009509 10.845661873949382
S 12.195924557394955 8.661978089047182 7.940755050859452
S 11.255351146822894 8.970763189414503 6.093177539668159
S 11.058959387598497 10.032012154091216 10.769883876350615
S 12.22923687170414 11.194268534640065 9.787511140939577
S 10.367750272896021 10.879519878691656 6.046043266944858
S 7.304871362053447 10.396930742631561 7.397745076472569
S 6.6820280926368625 7.168755910832918 10.25206167980447
S 8.445938201449064 10.646201650490301 5.532856427866689
S 5.572097327830688 9.758909451896272 6.819775903523218
S 5.091546383922073 6.800655364320122 9.208825387765389
S 7.929927739535985 7.453573483995525 7.50406202301644
S 6.119087344682804 7.306888303917884 6.96070706381936
