19
Energy = -75.90104205 eV
S 11.201041619235095 10.697157482595662 5.7230895737820795
S 9.648338561605323 9.640872266949861 5.351500444236016
S 9.41460781288147 5.871737991981986 5.770238337307132
S 11.88734110036609 10.248907041549293 7.838292894099622
S 6.634459549298761 11.46800611987824 7.554860276180804
S 6.333016848376682 9.420667780819114 7.484594760682821
S 8.088782829997633 11.879050755742565 8.859500614702057
S 8.891015560441913 3.981538809341339 6.454596764190856
S 11.372118802399378 6.257471633953542 6.271509973516026
S 10.629914079108122 8.816905095095406 8.414729363301335
S 11.516635019450522 6.915320058507631 8.21383978622761
S 5.17262056053185 12.100971532029186 10.636751432449975
S 8.387485448881593 4.112486406178841 9.810752371967865
S 7.042583247914975 11.663379874988001 10.854077411931982
S 7.498930445462318 4.187967463677948 7.970385970618662
S 4.1397442193691685 10.133541614637526 9.939385226348048
S 5.661688834622773 8.990417765503475 9.475011909518116
S 8.47184564153775 6.1873738187664555 10.414326382827596
S 7.398516896410106 6.4462263752897755 12.001981802592763
