20
Energy = -81.72043847 eV
S 10.785822357137494 8.072374773256827 4.848672938578499
S 8.371118924065307 10.328168774962583 4.183217441789225
S 8.745524535179474 8.396491291353145 4.8022989492152535
S 11.488390721418376 8.363247056096947 6.767800767126267
S 12.265649171372282 10.268601467320323 6.9213926203233695
S 9.846338799717314 12.517568469268864 6.271564299532436
S 8.08430849396453 11.538006343463662 5.83226344001164
S 10.842694764092451 11.504271903255805 7.768194079366907
S 7.274064652829667 8.650589914359362 8.30977209162907
S 7.318419993058471 6.727508116694123 9.080824746036699
S 7.576637140405615 10.054786959477946 9.7947982636889
S 5.5333418159807275 9.002773110205737 12.21059116478494
S 10.082967336109231 5.7429349170279655 10.703850964984227
S 5.803821679588765 10.45686237640356 10.755843885343793
S 11.508054802566333 7.236934471590156 10.935186645291575
S 9.193765480562764 5.872341538882937 8.850484634305252
S 10.5278451106976 8.99913182576406 11.341997768204898
S 6.714979397994505 9.41195773871372 13.849886057010897
S 8.3411999296973 8.126876938714659 13.81284325126917
S 10.097726322199234 9.13124344182454 13.361187420144079
