20
Energy = -79.32247011 eV
S 8.221938826635624 10.560401166652193 5.061732506824524
S 10.434088542875273 12.09541499696423 5.758659010117108
S 11.535430343336758 10.37073216426174 6.743794283747774
S 7.200383242479285 11.448758143311027 6.403445080079756
S 9.410070246972555 12.9973904983675 7.0897218602500285
S 7.267095835822474 10.151129263114965 8.284052763084174
S 8.783798959784718 8.955728748728296 7.935009679612956
S 10.579871969498408 10.118852245940355 8.442490714781549
S 10.382127000920786 13.793824141234124 10.99361457923788
S 8.669498291069903 13.00186330265095 10.732501137143045
S 12.579531206470346 10.456894683101496 12.284226205184483
S 12.36980841607438 7.832041786061376 11.150823339581946
S 8.191627427596607 12.118356250974404 12.671094585363223
S 13.98061345867228 9.715850940056876 13.320001369545178
S 9.713821858186565 12.525856788742525 13.746962791961431
S 8.92297107884003 7.638235075190939 11.571159481195165
S 13.978357991931833 7.397188730837874 12.105100289899914
S 10.51870883861618 7.226447952999582 12.55188198920132
S 10.84722161010057 9.009930205466288 14.097361889401004
S 12.44690751317632 8.61897557440418 15.09023910284842
