20
Energy = -77.70390797 eV
S 6.724117171152787 7.620631721649902 6.379843080142433
S 12.615635644110787 10.773256228651237 6.61338069821266
S 6.7230419526595036 10.714867101859646 7.535585037085242
S 5.743717001301911 9.229869428597386 6.787501887450324
S 11.0122203439022 10.829324769725163 7.645657893046345
S 13.288093720845962 8.334649127030726 7.716066390171713
S 14.231308205057672 11.93011037486485 7.731986604932718
S 7.637824189617764 8.512699172234582 9.945694301801101
S 13.511082754494156 12.05153556398009 9.556216974110724
S 11.704716072817183 8.380864559291961 8.779341827200833
S 12.253220477572336 9.255505457147562 10.815694060718268
S 13.990588031061604 10.118168484804084 10.488834914697865
S 9.390665849127165 11.866793258037495 11.49809587713021
S 8.935740034555383 8.328771986110674 11.322490748666572
S 10.644922745262601 13.285259865993298 11.958230840390813
S 10.194346720275329 9.718130889528869 14.23130385499708
S 7.804341475189946 11.732485047921235 12.80341866886813
S 11.769724373140066 11.327929883537841 15.109527072214332
S 8.544039037154178 10.656074585588184 14.606291176383209
S 10.617617442513646 12.670035735257862 15.81180133359195
