20
Energy = -76.09249462 eV
S 9.514673211489665 14.08881179234638 9.07772141947464
S 10.893857424657142 13.71350359836282 10.335061311283441
S 14.52105686179424 16.36673611137711 10.330052960024377
S 8.308222770368998 12.21928675637424 9.161844353511427
S 9.278728983054764 11.200295408742582 10.442994653249901
S 16.207726440412834 15.497925371251787 10.180984932505268
S 10.031907773222255 8.469165045010298 13.564411729537818
S 19.12105767080053 17.162457337386744 12.802085826177198
S 0.6466980233430893 19.841541720847875 13.594387443736895
S 10.33322741920978 6.917304799584671 14.62657551100026
S 4.116766591131364E-4 18.55206663515008 11.950811673874782
S 11.93909918243437 7.537326582811318 15.99261404916477
S -0.062392419468496337 19.006328544936185 15.153734002919872
S 12.285550055734538 9.337300105328856 15.47507945637661
S 18.112699813068236 18.73692929926777 18.747799216736414
S 14.456271368297303 11.839993220362896 18.164455768309043
S 17.089213202333305 19.29124165277044 0.14581615139498583
S 13.287458254172016 13.2704924912157 18.62850446305266
S 15.45180921731527 17.824854868177027 0.1897412429508431
S 15.840683858493588 16.712780939476982 18.802745119908003
