20
Energy = -79.90190199 eV
S 9.09293940874274 10.224320192799677 6.312432524089304
S 10.950465445246236 10.653133928036787 5.518169901318375
S 8.282170459333162 11.847590230095634 7.309045237348337
S 12.383600039834814 10.500870428264603 7.012293812082323
S 10.155968118078322 6.640960407191312 8.530045140851602
S 8.40236852601274 11.463087884226034 9.328898582692553
S 12.721068010705915 8.545749231570975 7.454070092162329
S 11.290840518994141 8.113975318885867 9.04317548587071
S 9.81531279937629 12.749464767364447 10.23546420004699
S 11.653019136997495 11.981337701047897 10.258717891294191
S 11.847020346058159 10.663630864012942 12.03357439632784
S 10.041093074153697 10.37250274323038 12.80958514048025
S 14.846262463951799 13.251205908135802 14.181736162932763
S 13.16223770255486 14.229823365279405 13.200954691297337
S 9.476747026233102 11.900524376160078 14.160446966714696
S 14.12543752748278 11.432724183631569 14.740365922734822
S 10.002335847713745 11.357068001917304 16.07745259022537
S 12.555892515856396 15.74937643491181 14.21308799282912
S 13.373102620168519 11.524296728802682 16.676471122782935
S 11.5819089557644 12.558147847693732 16.663802689177086
