20
Energy = -76.06575528 eV
S 20.14211663566805 17.24588349551647 10.952813369656335
S 18.797523474757764 18.42055409507354 11.679600911955191
S 14.473662116256994 17.9916586138126 11.710347906844271
S 21.905272413499873 17.238510368163546 11.767120671409042
S 14.756668515065211 18.806740890677577 13.41003706586377
S 0.04896236281614845 14.848406238911132 12.870382035174249
S 12.898546880266432 18.397850123667485 14.493042107990526
S 0.6764978348727183 14.845609524999507 14.70828050501483
S 11.854474396175549 17.421168852176883 13.235746574335462
S 7.272054514383212 16.21600939642661 15.862351208321613
S -0.3250087413768233 13.84473340031064 16.020574407898394
S 8.868658735923496 16.348649918558912 16.939123657447187
S 21.34597513457045 13.724766805595701 19.59483882258408
S 8.506734346512317 15.5198418965073 18.831797161351094
S 10.36318304961514 15.817852636625519 19.75586360386323
S 20.099799503267462 14.75286662947876 20.65510037629817
S 11.573563812802702 16.691967883025967 18.52387633375564
S 18.245468962854492 14.941113018901415 19.67364388200604
S 15.546309051123764 15.808546940495313 21.414961761158462
S 17.011602863644544 14.552115579459464 21.335343945456167
