21
Energy = -82.95035625 eV
S 11.50517803393765 11.225141957155325 7.013037479785742
S 11.615149682768617 6.915962114434741 7.445362025447756
S 11.470309832794198 10.11568654497932 8.793990802008036
S 12.620238887291146 8.465861932688039 8.47518880984467
S 10.718667885682573 5.688817479166383 8.736757593598206
S 12.900376026878956 5.933911860419204 12.314228506585986
S 9.588568199833341 11.335236988547763 6.294991877954007
S 8.70557639143421 12.907764934234038 10.178401469830941
S 12.725009285290568 7.797340443941468 12.672183006933412
S 8.36197523246327 7.683361841673803 7.332016638720225
S 8.936304646790424 13.243539472090518 6.877856403001321
S 9.967000613455061 6.242282984571857 13.297835175638577
S 7.5689455971498205 13.167736330207271 8.372628382163468
S 5.432861333559508 9.465888292911927 8.106784574092686
S 8.173434754999224 9.569621801530275 10.590260281853427
S 10.667139367999779 8.015764504304457 13.36226343758793
S 8.541895642907296 6.2440705461688655 8.577448739584314
S 4.604107308068505 11.224762852834907 8.279016328637123
S 7.681777819440921 11.608055931185204 11.292774002147517
S 5.047284368762185 8.242452601964827 9.714306923272323
S 6.682075788922413 8.464928316725516 11.223895785588983
