21
Energy = -64.38176032 eV
S 10.502632356160886 6.664314959096784 8.676078029065923
S 9.84045910715312 6.172919220746092 6.428235994616486
S 13.11690813399036 9.960440930927097 7.567417823190296
S 8.46530346184253 5.381538413477338 8.264536820076614
S 11.967999786177122 11.247152383662923 8.674161162403772
S 8.5981015582901 7.7472781052476325 7.728538987177128
S 14.953829017029987 10.885871272205971 7.955098890880027
S 12.781891096483553 12.823016136370157 9.766907708601542
S 9.906162498552366 10.650690950574486 8.786315401884705
S 14.740359801900828 12.5171686792275 9.16287139285222
S 9.128289936933042 8.221993450938038 12.938414177996904
S 10.318512543878171 9.54608885896303 10.569710741242476
S 10.06616432937099 10.057733665448591 13.693106528082001
S 8.34243289950814 8.753356795806503 10.96966066291804
S 9.196970281513643 12.582567768840656 9.402970161981097
S 7.243029675610286 11.682563947441965 9.525462015275798
S 10.64272901982129 11.179536963908648 11.972168109934229
S 7.848041229545066 9.896751091062518 13.911777845231683
S 6.948015649801897 10.141600714109115 11.972006945332327
S 7.218812775979644 12.20938144675378 11.605736815468621
S 9.315842749211754 12.833840756872174 11.575040175074465
