21
Energy = -83.06796808 eV
S 9.022664053144096 4.136383603883378 8.153880120706443
S 10.561564186877414 5.957103769553866 9.726968186237043
S 13.360123890791357 5.934739630496953 7.5963792909536885
S 7.65031930949579 5.434776151611973 8.259122781449058
S 8.96369217128166 7.002854603820465 9.911876403959875
S 8.537081416801406 6.947228966813439 6.38707685656985
S 10.1900793729598 5.9770591489702944 6.2242818888932145
S 6.5932414656653835 11.024593890059258 10.310470762325105
S 6.586952098934389 9.440795107333795 8.614006146379783
S 11.708528696772868 6.8772863073843205 7.823579323818196
S 6.535168106474487 12.715006848674346 9.387451146125072
S 6.7278206939236185 10.544086713208996 7.016494695141293
S 8.885589586270026 11.008636285511274 6.696798554154303
S 9.752502303050044 10.137133126388319 13.213943897570926
S 9.601098296915257 11.415243433345852 8.495262396039898
S 8.847917497837171 13.49020082383278 8.868550597073773
S 11.652679151030275 9.808028018436968 12.681713304782537
S 9.883939229456267 12.288654597676153 13.814087979519911
S 9.688772713227653 14.236970826463478 10.41883545671376
S 12.092713091360315 11.588187863865821 11.643661025590315
S 11.822128989800722 12.627768886922382 13.449644326388642
