21
Energy = -83.70781991 eV
S 14.45427801647552 7.9634529724159995 7.117122940825849
S 13.422854822188853 7.757270278904222 8.733499103959684
S 10.961066975421794 4.083074781783999 9.455143402566014
S 11.067944181623272 10.958157798490134 7.43737089380456
S 12.115917311170557 11.455751277781777 10.535267212169295
S 9.675358921223593 5.146836042281358 8.252158744894992
S 13.87807658849509 5.804626794809922 9.585562070410079
S 12.194329844128248 5.309368102471995 10.604692272272635
S 10.04776728143451 8.539253387126692 10.239224548647595
S 11.007117739116357 12.276240268963209 8.846539809873008
S 9.831224720819598 8.961917754009459 12.277877795110028
S 8.144599764887747 5.861724789928741 9.458409111782188
S 8.302650593793595 7.928891121819037 9.360960645493488
S 11.154609581566495 12.038486464175671 12.209181211119903
S 6.578351556829322 11.907241159726238 8.381369901283708
S 6.356930511511375 11.675027730081878 10.244924207157805
S 9.347514542542013 10.942751457450452 12.331658956784093
S 7.4826761701605 14.437048121532575 8.803806159294192
S 4.62316580291511 13.746142797665586 10.325532958187274
S 7.288369689350287 14.202857279979957 10.66997506177561
S 4.819334812055434 14.003665936987188 8.462216720598764
