21
Energy = -82.64725889 eV
S 10.930513619458846 10.735992742872545 4.600681471174544
S 13.798805294316734 9.151147372602313 8.26239067396429
S 14.031987735487464 11.875890433756012 6.257143244515326
S 11.822247916334016 12.633016886744942 5.95966635703205
S 10.931198692023806 8.0047672471089 6.844997359529296
S 13.984785616652541 11.306040954913145 8.136394076092962
S 9.860498669349871 9.934595301228862 5.9880584136348665
S 11.933258545645895 8.634006574643436 8.742069031938472
S 10.94593433800823 12.290821855234654 7.609924076155159
S 9.436940319331109 6.945252644997364 7.433295324586019
S 6.33202125749528 9.587129752409425 8.261111288214188
S 10.160452463957455 6.261974400603185 12.036935399511464
S 6.34671179999833 11.409155412339842 9.229760183088096
S 8.939205479203942 6.526006730112778 13.501554004012851
S 7.469090169925369 11.142239785438706 10.942579279464635
S 6.13613772554 7.254073506148186 10.588026863035221
S 6.964501948702559 5.854095603062522 13.094766867027536
S 5.016850881356798 8.432417961954856 9.392467123042035
S 6.163175293953638 10.481561460262212 12.349585757176753
S 8.0345604519411 8.728844629309156 13.327960207360137
S 6.249615261338071 8.017019929005697 12.689832876781198
