21
Energy = -80.96401755 eV
S 12.789100047368791 6.549069874154772 6.90825686027883
S 12.928800515585507 8.185770203741397 7.872996787719676
S 9.465908695471596 7.418397804106731 5.646527810069415
S 11.471067924920538 9.76884651892895 6.818473730736991
S 10.91415701051919 8.677530301213311 5.22711299560726
S 12.558461801297785 9.793789319656355 10.81069499762445
S 11.694784871009793 13.015842573184536 11.402817270528322
S 12.02103126725937 8.09541697905811 10.094331159442747
S 9.522215961012426 5.4103125081284515 9.468558620240065
S 13.099642124220981 12.855481565002542 12.952663025651798
S 7.061534561296382 11.8666782069737 7.844015639183398
S 11.065145217674848 12.630447301419368 13.336602865799037
S 9.233925914168799 7.274741041872159 9.822754021979367
S 6.199637530247107 10.050654885616636 7.619162435297409
S 8.759305952125537 11.598048476444989 9.131083388210692
S 8.843290603151765 7.447437344429138 11.95765481215386
S 8.030542496833714 9.297007784916067 12.086835297244084
S 8.960419847345308 13.309705749377907 10.02759202361881
S 4.715197047029552 9.840438271069358 9.084957556391885
S 5.26773129985699 8.324329412368071 10.366457190520554
S 5.961123434696442 9.020899819399961 12.174005980849552
