22
Energy = -87.88826028 eV
S 8.675574266109527 12.99853669346677 13.377627528194274
S 9.167843292547268 16.261396856128567 12.545627518907883
S 9.246185453981466 15.814754627874656 8.936161241017407
S 9.841585453201104 14.76069551330402 13.627866429654759
S 9.415872901475822 13.876846827821009 8.685004855143521
S 10.745292802299867 16.244035339614697 10.738006427391747
S 10.113050954564287 9.532637885233894 8.000169552630924
S 9.801993177601801 11.666234671666881 12.25928347219229
S 11.713985938096997 14.627581053126459 11.004538942293873
S 10.95085592426886 13.567518601232507 7.195302256510794
S 10.537936796524434 9.140938799682786 14.403793166764144
S 11.322549586580257 11.01008905941146 13.40471864637389
S 14.295885496704022 9.156507197731111 13.598136775053037
S 12.20440224396774 12.226092933736862 8.033204097981386
S 10.58781619653182 8.84185227793762 10.081036348117335
S 12.945964888896672 8.091384985510901 14.417481750727303
S 9.29475436878482 8.230989510679088 13.269002536490076
S 11.77588075224494 10.290725669685097 7.238566886493116
S 14.172413153288321 6.663827856180664 11.722895572054531
S 12.53381552606527 9.204162691235783 10.318202756349306
S 13.603295397250326 7.497700058350355 9.842417795242472
S 12.624431743247753 6.276760126961319 12.866543297495245
