22
Energy = -86.28287293 eV
S 13.47858175820505 13.05158818451159 15.77382907823438
S 11.15874007239604 13.011352563164268 13.372862423922415
S 11.602068672024826 12.751135397328579 15.562747950847111
S 13.202214797772015 9.822581235007904 15.695210951286011
S 14.080417050568258 10.101745780209669 13.961531805362652
S 11.269001728277948 10.362279421565205 15.67191500239505
S 9.197298409730475 13.195234433002794 13.28172676398734
S 12.087173582575598 13.357994293514064 8.560531376806225
S 9.869001282323758 12.94483978325893 7.949585492502636
S 6.280335065778504 11.794432934795866 13.140840528329466
S 8.672359394075025 10.395405255596414 11.125625610599293
S 12.590709292542401 12.422903586736737 10.155472892378157
S 11.245831498241847 8.377011751858749 11.797581333856224
S 9.158429997897573 8.495299221634589 11.577829002868489
S 8.090965333173125 11.158806587487165 13.170254108990216
S 13.11799858183792 12.22143864353738 6.7995926444480865
S 13.00631008920908 13.230609014381645 5.1725167387198905
S 12.414854017574935 8.691494109365191 8.65243448486716
S 11.966130673106013 7.352380156064555 10.179348406220834
S 9.337153690507765 9.63486122825028 7.537606753645111
S 10.985359797875866 8.455452928260616 7.183173874014691
S 9.672131967333657 11.484555421351143 6.597320423615385
