22
Energy = -87.22404135 eV
S 8.995419223621445 7.057837009799242 8.169812681692722
S 15.247484084647583 8.464320580168986 8.401231128010124
S 13.427429938394434 8.317951230727074 7.222151821841925
S 9.155068512903954 10.87212393925075 7.643269323136826
S 12.835972190721403 6.492555925680965 7.031974464981392
S 9.077616183554014 6.110058505148102 9.912718646121514
S 10.235623167174015 13.350583314194768 9.576969691893831
S 7.877505872336523 12.295145343326205 7.680132256876919
S 10.967423854593795 11.656632779805056 8.888115436457607
S 14.256448249506683 8.809620154806732 11.589292403224944
S 7.784992561695716 8.958403345555894 8.794760669300196
S 14.911853896338654 7.466575137937758 10.138058981678698
S 11.022466028083054 6.112908035019552 10.7326692188598
S 10.047831168855424 13.218989129888067 11.738943061366236
S 11.212102653709733 7.554117612610855 12.181197697199448
S 4.954012634099434 12.115427463329954 9.884154658843949
S 4.7545840625791795 10.610548528255082 11.054203259244268
S 12.239741650223872 9.143137050280114 11.331826709052383
S 7.726960095802014 8.943045554471484 10.692258933965011
S 6.0918511970162355 13.735718078889088 11.003309035824577
S 8.659324939176319 11.878123716547607 12.25495495257865
S 6.771805933244283 12.870358636227797 12.635499280842915
