22
Energy = -86.63307306 eV
S 10.637407095986568 9.882554914995623 12.423879447304422
S 11.29342526840128 6.3135586475224965 7.844231260112413
S 10.216388591932615 6.49548072137389 6.171278966099034
S 8.84395317106576 4.948710169718621 8.671750769396553
S 13.37086316953852 9.873128014877283 6.198002818285542
S 10.148206731800395 8.53130097646132 14.065520069448738
S 8.285427126627155 9.174142296730267 14.552762199777868
S 9.82812788236529 6.692037793309994 9.317801231083497
S 13.634742317869442 10.010563231534917 8.078948909813196
S 11.978378033438107 9.00147288702267 11.373322969222155
S 8.339743114232416 5.432556856491491 6.798577756143575
S 7.247315502512949 8.636385501770878 12.851570918048678
S 11.684175191841295 11.226494096135893 5.827700575184904
S 11.274817488896156 11.903491370310151 7.558030769897262
S 8.023749813363178 10.140470192056192 11.504227721314267
S 6.250571478900981 8.608933393943571 8.648860344677498
S 7.714880882198355 9.489950137974265 6.543817551461253
S 6.166840262092969 9.473685173609988 5.4546366601110705
S 4.6915440126768475 8.620140278206055 7.580673917777554
S 7.745731096314605 11.926149494818313 12.150299747930603
S 6.577899258720547 11.282519284114018 8.199861786813347
S 5.002738174572057 11.296702475568853 7.14903464661136
