22
Energy = -86.75055891 eV
S 13.210845995066213 8.594876442678462 8.254143566864519
S 12.906599593918171 10.360147368474426 9.787095531923121
S 11.040099336754142 6.338700385406531 11.414402594652238
S 12.104291635202845 12.060537247224744 7.9516739961835645
S 11.182709587013424 10.09504563131373 10.541622638728427
S 11.34915279847454 7.900062056061915 8.229997863897005
S 11.273040642986347 4.5565803858653915 12.10054419034982
S 11.199338356681787 6.094449244838414 9.227602399598943
S 8.790653911724739 6.813787038730877 11.88592057079172
S 8.086451630607492 8.566536081860432 6.628693982132825
S 10.251176701569891 11.920565559295571 8.46187556158081
S 8.198216038865107 6.630210807761622 6.335798792776381
S 7.382486629048717 5.669953079286019 8.240697146452941
S 6.112597448475336 9.267960189891122 5.864582688856573
S 9.950998517485674 13.63184174980901 9.84112008101109
S 8.078935189011636 8.124811791978898 10.583176394527271
S 6.607067919386776 7.125759007108344 9.295862582961256
S 7.468047437643026 12.83859681768876 11.900361573902169
S 7.993019668061138 13.885334558443516 10.171397441257499
S 6.188561851367792 11.192765436929907 5.920156090542797
S 5.800853871880156 11.603106499730313 11.358951774042948
S 6.049090382812888 10.592868097925283 9.730292408560278
