22
Energy = -85.40609 eV
S 9.62445736334182 12.019873224700898 9.535344789428867
S 8.885024862229434 9.304182645582577 7.566410117973765
S 10.417771369017046 12.22650805672064 13.500288428623765
S 7.163732451953813 11.55402853394743 12.928890752797829
S 13.756983480790876 10.859048102479997 14.913469271222725
S 10.256606278970015 7.97391304277631 10.342369349293403
S 13.007077583116745 13.913082585853186 10.070690749468364
S 15.529828524477125 11.040134149918261 8.96741239590985
S 13.468242705189683 10.631884077120755 17.75047885791507
S 14.250967981242177 14.15548784285274 8.340787912869708
S 12.464028857438125 11.623586449084748 16.26414482585855
S 10.881262748549814 10.412272000552107 16.636467143790725
S 7.071232933065324 10.500813747752062 11.11250520368024
S 10.405114390625425 10.313618752653353 8.195297890708831
S 8.79760436855024 7.568785070814632 9.188475294314685
S 14.199032823921083 12.844351459819324 11.34824888977362
S 7.652559847178596 11.809603077132168 9.589380835919215
S 13.553346831466683 12.941020000190882 6.947916574320942
S 14.412111599836724 10.904364507685461 7.345034499621755
S 14.234071134581162 10.910052672075045 10.668055031651969
S 9.781649285004484 13.662311480251544 12.399175177419274
S 8.711997499029096 10.847663873694252 13.973128977959295
