23
Energy = -90.94500525 eV
S 15.186131725618232 13.038840456357153 11.222295296267076
S 15.502417316349707 10.858016507296743 10.532745638047244
S 14.305758690121982 10.828914169638228 8.473027400523348
S 13.619339233696738 12.959720611713047 12.507677672181762
S 14.591249636082438 9.61860072584879 11.654992448535875
S 13.093548612064154 9.302939837053325 8.763608621164666
S 10.729751637845471 8.220889758194431 11.996738301220605
S 9.160569365578546 8.48909459555641 14.839492938709716
S 11.89251335366694 13.173937419853644 11.599419000938786
S 11.095250232917827 9.939337619261924 9.183335045735989
S 8.863055709255137 8.112808138447862 12.862600592747167
S 10.229195303161484 8.140629792972348 5.797332580429805
S 10.916336047535593 10.161574608432257 11.188153967263899
S 10.721313191558925 10.290817165408017 5.362170137458391
S 9.75434239414525 11.801940450571285 14.321067054447186
S 8.666002132274118 10.525216488649207 15.353423857230363
S 7.537508070649099 11.190337106344515 10.261006057774214
S 8.87426468718907 11.030460711298277 5.168470422043497
S 8.173989719361277 12.843612529276953 12.950420448841268
S 6.1628097905060635 10.61580221681274 11.449613810460095
S 8.232506799154976 8.23676620964008 5.751400579464435
S 7.879102621910967 10.05928345984377 6.749203085061015
S 6.480458777349515 12.013200884231043 13.348246592413197
