23
Energy = -89.31602188 eV
S 13.609974788566063 10.986116248676872 8.933983922237708
S 14.00276633429897 6.807342591675332 13.183501618108862
S 13.107789867291903 8.416562655416463 12.623391032067753
S 13.446473905155495 11.629259493856425 7.127633979330536
S 12.645372699647599 7.088999827441907 9.329848167661046
S 11.783435984618059 11.245013728775081 10.080580034745163
S 11.623260366729909 9.062268728567659 13.6796997896514
S 10.114141552664709 13.002247737936992 7.800696133889907
S 11.093163795192194 13.115314085386974 9.480883831545187
S 10.848058178600693 7.909724376203596 6.60327712315393
S 11.030032872434553 6.623334087015237 8.386445665274934
S 8.420464837746055 9.171889518343074 12.13317496525735
S 9.586224755834445 6.937793830422466 5.449447602447484
S 7.820711560199416 10.055734921047 8.124400905628175
S 7.333300966784127 10.682575096760452 13.267657519558048
S 6.279555765319644 6.138527362944215 5.478642116037429
S 7.506696144893433 8.06036842179858 8.022927330472827
S 7.3969135008133255 7.549473271999927 11.925740040961994
S 7.354952073301642 7.684007753825425 5.833219654899746
S 5.960169340124702 11.012213495088757 8.021982091107741
S 7.210131660394344 12.231414711695146 11.955820762045574
S 5.028182042951509 10.707198886672542 9.83125992561564
S 5.31275864130064 12.306433861788387 11.092993096590247
