23
Energy = -90.45008235 eV
S 15.46567343950854 9.898573601037548 12.33812104003337
S 13.95242240864624 7.781001176786973 8.616083606081123
S 12.732516678763629 9.090220843359619 7.536029648011282
S 13.781712133377582 10.801290880825015 12.105096881774022
S 13.1182277242454 7.172567950964089 10.429343788875189
S 13.343396385670617 11.79809043873431 14.025121009058354
S 12.872636034679017 10.946043197559018 8.254031120902594
S 9.992595582056099 8.400114602321231 10.947250504525877
S 10.940914617520427 11.267226232586372 9.36713892567827
S 9.695292067452918 7.6793648150818345 5.145766379231357
S 11.604314163997197 12.729276404011479 13.741643872902003
S 12.157319484926512 14.720517599601504 12.980086334752691
S 11.852051992186452 5.648200841955688 10.177788974736895
S 9.822028291745976 9.67989318360913 9.127605010660163
S 10.17470160242285 6.209908845404787 6.256337037384063
S 9.808911553121645 6.541259319005794 10.347502225867457
S 7.2827529700517175 11.293278302050046 12.03364455948365
S 8.199141720825716 14.346173248941662 11.112381203144581
S 10.655174213717002 15.891682370372012 13.279605067521885
S 7.578412889600585 13.007563645685266 9.92800929551198
S 7.879812097144856 12.649079907182404 13.210883460505901
S 5.214533489855569 12.912073390513758 11.257760956477457
S 5.822755402768372 14.240409747114454 12.459428483540556
