23
Energy = -91.61461449 eV
S 14.147920964435201 13.321035056464591 11.264373945292236
S 13.08740697433252 12.328159126468163 8.225604905537443
S 15.977347734054922 10.50417578627496 11.53557991276816
S 12.483883121667562 12.962251951646987 10.093863050343188
S 9.35446677302806 14.758215848486106 8.132043340427929
S 10.239979840636732 9.62772484789869 13.662469342482893
S 15.068126257599232 8.975481162593743 10.491647684225576
S 14.903585312851222 9.506559505217561 8.502111750850068
S 14.531452815640733 11.669736336091322 12.440731569115684
S 13.01857645175128 10.265112725050171 8.148395783248393
S 8.723281795551042 13.247450077431616 7.117097737876563
S 10.408217456700463 8.831088899901316 11.757277054641994
S 8.087001930030596 9.7209779080961 9.005705119605775
S 9.747820121196249 6.69764349329101 11.873446926389297
S 8.661670081522908 10.754047948931943 13.849665673008637
S 6.82660899464311 12.55330863992575 8.04902835635917
S 6.998486372263264 9.24014522948276 7.528080933072286
S 7.36489190756324 6.836232456593255 12.886057979245434
S 9.200174539116196 6.230151354198206 10.104266538458576
S 6.055469694817568 11.317768433033836 6.753276456132011
S 5.7962331259628685 8.69822449641298 10.583696692989077
S 4.938376907788337 8.494825451992329 8.86833355556482
S 6.495519333582846 6.628378563891858 11.175102438099062
