23
Energy = -90.57644389 eV
S 8.76240732083233 14.510004412829812 9.485035889773506
S 8.735623410448573 13.134784030930799 10.826122209590261
S 10.527662115813971 13.140063337568215 11.952170679968424
S 10.382165536061652 11.471351254540235 5.593175605599696
S 8.79798996984183 11.443183471165721 6.762721716965291
S 10.492335505980556 11.7574020406451 13.294176479147184
S 5.399728604540154 8.898124073326256 10.360677085742385
S 6.095000065807064 10.51173526492875 9.361663986590015
S 13.624935077061078 10.3244372650374 9.607919334861887
S 12.481237422244323 9.421673185914182 11.482440088405228
S 12.48148295893557 12.12847098835833 8.272505042046046
S 12.379225662482652 11.21243444970075 6.561161803518122
S 7.780470262268912 9.43571654865281 6.354460421552095
S 8.68606403976545 7.974965671796349 7.188845216129545
S 5.836144357241147 10.2711255631038 7.371599743443683
S 8.805425554248318 8.19614659312035 12.086896675064652
S 6.900522720009565 5.779456512740252 10.68496834028646
S 7.155560000245165 7.536378333543285 9.977694060006014
S 12.767734514523863 7.493709675998372 11.231496342348109
S 8.649656552241476 6.407655415667533 12.72252318876107
S 13.817940075981484 8.903117609318725 8.36033597221374
S 11.027495271046424 6.5371240805018145 10.339419904710537
S 10.381084373089191 5.237486664693735 11.66481124709654
