23
Energy = -91.88000472 eV
S 13.646556381018078 12.376429192983512 10.189833435066173
S 14.452351974552629 11.082832853418179 11.618366958432583
S 13.323159954733459 9.965381707678464 7.910583138777539
S 12.258761190267634 11.43576014976542 9.03466689152298
S 12.277530059116827 8.265862640389239 8.06228240379845
S 13.130478159954192 10.37816905134541 13.005683195774889
S 9.835388638468467 10.37120388858755 4.289688679180214
S 12.708989462086834 7.4028294767443805 10.01702962421959
S 8.782347580116562 9.027921938457103 5.481534766673894
S 8.665876281864458 11.504521197382196 11.79788056882072
S 8.55572589716302 11.683160575554824 9.727689530310446
S 13.070194339445534 11.605159777860981 14.705134530225324
S 8.50421538378386 11.072876074818852 5.731325256492016
S 10.994956952016572 6.586816911448192 10.602074696354265
S 9.842329687891413 8.259218714736479 11.489110082309342
S 10.571520198512909 14.014747382305206 14.765906648754205
S 9.898977261984019 14.334223037802468 12.831032310950693
S 7.541622577272817 8.66299405899233 8.886167427511895
S 8.115457053056327 13.314709426729044 12.624708174658606
S 11.089374676500348 12.038657594199003 15.073515075021028
S 6.886384777367526 10.676962145186032 9.112129861570153
S 8.119714223622186 7.509847214876663 12.050120916860365
S 6.734631897423502 7.502612897844896 10.279662134767127
