23
Energy = -89.88971732 eV
S 12.358593035087978 5.4188538244478215 7.594563800110276
S 13.66308999476224 8.305301529761275 10.669025269855494
S 12.619283453845522 7.413870774147115 6.480544255161108
S 10.81709930013868 5.611556861401889 8.706136871416199
S 12.03649837386705 9.299047493533179 10.34402810093975
S 11.042014248533377 8.44293542951298 7.036335244479747
S 11.93484709589085 12.366489803257732 8.984862728224972
S 8.24783195762025 7.7696103294845384 10.989210391406143
S 12.410403698725405 11.383070955693 10.74241721889348
S 8.57504034699004 9.770216730151816 5.198867300310915
S 10.307351309573734 13.564436070193393 9.17925886507334
S 6.987600779749821 5.416017840108186 8.867501802333662
S 9.561757078213475 8.129206124837731 5.409461322954318
S 9.14682815654029 12.068333706997974 13.06049494379414
S 6.1130220584311425 7.5954631869862945 8.494603530116526
S 8.610408837185119 12.519253713143272 8.39633213206641
S 6.933346418775413 6.347219295520292 11.063133061818968
S 7.587946693156631 8.771899201750129 8.939630129558303
S 5.528469079441485 4.191056677127385 8.732924883809993
S 6.99997638679398 13.153203059480687 9.446363354467803
S 10.27681822758203 13.584318666593667 13.45086297841108
S 6.544008257410356 11.844382706995658 11.036605987768601
S 7.111002085003592 12.74081464623564 12.764384557305268
