23
Energy = -89.60899403 eV
S 10.51406111628203 15.822990032759881 13.000303401237844
S 8.078708487758718 12.025059618985276 6.314929351687301
S 10.33014301579088 13.484385258909931 11.109525666786743
S 9.655391239379922 13.091887940996633 6.309604131435477
S 11.124207808472553 11.81711094824727 5.297339186941736
S 9.515377247183437 14.02890830252875 12.95637264703774
S 12.22951172725994 13.267140154133994 11.656049931374946
S 12.627539583220264 15.199111350334768 13.048620009797526
S 13.200108971390664 14.357660089207828 14.673884062063015
S 10.138514466250273 10.24029740656888 4.896995540560471
S 10.674281794110069 10.203737674277397 9.132603156226553
S 12.546456104567245 9.952838826686355 8.488431030615192
S 8.20929306069705 11.250820692302666 14.546562221619954
S 8.740714936296358 9.23053543503501 14.440665455595715
S 11.679908637104683 11.149716260421984 14.765887035229714
S 9.361966096981206 8.41858722538164 8.769624008223982
S 10.385096945070764 6.798524853595473 8.411694903357244
S 13.401634744549044 8.81389641462409 11.685857040619158
S 10.043865132682711 10.613671142239474 15.56524526008834
S 11.433037257437372 8.67269454611496 12.237272010975884
S 13.491944679348382 8.461473727857973 9.65574442384665
S 11.288192967865044 5.863286345227208 10.309319085921627
S 10.635031405782003 6.686088538835402 11.975586268866719
