24
Energy = -95.00515111 eV
S 13.529471671981138 12.7014667032713 9.271667509026425
S 11.115569496624456 11.23447184527577 6.031209312846709
S 11.6541315726053 12.905804223107626 9.975942180100407
S 14.009271636048478 10.657039007423286 9.611671883578039
S 14.273542354709848 9.70462779829177 6.391307751224488
S 15.274724006781675 10.055797463133665 8.0996636666654
S 11.469288853811364 11.807526193486469 13.733508756769238
S 10.089542864568507 12.885638035280579 8.482056978320617
S 10.308255199418692 10.181643873525184 13.636531417397768
S 9.915178220040561 13.402401980221462 13.454581675417499
S 8.990518512333615 11.2613568361071 8.654893164751067
S 9.638423237594342 10.183643080399419 6.612098957309748
S 10.019045895460401 8.041353948312272 7.48808353394152
S 13.434616796195648 7.663632507156072 6.582205505585114
S 8.284987323142477 12.259436645153235 13.265874495157238
S 13.160921027182233 7.284287428229669 8.478350318868959
S 6.3485861111380535 8.713228552107795 9.028007987698997
S 4.515463097633768 10.58528908138736 12.784557324448912
S 11.131057089757498 8.04836500771355 9.10043868864269
S 8.641365630165163 10.805721155585491 14.751616994878134
S 6.578719746840443 6.827952995865286 9.223713915934479
S 6.929927916042652 8.32539041517079 12.163354959247108
S 4.783369127999774 8.685307575739445 12.639423457499268
S 6.98631870634619 6.490363969469095 11.487444172402258
