24
Energy = -96.10089726 eV
S 9.478127595065137 9.54792811685388 5.918520491020506
S 6.404104990936311 7.8062100884440175 5.586492916773548
S 11.445225927089188 10.099391641530623 6.097530369634983
S 9.200265131118798 8.555723515542214 4.086770309249501
S 10.359218474746989 14.526869297452858 11.276028711210706
S 7.61133360739983 13.019337525385929 11.008356622194373
S 7.303971231572339 6.139085454809945 5.332012323634651
S 8.748625669909837 11.470600765212195 10.064924988973402
S 12.571107888621858 8.520367617152823 6.820056688155845
S 11.839153145908226 10.581930407535358 11.903539761103305
S 12.48436126723973 12.468560573605885 12.766577998695603
S 9.343487952012934 6.601973293743474 4.427009150736737
S 7.4678562774626345 10.160478567748793 9.19307994910012
S 9.780386025459551 14.453099369754165 13.086857958028173
S 9.264036437718598 6.522113098510121 9.074385457037838
S 7.828855668378701 12.983030446950677 12.954425230858162
S 12.199074283392482 8.34880314457902 8.853327454687138
S 11.295367896363972 6.515638385898625 9.223610842360186
S 12.676270801862612 9.128046228122132 12.952453533892657
S 6.983085840754511 8.528180431050865 10.436768421577268
S 9.465141031987056 9.547733486179864 13.918406560317793
S 11.291071223338765 13.034137909736735 14.217631314281103
S 8.641353797199844 7.456448953599503 10.886633175834517
S 11.00046435702724 8.505036221722946 14.370890609358872
