24
Energy = -92.46052816 eV
S 12.125802231056777 13.81131968773349 8.408522959215338
S 13.564199269965906 13.593549609181103 9.66458905368232
S 14.066100714704296 11.188481226368715 9.076218747278938
S 13.264166579488265 10.432199546231299 11.25720594605106
S 12.582331727877623 10.886779882540358 7.933530734392745
S 9.717445693478131 13.635834443104319 9.070252582860169
S 10.124245113623568 14.856826087089386 10.981487545846452
S 9.695909742465528 9.846074543033522 13.95784447369973
S 11.462113817758562 9.94608327826778 10.781248904150905
S 11.006140973985229 7.656323408921457 10.632562146473964
S 8.976198286880859 11.89087544773208 9.290787346478876
S 12.968067738422008 7.123330890495542 7.587262551611236
S 6.06563904571681 13.019227469859112 12.916058956823793
S 12.381778190521317 5.495686253024894 6.536331821787302
S 7.554731952718573 15.003798906905525 13.379567794359588
S 14.716194456347381 7.051943734827107 6.526691380714414
S 8.40506496328028 15.737864977598571 11.343847124169464
S 13.916634461876427 6.673650679965226 9.312591817305721
S 8.518312140235313 10.818113719254656 12.678177567588847
S 7.023761961606755 11.740174034398013 14.008055504738216
S 9.099504264884429 7.7929381663777315 10.567609780684014
S 8.898932946228319 14.151567301146422 14.424554924034648
S 11.319944131487226 7.205938498818231 13.072818995167648
S 9.507128904345016 7.678187992658346 13.596244411114634
