24
Energy = -94.57432989 eV
S 15.75584533860687 11.665585139009533 7.96343567508742
S 12.711591616324906 12.370924353456147 11.522013240926269
S 14.590827008587445 10.20248307742618 7.601134011424804
S 12.678613104493701 13.392391545334611 9.756729441080235
S 11.795429162347782 10.462836955676627 11.104581801306018
S 12.003243474342566 7.5610459037307445 9.219339069056073
S 6.769953260211714 12.914300162085958 12.10191298106921
S 8.71361669250083 13.400025920922294 12.323751965192598
S 11.295125139125455 6.247520760673208 13.484457573099817
S 11.923045781723538 5.351242656250379 8.899174797095105
S 10.976851830711091 9.627017067462479 12.751602121104336
S 10.940556613180613 8.176907100497383 7.63129698700044
S 11.74556289438567 15.292354953979467 9.697644154048138
S 10.87803592699963 5.281764051759176 7.195586391738659
S 8.083728945361493 10.790292446466161 9.913164023133776
S 9.389616613856468 5.922687839266809 13.498642744455909
S 8.988425017702552 15.482886796159026 11.924094387092472
S 8.928904016058201 10.038923893862508 12.94908848360344
S 9.409159795335922 6.742381149632037 7.573404438543815
S 6.519759711268184 12.074708727487096 10.16120406198732
S 10.013146323463802 15.273167025843989 8.675336561427393
S 8.516968179635972 5.596845264061321 11.811943660525882
S 7.948501994918499 9.255001090350145 11.319797935308637
S 8.436626903628715 15.907256637331823 10.071941353730876
