24
Energy = -93.74058498 eV
S 7.679931317723635 7.888061508164681 4.7870704908122805
S 9.078012266279721 7.337881574937587 6.367785412013083
S 7.6874829648850955 9.804094206149774 4.569283001383462
S 8.270321434942593 5.546661996324192 6.987119827775348
S 13.31898591616817 6.7056219090826925 12.039738738088415
S 13.990148193446762 11.241563182644764 10.155404715687775
S 6.74414875203596 5.813300353207221 8.299574634659562
S 12.463650480884525 11.529702050470226 8.966312490003094
S 7.649232510598719 9.68017622551194 8.323618905801922
S 13.157056969644652 11.586827993780666 12.285684522373083
S 11.682674998529736 7.61625033176075 9.577371050507502
S 11.816046132443788 7.604672482078889 12.796127509323048
S 10.661614904375286 8.251421135146728 11.058523900605993
S 12.426527634907492 13.736620130127351 8.714543292245384
S 7.679086659331706 5.744887579160636 10.253589323709068
S 8.520386187778687 11.17921300798894 9.501264157129542
S 11.241907408374628 11.917474843740663 12.044119734502706
S 6.534110872831303 11.314601071382441 8.943569529162012
S 10.571236801239522 14.207748158831766 8.335966260208613
S 11.028843012058589 14.0927575114933 11.706247433068116
S 7.076565117153011 8.796673919546697 11.805271037109755
S 6.455689578669276 6.699550815123297 11.507127380877977
S 9.55693926223196 14.287163189971213 10.422147009538557
S 5.501953046803568 9.928806732127393 11.724393989464133
