24
Energy = -95.07005296 eV
S 16.37366953041121 7.167706081213001 11.038734784744035
S 16.418316090787293 9.008614160479137 10.47583161783367
S 9.748591683922898 8.421389257577324 7.105605605672662
S 14.846482538262457 11.242505362895605 8.634736343364438
S 13.389357038510148 12.022723179547112 10.424073834216049
S 14.784326611377152 9.33155460233289 9.002622506755385
S 10.825754370092367 7.205804618305136 10.100509740801709
S 9.204165419850188 6.337638448738876 9.395360313245304
S 11.272148041831475 12.196673997419401 9.045804951383612
S 12.967938139420186 10.422102355332722 11.352158937775675
S 11.13540917159186 8.83172183330392 8.349109343416147
S 8.118538485614165 10.291532729850536 13.028387228992303
S 7.51955302745267 7.070317236227674 10.477397417804607
S 10.484567310709641 10.590748403169094 9.75312612670541
S 6.670512258342303 8.63463451123197 9.459617802854666
S 7.320054183573415 12.114506059984622 11.981080580499276
S 9.530142627635753 12.920863683736979 14.110367646559187
S 5.024400816998853 7.996894013428865 8.408015014100735
S 5.622845972878168 7.2548825438910995 6.538649831449858
S 5.498754574453891 11.810409372888007 4.750061780600199
S 6.500060190741422 8.740137303007776 5.484068184743553
S 4.881869916472437 9.979845964561834 4.733735722625259
S 7.628994730350997 13.48357609126055 13.403499500005337
S 8.668464284315862 11.11443952891948 14.76460387840254
