24
Energy = -95.18521887 eV
S 14.48528903393866 8.379140357447755 4.888487812415162
S 14.957471946909488 6.1476671632312625 6.911981053467679
S 12.877971838960088 8.37583745714977 5.90833534840013
S 13.215201573643272 6.77015979231476 7.363774035731678
S 9.290629346754763 12.491014316328506 7.145308874002144
S 7.241843489742942 12.346813245937824 7.099788799527164
S 9.840319824702267 14.576192505201327 9.847225395677183
S 10.26909272277977 10.696291528327647 6.885631905785421
S 11.503605968516553 13.544650041984681 10.535729114956553
S 10.553539989233085 14.913985504446897 11.776139044091677
S 10.629179557591518 9.867618356947505 8.776711835072275
S 6.702445281668211 11.855585405245693 9.067488629631365
S 6.533409510189627 8.568328935756128 8.202955190022774
S 9.742821517803865 8.009556374334162 8.752127575462262
S 11.540275121725614 10.693778620909612 12.719265832256092
S 12.281438734244492 8.77726904527961 13.458957771265366
S 8.115009318090522 9.984364192202486 12.59516057818477
S 5.5128908292322585 10.18737690521495 8.932491990227234
S 10.65874814420664 11.63021221350529 14.226906753407084
S 9.437611330648535 7.047093352182418 13.475109308505132
S 7.900555191073379 7.95872466346728 9.667054971822827
S 8.469974568385132 11.492404286651796 13.841766226341745
S 10.924630107589385 7.932595051110255 14.673109537437893
S 7.790910628421802 8.229407432142091 13.736706397960896
