24
Energy = -92.52396004 eV
S 12.843888764807533 13.001109944124634 6.097751323690329
S 11.837935789750052 12.548480138328069 8.944085943547062
S 13.866659217331458 12.641034560042737 8.009287022198647
S 10.860546109398562 12.60950309119428 6.9427124181557485
S 7.025877828707594 16.710610129141045 11.404316431717575
S 8.319607482437066 15.704176751235464 12.415912276756135
S 10.16955517664548 10.881621301261836 6.463071328721494
S 14.79143708648078 10.965114314597088 7.999493379338963
S 7.687008835683594 12.467425975173567 11.622815649454951
S 13.011107641965529 11.403668225969934 11.399457509444305
S 7.471343132625802 13.751583653387156 13.088895741482004
S 13.573045624974185 11.928514115029607 13.240387940998325
S 10.063808573301609 11.800769569687025 11.843081854059717
S 11.84242561131788 14.029057206505007 13.423520180467285
S 10.436422171730685 12.742443479668877 13.746913148441745
S 9.908915049223545 9.720611776883286 12.506935816574336
S 13.621088628644026 7.890410988649087 12.563103909904056
S 12.749153555996864 10.731435178855554 14.529383707771967
S 8.77655133851509 8.146830955294394 9.762970932189551
S 10.718300453544177 7.624437956606244 9.806184572515662
S 8.280351589118277 8.891888611073995 11.747063336402682
S 13.284246533026915 5.995923850465223 12.799227930340408
S 10.95032093709716 5.621146614328702 10.405800620581774
S 11.204190203375774 5.559997870201794 12.43026864749695
