25
Energy = -101.79992032 eV
S 9.071292894907899 6.908339014304435 3.7277299033278277
S 9.189435947951235 8.938743553897813 3.7111596101548567
S 11.00400594138051 9.445775440365972 4.704008568667424
S 8.401059048475714 6.090032217495938 5.521186503758416
S 6.3350431030468215 6.05240808788656 5.553637762045338
S 10.594105964108046 11.154078594930393 5.717003055392443
S 6.931649173840471 12.562701112189114 7.641747359045679
S 7.748595193756918 10.688216079526203 7.404974290430958
S 5.69737921589886 7.489646189335009 6.891050479364586
S 9.808399267842795 10.728366974331518 7.6009702389717395
S 10.10707067884534 5.812467481956062 8.793013538774122
S 5.513106673553366 6.5830352327197055 8.739974944654046
S 11.440430009809543 7.067058029349525 9.736759746764752
S 6.562675751541704 12.767255110090167 9.676225255527436
S 10.459047027818206 10.65796099110382 11.59175747221178
S 8.758718697143253 9.53901649762512 11.9835453475237
S 9.740576328047037 13.709879276977503 10.525128451198535
S 7.125818907447895 7.05891886591476 9.934705038200319
S 8.463964949665462 5.46570410011169 9.982818073255345
S 12.210569736858533 5.942453969167705 11.331990987796045
S 10.160009259841134 12.602540789137857 12.223921616091461
S 7.7609602097476555 14.271429110176724 10.426680924626826
S 9.114904144726982 8.641218909313471 13.824664339907194
S 11.849517706729108 6.942844672189438 13.067769666855467
S 9.805768873774012 6.734014406662486 13.541681532213019
