25
Energy = -97.50941723 eV
S 8.279775454702937 12.410090429170491 5.841697243332636
S 12.300388333706787 11.960366605595633 7.24558701237154
S 7.679109822710397 8.021825375833739 8.38522150794303
S 13.040742050698396 9.866632290190045 8.135709614364538
S 13.943366552400574 12.868931144595104 6.908840442965186
S 14.943678418689263 10.118608778076233 8.061144783237006
S 9.775604929328049 10.878654341485694 9.639128725884317
S 6.564262066011096 11.941733574085903 6.548030518886662
S 6.195562610842188 9.206814758677274 8.141223766672367
S 5.996147450416651 9.87572301450353 6.045572184968505
S 12.895365145358316 12.987735066746 10.864841786863286
S 15.50961823127906 10.969708753238674 10.181204130469926
S 13.813211625509926 11.0032012498904 11.133371724770056
S 10.573624840597951 7.741443621261417 10.301684450062943
S 6.6723549378402405 11.313553992552611 8.671708697814505
S 10.086768463720569 9.49176156247567 10.950618049074942
S 11.614293399437546 13.005076302272325 12.419288648922274
S 10.120111680273718 8.553485161682756 14.943249308787061
S 12.414684342960769 14.066531376207324 14.046373180748805
S 11.935662176270124 9.197946571657281 14.257919162121969
S 13.778736237934764 12.964994015027587 15.104542666662907
S 8.820306103208216 10.263247057776331 14.72699447224672
S 13.134586030749716 9.770712753039277 15.844497341402716
S 12.755142678395423 11.71306869457018 16.41517007691002
S 8.412425548557461 11.063682640988487 16.441909634115557
