25
Energy = -99.86008443 eV
S 10.062295381324354 7.6360623998659225 4.287358044616313
S 6.57805554787915 9.997603682081131 5.732016084913407
S 10.88316486310837 9.390891037443975 5.048760735883049
S 5.096531109911957 11.255702160682022 6.583717237603147
S 7.000233964502488 4.635779566877683 6.383573454217299
S 7.440488692275491 6.648875939123788 6.126424637229654
S 9.566568683326155 10.983084767672672 4.994329778193383
S 9.544034112335506 6.548291200625934 5.943228568499256
S 12.737905155640323 9.700281749682512 8.847308448087448
S 3.837296358595788 10.081632567566675 7.512671087984176
S 8.320907643306231 10.742616477272124 6.618540172184314
S 6.535335473456312 4.345747692289605 8.332650151851462
S 11.696918845293036 7.990813644749778 8.660851812945408
S 11.394053900098132 10.993668564950008 10.296686973940917
S 5.125591397481984 7.910591393301904 9.47634978901128
S 4.885741322695458 10.107538658510197 9.73956430217998
S 10.383398078230384 12.294585640755276 9.323674441663616
S 8.40088134411814 4.434829384350379 9.405732963793419
S 9.984493402064459 9.274833369296863 10.842457417033486
S 6.458223643107577 11.153926597132742 9.429399837064219
S 12.126044878061034 6.813542510011252 10.277980387782227
S 5.470205736915819 7.233991006509704 11.360197581513141
S 7.7951594551333505 4.859433858098123 11.292074680709325
S 7.51168697069528 6.904987723960206 11.605593010745276
S 11.13630666683878 8.032211033585387 11.850381026750675
