25
Energy = -99.59597454 eV
S 8.264301361952597 10.611140688788188 5.282326787907408
S 11.601349650228048 7.811687935413952 6.443417965475771
S 10.819744804278697 6.612833621101283 7.89721647670718
S 8.747298700366635 10.847512991883548 7.14001445943545
S 12.999823814859496 10.834198783059644 6.78139951798497
S 13.233039390826908 8.878457612050598 7.26588354818687
S 9.302828090487543 7.5183817281379275 9.004509427846878
S 10.043564906668971 7.683275207490286 10.942710001873678
S 11.79562764105298 11.774212733657407 8.240468773102318
S 10.158443025144907 12.490895339643354 7.288218956097656
S 8.137306904842331 11.90610252862156 11.10101402389475
S 10.652801233465253 9.568578566120225 11.372084922306426
S 10.87991912129678 14.256411756190603 11.87436556109502
S 8.77285995292736 10.431281414774602 12.144230860301253
S 14.520721657988142 10.15951009093803 14.136966792552386
S 9.406014887140756 13.478595325812886 13.272279951280755
S 9.97727319114585 11.747693008340871 13.94466118521023
S 13.613570219194232 14.951569523669779 13.711891288694543
S 15.300913846126244 11.7403556421772 14.912268395097477
S 11.813809232003136 15.779192468462005 12.775207833630498
S 14.502494559774242 11.891193423644323 16.997194142307336
S 12.141441249044309 13.36781903278888 16.192215168301868
S 13.991392706368183 16.06771211513856 15.26866015990457
S 15.13571610882967 13.543658544303893 17.76560159683384
S 12.982514451964434 14.842500625768077 17.03996291194965
