25
Energy = -101.51740247 eV
S 8.25572864796705 8.632900874211876 4.27101003360876
S 9.239668866568264 10.274255045124766 3.452988044373024
S 6.470234027028145 9.232518829982883 5.107720303574371
S 11.491767920125454 6.700611753869307 5.567367453627646
S 12.390933815232334 9.607079170549499 4.099446989104148
S 10.188800166509306 7.026908786554562 7.130354828602867
S 10.802104450009034 10.835395963487933 4.6626834611979096
S 12.809986496815455 8.314622790500247 5.634714435902544
S 6.654377784458416 9.515646882334355 7.147704996620828
S 8.703167534671575 12.122557666934904 7.727971427436392
S 6.744640847519418 11.557854628098509 7.486661413455416
S 11.002864420858131 6.012664800249313 8.751498194646306
S 11.77400154238423 10.204230433291187 10.28579397232505
S 9.062844185367112 12.043104914859262 9.799436595897227
S 12.655969216629282 7.0550745627857605 9.397821518233302
S 3.9571266440368325 7.605747412342421 10.01814942222411
S 12.194442290931201 8.357308978179116 10.972001694455534
S 9.604043566038428 10.184494958024462 10.333968183134846
S 8.026217357048802 7.172366637376501 11.755232385282968
S 4.085397471522269 5.5241174053642785 10.57397949127522
S 7.214351404602518 5.231334798209518 12.03293142445454
S 5.776777543975434 9.544824632849402 11.939342706004293
S 3.8957537528011876 8.670358248769967 11.742772615421998
S 5.185264781451051 5.429260099536122 12.27763636391882
S 7.067143010719506 8.398367471784502 13.08441979049171
