25
Energy = -101.59598779 eV
S 5.5807056583408 10.080306326260516 6.119013118256267
S 9.69778669924509 11.075095264321176 4.993960933390252
S 11.572227969148294 10.568585918791442 5.688958562623914
S 11.063314585868637 7.430062975694632 6.676358947593018
S 4.512924526743392 9.21545050974181 7.691983727834953
S 5.841044887354376 12.077395290281304 6.562062419143778
S 9.022672948842054 12.798323410549472 5.929277609808475
S 9.09314288933471 6.983742054358632 7.090347324355099
S 11.475214024760204 9.34943262024446 7.355981667878039
S 9.110811462395752 5.612541382187512 8.653052079499197
S 7.713061358336118 12.276303155696283 7.434874900062625
S 5.81445654295687 8.712073631686122 9.155324270427146
S 12.841636924485512 6.974311262334354 10.225981112431931
S 9.879545533564265 10.84249500513129 10.228971419827726
S 5.709254057981939 10.549139262278775 10.35244208989925
S 8.714629904367781 11.766198294753428 11.734712679936353
S 11.811737111873574 11.254321391038419 10.782714693008584
S 12.65005522826165 5.434240174912564 11.487833013004755
S 8.351100902968573 6.36017708078222 10.40849965964415
S 13.856014426108441 8.579129147021579 11.132251690816059
S 5.830675338263638 10.128933963239097 12.271341607602496
S 7.955835282754086 10.330788733691866 12.901449240682268
S 12.5260801759721 9.806179780292236 12.103590167886146
S 9.823238109343695 7.229718690972521 11.636768600547702
S 10.835277851985241 5.847499074994711 12.664692865097662
