25
Energy = -100.04420437 eV
S 8.318075609575544 9.807997852865405 6.866339594895783
S 9.29198995252734 8.47151562189404 8.042552902961775
S 13.041916264652471 10.14466876058579 7.203236002662954
S 11.319248323047685 12.045769897695477 8.80389050323939
S 7.533139799157099 11.296153097366926 8.088200238025548
S 8.60093361069752 5.2367354480652155 8.181450858306274
S 12.520835806013718 13.53764618704433 8.922695153714484
S 7.722954005879578 7.056135645597431 8.410804651365208
S 5.820170481753902 10.504422575195402 8.966373713772759
S 11.426176150133923 15.43718433058868 9.434828130000785
S 14.00064251327697 8.90553299022852 8.338638002782218
S 13.02853461015925 7.370270054024395 9.003462273886429
S 9.188418002203473 14.609228976556095 11.860626017378008
S 8.969289297342984 4.437007242541979 10.059781370177012
S 10.823796926211743 5.143116150978908 10.685289816087165
S 11.036344187580983 15.37827005774894 11.420113713055128
S 6.049256942848007 10.439847136567675 11.007334844037041
S 13.608722360853697 13.119133687333063 11.084976470069211
S 9.3550433223903 12.494961230255862 11.848022304855578
S 10.188683735422869 8.334580034060885 11.688221115282548
S 6.6943376082717565 8.59006528577905 11.7242907351372
S 10.596929220705043 6.3721288033161825 12.302751153699603
S 12.56954526534225 11.53730255550081 11.556709446388533
S 10.96967291397506 12.00922326641839 12.948434291631479
S 8.48956690269875 8.885326924511892 12.715200509310536
