26
Energy = -103.39629935 eV
S 15.016530259444067 13.566906977668292 12.037175351245178
S 14.371445278444977 13.97215401160171 10.263624093876883
S 14.046330508677153 10.0897648421309 14.960105809453152
S 13.973597799722674 8.318146397884558 15.6757713218452
S 13.483171874054278 9.941001656555658 12.753211517376887
S 13.302278645858475 7.985270528650232 12.487852585596583
S 11.702314321881005 9.013181267554824 8.487954451273485
S 12.93070399661316 12.459744155823927 9.699472764447624
S 10.482347918938261 8.990312810912572 6.33162970344341
S 10.468488482189402 14.576076893069397 8.824528280665573
S 8.59264582074135 10.232584979545905 6.540571054673865
S 11.935417532065259 13.349499711336584 8.13714674916936
S 11.738366855224564 7.096414198587259 8.7803377620149
S 10.072809726283067 7.877010962669808 11.551206458044721
S 9.857636025125567 12.154754220308636 11.679585042641316
S 11.379217543269505 7.3371358336292545 13.062532727671332
S 10.072815951565962 6.513227724085386 10.056204368583098
S 7.493666691444492 10.047768424226613 12.357934199393727
S 10.132288541077322 7.123352024603488 6.155235062384402
S 6.146728176466531 9.448046769239996 10.80889224028855
S 8.49319189862661 13.23106004271645 12.448264659679252
S 8.752917915972956 13.241512022304617 9.108241308732532
S 7.054865613446242 9.295117311009925 7.416844047155409
S 6.827000391957757 11.724716970145769 13.165033657214469
S 6.3154486344234755 10.4511317581486 9.047171170387966
S 7.539993288213366 14.181535091601805 10.2841399829832
