26
Energy = -103.17026984 eV
S 11.874849072210846 7.765010650889986 12.806128946164392
S 10.945795187957643 7.991678614822937 15.344313213823389
S 11.912142614238764 9.94606040155589 12.458793549130851
S 16.981689633979865 11.220003410307008 10.886133583466608
S 10.210747320866215 7.035313621436912 12.173874847262349
S 17.76718833299272 11.467126670118304 8.97755244060923
S 9.271801359607139 7.240754452275589 14.743684547330488
S 16.387142273507063 9.956562630742972 9.348236920472683
S 12.758520551440697 10.161837349211952 10.657614808983682
S 11.044019771111495 9.547884418445495 9.340995568488966
S 13.502511034965504 13.743678764970438 12.373768935089204
S 7.731740448630983 8.80148309799806 14.679556225468342
S 14.048090712925116 14.048462125060599 10.222717825370989
S 11.161527972018694 10.259938204539345 7.570409767890418
S 7.74268466552233 8.789568850636508 8.739725163895702
S 7.915606881854809 9.975368795216331 13.029992879048613
S 11.553297194959862 14.028319840108601 12.54650176512302
S 6.394087830169929 8.329641792412636 10.330816673626469
S 6.267016054078851 9.770437746667826 11.756253243819977
S 11.212731056789897 16.13156351733787 12.71360718448895
S 9.330434693248414 11.212771854296726 10.260175662883425
S 7.259797717018502 10.426485378652146 7.736170754727509
S 8.845120306375527 11.90576659215038 8.544931173019583
S 12.04493628529073 16.624944382118123 9.558891573981985
S 12.396372365946368 14.534402770005995 9.255951895627232
S 10.468330307683317 16.6232281992137 10.866478447489703
