26
Energy = -102.97401961 eV
S 13.087930211305942 6.551602369267661 10.13462046037799
S 11.492100622800319 12.196602880710312 11.834352427199425
S 11.980350147395129 8.155301088092783 10.324007036645762
S 13.207224620504505 6.031350597413256 7.925500073646869
S 13.32921201944097 9.878016860341782 10.27397544959342
S 12.060170505931147 11.446085733261112 10.02386979341144
S 8.849018195832942 12.848694715428419 13.609055346066404
S 9.744721347454847 9.517153235737858 13.189452354864011
S 11.190337641119333 3.5674061442920224 8.477432069212032
S 11.520921040811151 12.56278700563272 6.350007179507398
S 8.158161206648328 8.39119030754988 12.819551622945879
S 9.363017570601787 11.616808909248078 12.227859033483996
S 11.541477494723688 6.65181940151348 7.146164867617156
S 11.76798929525416 11.025426062228298 5.244578358842773
S 8.632329945213785 7.154636429765527 11.108192077794941
S 9.157985289421875 9.127554151659371 7.031296115110809
S 10.095271683396579 4.86095508277085 7.597145339019606
S 9.288126020494834 12.46705656839561 7.0362929711128315
S 6.342081983196922 12.14449668459194 9.521134030753734
S 8.663886039798275 10.938017429003303 5.971671834830633
S 6.8838831673781575 6.81011459774866 10.143450546175375
S 7.452147510887879 8.021139373257714 7.069731087143042
S 5.3557981503660255 11.284756267986772 10.9060211383837
S 6.394496646436331 8.346425680064506 8.831973391776964
S 3.827528181092649 11.110111162486955 8.0733786601467
S 3.568356727239322 10.548566488887882 9.873597080777301
