26
Energy = -103.09456227 eV
S 13.559761512679756 13.663311456924722 11.228163644239944
S 13.227546823040575 14.204529681532284 14.597837259036334
S 14.552958851001282 12.53597594051137 12.478983461226921
S 12.565553228642113 15.103488849305405 13.04385482311109
S 13.792019483037585 10.57037096093287 12.715688126267175
S 13.665967738141969 10.84803041766692 8.562740418062095
S 12.349573654393811 10.502754605541742 14.213200874428612
S 11.238509623981281 6.580810979369343 8.134563227970249
S 12.793321106550732 9.405413960772266 7.650987073167588
S 12.526892791168104 5.375439901698353 9.283221502890896
S 11.325406395962181 4.2846128649143065 10.491845292955317
S 10.623441287368205 14.324903897641473 12.383151313937677
S 10.715367431134798 9.483438463441189 13.546330266286706
S 11.300184703209196 8.431326989649184 8.957914934818636
S 9.154417748423217 10.760535117192948 12.867126523695722
S 11.217256411196033 10.368284653222645 6.079040294047596
S 9.386330465983457 10.065641334760482 6.746369523090307
S 9.223409331363074 15.398705965016038 13.449826639033393
S 9.924970291323433 11.577000356849258 9.70233138462656
S 8.715590900904479 17.040263069435042 12.425487613090636
S 7.232959635107443 16.208333416433142 10.934725479388996
S 10.870651839260505 5.5946819092605455 12.159442655325341
S 8.835848833032298 11.71454720207404 8.027385639958009
S 7.212260837387229 14.298338049319744 11.088534187094298
S 8.753357627471441 10.243326342915301 10.971849887077386
S 8.960802990006629 5.597459181631129 12.449023658974816
