26
Energy = -100.47923326 eV
S 10.157644742571495 14.94816626118329 4.997159709651135
S 13.804521103218045 12.563291889823647 8.03790772649652
S 12.148141021987986 13.450498748990704 8.583870717246404
S 9.581989266934677 14.38256623045894 6.749010475506727
S 13.410739589920064 10.700112673989057 7.002713515222217
S 8.285025528021427 12.963407538451344 6.871451048078312
S 14.032196981652074 9.10685912755528 8.059774208849554
S 8.941505211464454 8.097182326201066 9.431947977173353
S 8.082743104913433 9.868246569259206 9.91305933852812
S 9.769791772916747 12.386644216532579 11.388011115299346
S 11.794681822561582 12.244133993917977 11.131661209032329
S 12.218333809418956 8.310754588928267 8.912124419310416
S 8.873717783996662 10.550154897390177 11.727022113592858
S 12.668677142536332 7.107928144663713 10.504999701935317
S 6.215813459013181 13.697708049146895 11.553666614655983
S 7.561842927185718 6.794722920978727 12.258097873460407
S 5.2030018483512706 12.122917764919409 11.220474866664128
S 12.396992202249693 12.144302965729546 13.187694986441445
S 12.326331345695579 8.00718672879227 12.30395629377593
S 6.39970616018223 11.182995870469272 15.449895642189697
S 8.07568816979303 10.333410551371083 15.154807991830118
S 7.67953952368224 6.5739635652366575 10.344341437998779
S 14.801872200778407 10.372839799698655 11.67555494018933
S 14.45909298097642 11.781128502496598 12.990498166899508
S 14.3560882022405 8.429041479711808 13.088485984667106
S 14.140550182257021 9.21350689537092 14.819755897649847
