26
Energy = -101.67066494 eV
S 8.120190825041286 8.193027231536547 7.581783466209504
S 9.86334036902648 10.169948942781076 5.463166446624507
S 11.19940653694404 12.198203946253862 8.8367298171706
S 8.846426318460225 7.1849957213870645 12.082034195351001
S 7.537012720419144 10.252913568209742 11.735213606857199
S 12.065313244846777 14.51024163046966 11.29407049490801
S 10.594251303470683 9.233459512260177 15.792327493557123
S 14.186812048131214 11.358082820772344 7.801162082310938
S 8.66756587128644 8.544159057330491 5.330033438695832
S 14.230388634822594 10.78870123652097 11.512552303346025
S 5.744528432866667 10.810751215107652 10.505675959019548
S 5.966830349642269 9.202241983951758 7.595877211734164
S 13.987282429933082 9.643518465618234 6.933086031020521
S 12.67898763291814 8.395977739665447 13.293549351087943
S 9.170562786863805 6.906886617824679 13.994264433954909
S 14.48596714909597 9.130218885895902 12.742222948880688
S 9.216324406961311 9.3211788400466 8.649729856148443
S 7.278566024633025 11.00640694734506 13.477238260174968
S 14.15785573851727 12.467732189105359 12.722073717165078
S 7.015732012127924 8.03942094428916 11.692456364792516
S 12.526789882225382 12.61160675806427 7.300903694978321
S 6.35518154545642 10.90057425750006 8.545930568928444
S 12.39131106272557 9.509493297636093 15.14934393854581
S 8.852099023644735 11.829329557185433 5.715704442138916
S 12.220445682255368 13.154775717630379 12.857858329938411
S 10.673363722922785 13.864063595471366 9.907390870732568
