26
Energy = -103.02333893 eV
S 14.778041217598354 7.488282178990751 8.997217242804618
S 14.68438932121862 9.240804407047271 8.262705137091764
S 12.099779442037992 11.978135560308528 14.19992494181722
S 14.086238152881966 11.015160455089651 13.55407121006179
S 12.501863196371286 8.000214427505684 6.632589554383725
S 12.871787808825298 14.971529926873554 13.535454265034204
S 12.894176490249746 6.4216506694459765 7.7023702834525345
S 13.721649978755712 7.603751596692273 11.086787432347101
S 13.996153919711654 10.967580171555158 11.589756988947128
S 11.112834263480138 12.276246283342033 12.571031347387917
S 11.762561878246803 14.505260420932705 12.055720812561965
S 11.184901553670311 9.311708688880731 7.710579043605987
S 12.74319972230734 9.304053361548482 10.963023791136422
S 8.645025700375376 7.685550839591331 10.408042171531035
S 10.389302147426486 12.381615821309778 8.700005659899075
S 9.270742910138495 8.982830535012331 7.0111431394494605
S 7.1709789898195195 13.23876447182661 13.523091447120807
S 8.644812258615971 12.126666878280044 9.442085094490311
S 8.52286024802127 9.013217850073154 13.36991861378167
S 7.8577593689195515 9.196825330022222 11.314698838587944
S 8.90292657943709 10.137263323026977 5.385586043783483
S 8.471783270470477 12.134919703333393 6.119800725226064
S 7.203549756877954 12.01322273983102 7.607734928201857
S 7.837686599575054 11.774511794330843 15.0972289376994
S 6.090823759793895 12.319038133694283 12.237835203397442
S 7.1038162245483765 10.013538085728435 14.489972800669943
