26
Energy = -101.17627885 eV
S 10.593410769535918 6.918562435683972 4.303735360008677
S 13.1209281410558 8.735644846620348 6.821385695820898
S 9.134223924112542 9.395397787664065 5.388399504235171
S 8.893251616858114 6.23735790875058 4.827563155921192
S 11.912417821794012 6.393499727558952 7.577137221056189
S 13.855109058151598 7.47284715426025 9.146720705954927
S 11.81141324453511 9.709105983034219 7.778533234045348
S 10.603254352061287 7.374480502656642 8.525939779040401
S 7.851468857816792 7.99767850055317 5.60817490280645
S 8.792274831554215 13.831971038498462 10.186593540964852
S 13.950379802102203 11.570096537019015 11.053397896455774
S 12.5467277898193 8.47633455106302 10.073816088503232
S 8.07879214823045 13.989197831181263 8.36419052507537
S 5.556407319878297 12.943077932747721 9.689795706172001
S 8.476370710626407 12.190495302011218 7.311115398691549
S 7.9061295675176515 10.523663165963827 10.121816833503607
S 12.003835631890881 9.03450908236178 14.044156916931293
S 7.199768426443622 10.81723220448117 8.320758875792862
S 12.29593996470218 11.139153389065394 13.975521322415833
S 14.14269520941576 11.462979807496488 12.981317893657224
S 6.827887080350504 12.595472133061968 11.055709574447972
S 6.371502493546469 9.037658137520266 13.369432868467548
S 10.600621886555057 8.44497939473721 12.827832483975742
S 8.703293437397821 11.553090981522596 13.95971015519683
S 7.7855400851701875 8.267918114690035 14.694051430348994
S 7.3753506110165015 10.423336984346625 14.719583620863343
