27
Energy = -103.79056575 eV
S 17.046553752262493 10.330214058942177 10.89642856152901
S 14.307124953941345 9.716070868512187 7.69338388982705
S 13.792770780948741 9.136448389244787 15.660361156608076
S 15.795185831245872 10.733465795077459 12.301077127622442
S 11.615201180663414 7.8396711103192045 12.501417614488568
S 13.928087253344014 7.656895703751518 8.909457535633567
S 9.689464555871396 7.776019588806872 13.233167499733955
S 12.670671482338639 10.645619240935881 7.610702833576232
S 14.146652015014748 11.614726399220281 11.822924815421612
S 11.981710511876312 7.859840020375513 9.195176361632829
S 10.428731112991715 9.385474315883494 15.968601829434176
S 11.648149919299097 14.21753223095696 9.74198065750885
S 12.331530111305876 10.349094358937108 15.482886122736312
S 5.234634767159161 8.255703796571058 8.6842600118377
S 11.941699420860326 14.263227617678018 13.563976698471874
S 6.017608754704366 6.615127788367199 9.194910825633457
S 11.706817273409028 9.092734805851222 10.86354403038907
S 10.556722911317584 12.78359953292787 10.797699044842878
S 6.631935435782755 9.81655296204263 8.248710754569474
S 10.34968678737512 13.518139347138948 12.879499052132775
S 9.297720288213686 9.553227596758106 14.300185150061429
S 7.66122812293513 10.130318209344633 10.088172501317995
S 6.546383902712674 10.838752184094718 11.495638847429795
S 9.278709117751507 13.913553658658584 6.733496676611385
S 10.35893548506824 15.797812591496552 9.339195817997469
S 7.467144485338881 14.767314424843624 6.006401799900644
S 8.744920883288183 14.887705817910376 8.417850771161818
