27
Energy = -107.36857984 eV
S 12.64874536614829 10.037635823529303 14.923121520778206
S 13.80873077685847 9.187439366353713 11.092146095577112
S 13.722433713877201 10.851043991950123 13.019851452604923
S 15.091883481452586 12.38966871078783 6.551722285075151
S 10.814533511463187 8.860398832505465 9.711350379179494
S 11.714919475193408 4.709590902272058 14.609943605737831
S 12.59694226506145 10.125347297422998 9.904024833264062
S 11.234454254448186 11.40319137688434 15.207934032012169
S 11.294450025454156 5.157385395078748 12.600526884023523
S 14.596227794884422 14.001786730083932 7.486831698429743
S 10.40793036861204 6.943779761554047 12.77028087682602
S 11.658178364995358 15.387548381596764 8.298948406280504
S 12.622038623823777 12.185536534558043 12.22919639808257
S 9.151506305619938 6.569816667308515 14.596700803307439
S 8.725056233134174 12.399116211152403 11.971608742044996
S 12.634257671441993 13.660026123320495 8.411934097398317
S 9.632546997110188 4.665525906546643 14.953723815036062
S 10.25061421168793 9.232844439358102 7.796768245378518
S 9.077828018053127 10.548466889868665 12.725295749354759
S 9.332162332375448 10.62957618841054 14.776188076308493
S 8.507035973836203 13.211496709321247 6.235309690835534
S 10.450639631738682 13.701812171881377 5.6449589444069845
S 8.423679476759535 10.240926008229964 7.836276480049282
S 6.0750826218248655 14.09038966563022 10.968546493830445
S 6.56095185199712 12.582782523516407 12.070359755293637
S 8.612968838378073 12.278814906528167 8.074327907904488
S 10.901682462058064 15.563101964113834 6.26333171483506
