27
Energy = -106.49580648 eV
S 12.309160548464602 6.283286133158316 8.767403182734599
S 11.84460848160492 6.21465963796201 5.337890223485742
S 9.654812261418174 8.633918195878248 15.623264108786048
S 11.097891944350732 4.7495174892629315 8.249359348962383
S 8.720348962597773 7.050810674409392 12.800844628535103
S 7.241445075226866 8.257437654044088 13.264114702615183
S 12.677384231459218 7.259347672333963 6.69271223372261
S 11.243991652243194 10.153933559485091 13.961200809102955
S 9.290357779367945 5.392560069061786 7.833553035296041
S 10.053906910652326 8.227760348367854 11.51165755334732
S 11.716442586809404 8.439723330928606 12.536484491113011
S 9.716245277970845 11.080091691138541 13.294321526460276
S 8.104831225762409 9.520138196384568 14.956943236159324
S 11.447740959713636 9.303162533381153 6.742411369680093
S 7.2320301782124075 12.919382054572747 9.435073991350535
S 11.590693498379647 13.974927809074936 7.9206207418470465
S 10.202941125583182 9.03353779365144 5.243330648339535
S 11.784663142252178 15.379483489662075 6.599338187334892
S 9.082153585885045 11.894044496715342 9.021837493311748
S 6.18916831367936 11.409894280688945 10.369155235046296
S 9.690485793686287 12.339075009106777 7.239063672147022
S 7.0312008013245 8.621339924858272 8.951484433851935
S 8.090223362924249 9.280051177914693 5.793978153404873
S 5.426566397095184 10.133303733875021 8.992914905700447
S 11.164023956275681 14.37541980494712 9.76969785899375
S 6.406612408354355 7.143351602739924 7.839633180213982
S 6.93520870489422 7.682784823048845 5.702145980862627
