27
Energy = -106.51015446 eV
S 13.659011751501907 4.828200161487273 9.227082337379818
S 12.011475807297195 5.722486933798227 9.612791317114944
S 12.07612125964649 6.37497048499516 11.900144584486286
S 12.579405172069887 10.617227868039674 9.39307131050329
S 12.718136520126091 12.504655048129818 7.9523072854248085
S 12.374503484759623 12.02136335244113 11.442607218469293
S 10.576355430799904 4.1317360505515826 10.617550847237672
S 10.259348523346357 6.964603293033653 12.243359651067637
S 10.794110743199639 9.990932070647117 9.197484824033463
S 9.882075342591715 10.434205834170665 13.011868726180719
S 10.964971927014345 12.545127179408574 7.063578704233679
S 10.44391482437602 12.013377587596262 11.576944004493235
S 9.945279412044947 9.327545934717104 4.627725846399968
S 9.566757345520541 13.58617502287765 8.23836326073241
S 9.079463217895627 5.204667865886362 11.228765065859681
S 9.546567744812895 7.543841661540557 5.277486269557117
S 6.837974404221972 8.753148204245297 5.5245738878726955
S 7.938516190913444 10.711292377391464 13.202161410827404
S 8.181657403128925 11.957964715757324 8.388502595421043
S 7.795476125408473 10.283786067158113 4.818975324940935
S 6.2078581008618645 7.876370600819409 11.910467947832737
S 7.5619407102915694 6.213038097772206 7.763415938595987
S 7.026080050089071 9.538911544907121 11.4056970746023
S 8.26606843717835 7.909987800913684 7.24183822038054
S 5.98856785824615 12.767346654544538 10.707278203489198
S 6.353493503508502 12.770174893245521 8.609827046517355
S 5.278276355515596 10.947229691414986 11.15816106171949
