27
Energy = -106.40196638 eV
S 14.086936683516857 7.499408875082086 7.8520389789787695
S 9.330046301361493 5.257015904427811 12.150174566461253
S 15.737100933595356 10.384494567466644 8.76793650706839
S 12.043443102708837 7.179398807777385 11.849756894412941
S 15.540057747632105 10.757331534120556 6.741235774969751
S 10.847700842319119 6.342830098542391 13.258839027526186
S 14.377822558594106 8.756824415377281 9.316397187658408
S 10.179200183721232 8.866183421165207 9.605687405711475
S 11.203188987129952 9.041527323137355 11.364601671053233
S 7.615234846413592 5.543316609533093 12.995303174011267
S 13.812617880343893 11.446631695265477 6.177510776576834
S 12.107657182850167 8.150226107264137 6.912849296455427
S 11.447639751279038 9.61844262183573 8.060868287403725
S 11.803060082071957 12.657255796422614 14.267311332669674
S 10.843640265867979 13.979387524855298 12.744578709535702
S 7.3735361954220995 9.543412935985625 12.4305440912736
S 5.734474998468559 7.765707560015641 10.221526969040182
S 9.242852186452147 12.694662691560836 6.388844334534825
S 7.780785859738545 11.375187693684008 6.051428322534804
S 9.823788432169234 12.74665376780009 11.531786700468535
S 5.504562167498905 9.309559496770506 11.35678629480386
S 6.8574777372593765 11.29577687107576 7.944538564449575
S 10.893888489766695 10.96638580648137 14.350583488210214
S 7.252035279309235 11.364366048634182 13.30888876264603
S 8.121307283708118 14.193075005301798 7.634944014380955
S 7.779494142599273 12.82781554112039 11.93073862948904
S 6.325288008779588 13.315186405657746 7.678708029221254
