27
Energy = -106.93054738 eV
S 14.523821333239253 12.481912566419677 9.39226299301556
S 12.458651919234182 15.747648350398684 10.495370952221226
S 15.37246623830351 11.238877226610452 10.85043352853108
S 12.601350233704169 13.184784573597204 13.624652806453502
S 13.913131513536877 10.466394085688039 12.058878635195533
S 13.004254950789274 10.23545573372148 7.361592134151006
S 10.098720519135417 9.638456374031437 11.079121082804148
S 9.415148441401852 14.451255234920659 10.516651404625733
S 7.29385189509091 9.233644362195035 8.604485603198349
S 8.962820586568723 12.556436566919544 14.537007538213313
S 7.46939353925301 9.681200884490417 13.806955263979722
S 9.27563284996423 11.524872354925424 7.6067383644529745
S 7.868516943925733 9.963566150563153 6.906359982414681
S 10.929318310404913 15.101348883387386 9.519356559262256
S 10.73235566189389 8.398066639940627 9.602110747615265
S 9.558623164496614 7.459511336997542 6.781615028609735
S 10.43603394196744 12.197581969234983 6.129691447630038
S 11.979795290421686 10.784889340667668 5.705732191206761
S 10.719207282200797 8.934570706014371 12.878803427033917
S 11.120526578407086 12.512028977261556 15.434027939333342
S 9.028046764655043 7.340049902197615 8.618104467835334
S 8.967389352384082 7.93437983184807 13.852218612928093
S 11.665388107914216 10.764159365744009 15.937212135429586
S 14.696052144981632 11.462485046162477 7.625889090719945
S 13.956028142460047 11.757905144085656 13.750812306432149
S 7.987472736291593 10.951802997663684 15.285341716679566
S 9.568963617373349 7.599677627396309 15.641536100027203
