27
Energy = -107.64524017 eV
S 9.843898269116583 13.165431488125098 13.963199345929326
S 8.114665857038624 13.599941251881745 10.000025318888474
S 8.578502144392376 11.902452714165687 14.78874662763443
S 10.951393396803255 13.010869583360934 8.368638646959674
S 13.26918547724637 10.990017963148844 13.895578711989012
S 10.932858307310871 11.676416593844841 12.469317103609207
S 6.6813509558249535 11.942100216133127 13.819863707847674
S 8.956915350192698 12.672394121469242 8.264787002210511
S 11.996047408490277 11.420948380809277 9.278434823906837
S 12.416705990184425 9.330128821949806 14.324275100074034
S 6.48561863100017 12.520556072806029 10.548232516414275
S 10.223623396492973 9.963900832598256 12.880870082986378
S 6.816033677679105 11.034384720308934 11.986302054107624
S 8.878031099518184 11.564452603726917 3.8625152992687126
S 12.87416748209042 10.244642361633298 7.861784566395459
S 13.180636899706581 7.738256847617437 12.974058541345126
S 9.580167067891505 8.363062077115611 9.864391649908793
S 12.151570153766228 11.532077500271908 4.62177199186103
S 12.199843471841195 6.131425188869674 13.73961422664559
S 11.334190065860712 7.534870724196213 8.943910890611164
S 8.121520585448566 10.317272330613715 5.436176056799813
S 10.798055315802806 10.82553155030032 3.4161345921559185
S 9.008825418199775 6.327675159040258 12.48519624133071
S 11.541646170490063 8.706310741764934 7.311839218935378
S 8.565927751507745 6.727199795193751 10.487653939349618
S 10.814185786536829 5.286563185422332 12.446686360870448
S 8.382559431919617 8.434525744814344 5.100851230582525
