28
Energy = -111.11367138 eV
S 14.130257153959443 7.572538418982834 10.621799529365207
S 14.53640551249429 8.344707170929585 12.800075757573556
S 14.33075607386219 11.526399700671707 9.606333295172082
S 12.24183208539049 7.28656337624843 10.580752649517658
S 12.731854587524214 8.479698574447278 13.516498688749518
S 12.491324123338647 11.223285839739653 9.102077960963634
S 12.171139398537365 10.638538409296025 13.1320422195431
S 10.78074537641362 10.564130166694108 5.682615543970152
S 11.453525571917728 13.22887771006863 9.037406150641274
S 11.476602991171367 8.4242662081768 5.650831742452009
S 8.89438621657692 7.873375621941209 11.90507417422641
S 10.512830017817034 13.49360792436319 10.706476968452671
S 10.74778849377778 11.100922738215539 14.380427904621744
S 8.82249987601716 10.422023788211314 5.954288872432134
S 10.0352501829736 7.381323247307239 6.510829306893868
S 8.757775673759163 6.4463142502435 4.9911969534255345
S 9.286691813304511 9.95720498965955 11.571781725854747
S 7.446768012900673 7.335962601049699 10.60045471928065
S 8.456979110181798 10.184594878220983 8.034800637562563
S 5.5675240968561965 7.861052054806288 11.436446072307211
S 6.563381366546309 5.7672638735169865 7.357156335582322
S 8.776319710295393 10.901180321239599 13.227834517944473
S 7.651121410069321 11.945334963177428 8.708086689831019
S 7.193899197961825 7.5626649828333035 4.567607341984313
S 4.523985782585087 8.941281462001118 10.068040202025776
S 5.582899106400002 11.755425023558079 8.565501541013335
S 5.693351411880361 7.0074721607474055 6.192188933799396
S 4.819390568743021 11.011965940338529 10.31470204381762
