28
Energy = -109.91507292 eV
S 10.442308845724876 11.955408620541663 8.563111638109946
S 6.008450062384902 12.140453198114564 9.884013331257172
S 9.845237757076465 13.423769623140071 7.2000634241399215
S 12.316261905319935 11.346297657872777 7.852648825669177
S 9.245838853312701 11.009187528316398 13.325609294866531
S 8.842788634735703 9.302656004291864 10.482891367629959
S 6.789816237352324 13.985332477609507 8.643284965182916
S 11.143653711862578 11.087290612717078 12.88981072679044
S 5.240216604473417 10.993833978251855 8.568379097812404
S 12.154533385843107 10.608834995771813 5.97865388166346
S 8.47221075473214 12.604330835976908 6.010867225658022
S 8.579819677817031 9.146131650585136 13.819185022829533
S 7.707111735376263 8.595569268698286 7.420648346428685
S 6.50162010633955 13.418630448128601 6.818214571569165
S 6.7102450139914005 6.631429839770578 7.086713012004105
S 10.298413955339438 8.18445297398609 4.688355475486428
S 11.57976896943735 8.51544406693643 6.099605370807392
S 7.966351203913342 7.802959010465737 11.992595656729469
S 9.19920806475517 8.28880198369704 8.777457530775811
S 5.9643243648630415 5.83588813089019 8.655597425261304
S 11.401207229470455 6.391817508342978 12.872853017042123
S 12.364697892049692 7.310717307312579 11.499529678373623
S 6.06933522353661 7.6423886842446525 11.863887852226586
S 12.216546146037015 6.074329956676421 9.595207383217847
S 9.19075029686148 4.805457668791543 10.13454370713294
S 8.803316959691788 5.350729274975312 6.826375167982852
S 8.485874496463298 4.074230236586211 8.27597311144454
S 11.243807312051837 4.442492470403196 10.199576899010468
