28
Energy = -109.45417662 eV
S 15.02190605441291 12.821416787767864 10.315340078521047
S 15.701059181837344 9.230189430056903 12.263242288319598
S 14.481290175852518 7.604891154758647 12.348101663809352
S 15.349359817481965 13.337559449421038 12.435548424805104
S 16.80691047771692 12.20327995674587 13.032053919702857
S 15.230554537649645 10.464884646503487 14.03968089556192
S 12.686721902190744 8.124421619356442 11.453112815584934
S 8.25871460248279 9.843950119598702 6.292562293148489
S 13.58792138346532 11.409568515311168 13.762140173350355
S 11.94297245909865 13.61932940984261 9.347708374644045
S 9.848728286891607 9.563511066782244 8.952382151631673
S 9.762472766901439 8.9678977392053 5.153662951163784
S 11.458826502761061 8.619497672004465 13.115469440570582
S 13.221400444020395 12.006891680105936 10.018405440722061
S 10.324014217872595 7.725609902696293 8.937630098361849
S 8.203706074846405 9.693682934067873 12.431306213778825
S 7.552586806590856 9.248084116475454 9.90092343790034
S 10.206264265631551 13.499802920342455 10.295565026771452
S 8.29894361646205 7.803149760976328 6.076686513501799
S 10.225805070572843 7.103424562374036 13.47491333686266
S 7.573051005436355 12.490143718659732 8.581500251299909
S 10.306333159502254 14.775753434757629 12.062987703296285
S 7.6133318133301815 7.355720238667732 10.044148514717545
S 8.148094467798282 7.831309292497256 12.865911471921374
S 6.481754935548607 13.546735078937658 9.861536133836626
S 8.262293033917327 14.793879807331159 12.516412288916943
S 7.537583999726167 13.00997157686864 12.712248512822352
S 7.181584830118057 15.362012033011885 10.135404362869739
