28
Energy = -109.48197036 eV
S 14.346013623973484 14.569596274051538 11.22710113880701
S 13.846084296789746 14.864320022294295 9.39065628685257
S 10.957037846096943 13.044614179249193 7.865826369093918
S 12.931306476601604 14.599031559351184 12.547966171063782
S 7.082082492230932 13.026838292969874 11.407413375343891
S 6.487156869253783 9.924967011478659 8.355286695016048
S 8.71557329579253 11.960629849718204 14.124301538405007
S 12.478659916844041 8.29028217626274 8.018680905538428
S 16.299384666871884 10.225779054336947 9.10745820020087
S 6.1843308757063795 9.885034922970965 10.444921754502714
S 11.140263613699164 7.675825518685172 14.886913876948277
S 5.484430250729916 11.74225871811587 10.941771113284794
S 9.15564786680531 8.191305624371568 7.708809150763314
S 12.494696418967374 6.889379391926824 13.690016045547045
S 10.88269670520215 8.37657778698931 6.682392491904277
S 9.992157967875288 14.509257140698955 8.980410253954597
S 7.1526615186523665 13.303765877255254 13.411598812760626
S 14.736806571465348 10.713618032961916 7.603205220814024
S 12.771153881565192 8.869033115768053 12.29130711364665
S 13.003526527335486 10.274919987573833 8.51205909680979
S 8.439135844117965 10.229502022298817 7.958235557600959
S 12.10837191196533 10.257755524674023 13.404791645799346
S 10.767311324976886 8.195680044112876 11.04430747164735
S 11.000763472771048 12.983676682160453 9.944437571334316
S 9.482379394612655 8.923725881319397 12.349797685955878
S 15.615382349059226 10.512265159729573 10.878031899219922
S 9.266352947451576 7.528645515571781 13.92448013294416
S 9.539412378753383 12.79249576618575 15.658603211156919
