28
Energy = -111.94171065 eV
S 12.809992495635022 6.946334282641902 8.71327148532899
S 14.195943106460787 7.3171934315262614 7.388928328490399
S 12.674083415743155 10.121723484557998 11.061938614828515
S 12.654045629934762 9.257021940096125 13.132715317443282
S 13.084500840182326 8.616391525058292 5.816398351080906
S 11.918677842125183 5.006169962453146 8.018672198834034
S 10.82877452601054 4.340871393861655 9.485226910573406
S 8.208228899672177 4.9111927461387666 5.907141901047751
S 10.839486484945454 9.519865832486747 13.86923585433581
S 9.633971477079752 9.19299568836423 10.09064245383815
S 11.339783558270625 8.914770114918817 6.541361132420713
S 9.004481333291181 6.266155067268519 7.435024445321251
S 10.868735386960653 10.837801369432825 10.702199224225538
S 7.536690352661482 6.176965909194194 4.513750834369686
S 7.3018379041273915 13.608169645427882 10.390853477957757
S 7.116525735194116 14.051969248294911 8.126747039649832
S 8.77652697796926 5.395550733968614 9.167467040965438
S 5.620090873119693 6.877852336010306 5.1868358986278
S 9.607252125380956 7.93369378127525 13.134026621438226
S 8.457973791276935 8.879102047439629 11.732606144152768
S 6.537193851090587 11.836209939071983 10.645768490236765
S 6.721020479398405 9.27227800463505 7.245920319024822
S 5.7358498319055675 8.868647959451353 5.345977998719631
S 6.217870971528159 12.489872135220422 7.381449145681226
S 7.7239365615534785 10.949419966783417 6.869224129286574
S 4.4015039492611745 11.962242288291089 11.119267640801555
S 3.9268785204142205 9.954775932182708 10.86474724903786
S 3.6082850083368223 9.471917518555406 8.999496872443489
