28
Energy = -111.55288481 eV
S 15.735334314364557 10.828317509613523 11.222525515800262
S 13.30155099011777 8.810847133797061 12.114641769142999
S 15.356373745944582 12.646705585434752 14.031489255439146
S 11.391536327407813 6.226271080145644 8.486007592148644
S 15.793498187753132 12.744897911097295 12.067881829746966
S 13.819302225308727 10.253819748000595 10.725192015197964
S 10.901343221811796 6.837046203074883 6.710185675157362
S 9.63306851286223 5.4925966779378195 9.548843774903446
S 10.306155726504397 9.235092246212343 13.508790947701161
S 12.308347944130833 9.683555073508982 13.714910794358435
S 12.752048999982513 12.873029938791458 16.07206535746774
S 13.360240886843526 13.663900792036978 14.43333592096351
S 8.73916557042598 7.149283424084588 10.241170096506792
S 12.175861072229349 13.016112245901565 12.495259249117634
S 11.554051392380815 10.202531872723506 6.671856335923921
S 7.578528686892256 7.7444544114679195 8.515231534690612
S 11.630696742297307 11.89268183013448 5.793236721310735
S 10.322694807002131 10.659524933237687 8.631306600395733
S 10.129898508233223 12.576401105232287 8.542589253420818
S 9.465794468091412 13.5857321509514 14.227532032884552
S 11.50609246316015 14.724035046436931 11.834595595189814
S 9.34386307870213 10.671013448144704 12.354252410342374
S 9.526825554724022 15.043712554133814 12.878146095773952
S 8.295220971263207 11.959520887328175 13.55399635573515
S 5.945682937014025 8.760203174907755 9.151289200022234
S 7.1137150371194116 11.297490564613762 7.5051749608623854
S 8.014600064774546 13.017347074150951 7.684002194953115
S 6.428729159069903 10.733119019523238 9.489639633403993
