28
Energy = -110.79180153 eV
S 12.811162517508377 7.203350648416759 13.67097184855992
S 14.533283240096015 14.838712228189312 5.6795758141650206
S 13.258517830543672 15.124059760780346 8.79220291890419
S 14.67510269345603 9.8287121565524 16.363551964583948
S 13.362023784464451 9.080097476926445 12.451424035707143
S 14.358383837260872 11.296329109454389 14.667276207933734
S 10.878347272894464 7.304113259113053 13.805423385019923
S 14.969794935558095 15.67842803212272 7.34267437788384
S 12.878841556408178 12.000219501931001 7.579953368642863
S 12.054409837225817 14.144524151896025 7.607367319737184
S 11.118665687457296 14.697657881146558 12.200153494405393
S 11.890714936949852 11.718265996015298 5.375450220639751
S 12.491869574875858 11.700426101403087 14.424142720770643
S 12.976805221662447 9.664591621792368 17.436914838029924
S 10.093422246070812 13.192708854166135 11.376642344861038
S 9.788848122064977 10.116152458471278 15.843091616597775
S 11.868089406425161 10.792817830763523 8.655903614856253
S 8.268029317157126 11.531262185258663 8.073521794478559
S 10.080345459199634 14.824329583685275 14.191942393262606
S 11.839910710480664 10.248274932582586 12.650391517203154
S 12.111789550621936 7.874066258492367 17.079872759714593
S 8.64321734205173 11.2600917606767 6.125284944349692
S 10.59343554930994 10.333661275434727 5.857856261429748
S 8.128902340016325 13.677478204106771 11.962817616202361
S 10.185736152349408 8.248482623000832 15.94290503692889
S 8.726070781059938 13.369452758486142 13.950701806326398
S 7.414508244585592 9.629789621892622 8.716486000074768
S 7.355604107491914 9.637598523894553 10.642641010395298
