29
Energy = -115.77927194 eV
S 11.924332835180845 13.40566878711866 13.508011093951694
S 12.512186735059835 13.406872027056052 11.554209765749606
S 10.91544068051967 14.375769125312013 10.52343576354165
S 15.347929774196873 8.306562609093506 10.889580976596267
S 11.043190858138239 11.564827945191283 13.835732114904658
S 11.842608233823347 15.678948300220112 9.273621403340128
S 12.595680146012494 10.364566895155015 14.598935906031729
S 9.547929110220023 11.1774040390961 9.779612816985987
S 6.44914917216453 12.429270733552636 10.38626788736513
S 10.064060166304792 10.371151203808713 8.053265247299263
S 7.252476316037389 9.888143996447138 12.19361613283693
S 7.306853849048842 10.731156128803496 10.100248041321976
S 13.997421993908354 10.09555908383627 13.194760020835623
S 9.105227716557332 13.47774281463172 7.072812231107334
S 12.290163917718308 14.554112454525786 7.570050836126689
S 13.811381230339183 8.14490290414842 12.031554376586104
S 7.632120160193117 7.9117102135087745 12.226749948471895
S 9.537564152529711 7.528206502365666 12.994565201643018
S 9.163881846459173 11.558190738633499 6.463019899567971
S 10.676148026186366 14.629926964993205 6.304208606981855
S 11.940542061514543 8.436313509514827 10.797587191550981
S 10.7789297218605 6.916668112525994 11.437252785966791
S 7.832627718154199 7.330555413985016 8.255279610276261
S 7.812187373825097 5.017165401283063 9.067869940746784
S 8.847293549992507 6.510819876595399 6.169519120115825
S 6.144442495979406 4.5232815300710305 8.144072059748012
S 6.0250000690300505 7.576804076328703 7.730027986665719
S 7.139653619784186 5.965458176659991 5.3566592783843
S 6.62574782016613 4.065463594013214 6.136020738791605
