29
Energy = -113.83621228 eV
S 13.662219352451709 4.499055753448425 9.927374951692572
S 12.949569461498497 4.191927096880567 11.89704376272174
S 10.890020552806439 4.706742369970583 8.628092594820265
S 13.657069399862717 6.432847727452146 9.56948825397053
S 10.90095588520645 4.70451165078608 11.703955433866554
S 11.260457923646156 6.529315975562962 8.99387584889865
S 10.78240530163037 6.645931415050273 11.42183262081019
S 15.983799087626599 14.878287432948449 9.040114271290896
S 11.975027385705907 10.481288817423971 12.063956722791572
S 12.275782243653504 9.921903048696858 10.137703832492807
S 15.847232363618645 15.099072358800813 10.933300239117628
S 13.890485361963401 16.13797578141558 11.419227401651964
S 12.819489074111667 13.31741564730139 8.466701094095562
S 13.022804905473558 12.433512492495238 12.293189199153957
S 11.572748412857289 12.0312045414676 7.605803182102435
S 10.705244422228525 10.693215621056611 9.034689524687016
S 14.801972029895706 12.21874380056827 12.991361593152451
S 11.626648138604553 14.92869689802916 9.293616028648355
S 8.365167531359436 9.857580714734798 12.173389409401013
S 13.035779751747752 16.38095601529174 9.614766047169395
S 7.295067483111546 12.066611959641946 8.696844656089018
S 7.998905972588731 12.616805407292398 10.411193685949636
S 11.984102545697597 13.04670967863155 14.353705457057124
S 6.636820433468469 14.086748126201572 11.266595684462706
S 10.297987128181935 14.048442669075333 14.335437337243786
S 7.411105381263188 8.898496702813837 13.511838260890341
S 5.972769203627319 13.238245078781018 12.982655814649242
S 8.663859630502836 12.759516137077677 14.998676666918312
S 7.05400106218156 13.931318523148608 14.64395921250256
