29
Energy = -113.88554944 eV
S 11.820624208218943 13.747753569129607 5.539630837328606
S 12.553694058520778 14.306337693900158 8.761890157352163
S 11.440636769076752 9.917019946459417 5.906687273978832
S 14.039120101078279 9.782941419429152 7.7155988196771625
S 14.943439316536887 10.063768071762768 12.742155310136718
S 12.199003205814929 10.551168787709376 7.765995328292215
S 11.206195405151066 14.70037085533786 7.100005129456536
S 10.965362407373908 15.74304154946018 11.316213044522614
S 13.584172411691876 7.7598591065281255 6.8491177862074935
S 12.193730124673817 15.556766583998428 12.981086542359813
S 14.676035885594949 8.443805484656712 11.754492219305959
S 11.212463976326775 13.972278367829729 10.2548355890642
S 12.580444341657442 8.27261358165878 11.177781098255831
S 11.60563065443881 7.937402122358417 6.6098956384383145
S 10.600408325348289 13.09953313776359 14.72670303418347
S 11.011752286706702 15.16352382202857 14.611051553092661
S 11.702135372591764 9.889501245780103 11.903056107548945
S 8.500643430172158 12.622772354574412 12.213011034921111
S 11.271108563015256 9.491596506877697 13.9976242140852
S 8.634954894100472 12.922646271367698 14.320717891653402
S 8.708931631180556 8.629544612044509 9.003870710376173
S 10.574538774483589 6.388563302073591 13.329421245076619
S 8.438884329190545 6.589155745189802 8.57968290908008
S 6.618249914358724 8.844201401813379 9.017259312066715
S 6.641365853274989 11.653705506460406 12.017487007575836
S 9.766786303695772 8.10961471795347 13.76998836555264
S 7.524718690218787 5.977138282644031 10.25107482472079
S 6.511996815626522 9.938563622971987 12.926583651149278
S 6.105399137657149 7.682336289279847 10.56701766036483
