29
Energy = -113.99519942 eV
S 14.488036124621608 10.010396615475956 12.180649923850346
S 13.050387339486537 12.988416025931352 12.550255980401694
S 12.77079167464566 9.22509570347823 11.353620786932833
S 14.673689006197344 11.965502536835773 11.618317858289995
S 9.68739992505455 8.304887885927553 15.600501720962498
S 12.752530657257049 14.599790597940594 11.31295926992838
S 12.897986323813134 6.749398659277248 9.103320059192885
S 13.022776861110835 8.788060224043132 9.330620909942063
S 9.997910630910116 11.138644082022342 10.121227852936446
S 11.743941848757686 14.28854001979413 9.543324079187196
S 8.919496163484082 8.132775413713386 13.84791843327527
S 9.965241886194516 11.35470018396993 12.031783822649714
S 9.632681284339146 6.485317368609575 12.747253081092008
S 10.877260478155158 6.275182323226228 9.19576735105943
S 9.373933771466307 8.615866123027098 7.231792752754918
S 7.995122529285318 11.496952237441647 12.806651317206434
S 6.926208611116133 9.522802738853283 9.477373107969457
S 8.099157706006068 11.852934472849663 14.696746567693676
S 9.770446919834598 15.120401026279303 9.686963864402475
S 7.597626714345347 5.963267159345637 12.585363742636266
S 12.103105791167353 10.834785610343944 5.461382266714022
S 12.182612337143086 10.019404874473715 3.7213002766468275
S 6.9603852733870495 5.863379014865758 10.768552924509075
S 6.184494704666087 11.465763765355524 8.99275984414015
S 10.024497651236473 6.659481576045716 7.355680301475208
S 8.420110581175503 14.103829231787492 8.60022045629591
S 11.193709022560645 12.523189542046303 5.648954588846831
S 7.057693217038693 13.040100129400887 9.910281389112201
S 7.331203951588309 8.642385538661856 7.676475291551689
