29
Energy = -114.9012919 eV
S 12.140681128692899 5.983048510852415 3.9635414547533143
S 11.71170373019822 8.050467597392391 4.128707421230594
S 8.759924393220404 7.667717563001111 4.894924764014444
S 11.850757203328373 8.531324021295545 6.03085665287376
S 10.451369941071729 5.09726375660036 4.881546158478613
S 10.533119070068874 5.481696088606071 6.809715211104366
S 9.581896130661708 7.742403484327736 6.6022631311454
S 12.167702553233177 7.2140309549342305 10.77847131345242
S 11.125728351982339 8.384774465789093 9.694976862219171
S 12.842759683154384 8.317338942161744 12.671241034926517
S 11.202159035166476 14.62125260651122 15.078637703665672
S 8.882136464435868 6.269285257085841 10.576612614741634
S 12.853063712103358 11.731140227096462 9.845135406369641
S 10.114754626269566 12.9780496336759 14.32833298260008
S 10.281648187417169 5.843661442801865 11.79712353444439
S 10.472893015007553 15.193103242343705 11.100936090167929
S 8.190951885665966 9.918566826194416 9.127612071783405
S 10.962026098870417 14.473375628496527 9.253643762598287
S 10.95815922059453 12.396721512345112 9.37614990655758
S 10.855922323505816 16.308005221124404 14.193001257131016
S 13.028946001741508 11.591392162704153 11.891154748884505
S 11.815686645004774 10.024152261004938 12.602620106222206
S 8.353714819392117 15.47931906383185 11.123932206069819
S 7.080953016318517 9.626786912833781 10.660978747866812
S 7.4650326288012705 13.75131782724179 10.78476259651572
S 8.092854454003819 13.691196069231623 14.193971627313637
S 7.6243340348696655 7.796173776349632 12.150672768616117
S 7.223941992050202 12.665975117759967 12.766342086560034
S 9.009277757999293 7.971263229392882 13.453733210446245
