29
Energy = -115.08641219 eV
S 16.0878574046412 10.555365928574913 10.551505896326562
S 15.655145364320983 10.981501158045345 12.647616731254487
S 15.85173913708575 12.235165452365496 9.684074842397308
S 11.812714718953256 7.78912144466355 11.237403032398191
S 13.513440375124157 7.81503975770858 8.327796634219949
S 11.623046460866366 10.784093156676072 14.233207913472992
S 10.618071389172654 9.161372513711582 13.898971036041534
S 13.317500602725032 9.738219073468304 7.481712654659263
S 15.239223956316142 12.840313794787228 12.659516956734121
S 7.793338216937951 7.125581342559408 11.655845846079977
S 10.209209755073728 10.927122889654257 7.665338151595165
S 10.625822400602155 9.634300678620864 11.32427174920311
S 11.78116317833265 7.223682755427991 9.277488471511612
S 10.328178261442215 12.341908027502651 15.065444379701715
S 12.611331600756229 9.592846099918159 5.634482584814597
S 6.087507469159266 6.269149901029195 11.478039141244855
S 11.724018837749643 11.202945590830073 11.401092833924032
S 9.752483905030527 14.367921036182539 10.844923686834708
S 8.770061325711485 8.28985345030036 8.099836235421954
S 4.818206295587276 7.366037578795183 10.003329497616415
S 8.880702512726012 12.96043248484469 13.804647220775792
S 9.552505613007009 14.718205490915173 12.865072525679105
S 10.399651076100929 10.242705999413976 5.901865276384654
S 5.825205293367042 9.080998169245687 9.633432763942556
S 9.376479138779647 7.936829466505666 6.294004514378823
S 6.723238666666104 9.004812570048657 7.802522771677713
S 8.073120473872411 15.042774480584155 9.905139402641478
S 6.392220774428401 12.396410857695765 11.208202528780241
S 6.786357001532932 13.337899754104644 9.566219267462815
