29
Energy = -115.21031042 eV
S 14.424279010956493 11.590659959472834 14.984559476157184
S 13.01400214334764 10.437791793226513 15.991229179498768
S 16.257971647310114 11.167654524116193 9.926634821234812
S 13.692108694717154 13.49667996593127 14.791874223902484
S 16.246944026355322 9.874776668631315 11.362697350266021
S 14.522773005283273 10.844506320474814 8.619086889608
S 12.34038401767685 8.904318509875614 14.799198399886698
S 10.836805186845625 7.741515351570369 9.600813511929497
S 13.313436061002282 14.05410363652954 12.7787482169166
S 8.982839887965673 9.359841346565895 14.69560128888311
S 8.023042979477877 12.534261816104676 14.188594449558849
S 10.741080233610546 9.518892937500631 13.63371406281812
S 5.475231388135412 9.196439070923386 12.69999674926042
S 12.25857858687793 11.493136878236237 10.828288620525901
S 8.614418861162175 11.171626574918568 15.6286664506001
S 11.38408189909843 14.349166299022848 12.411750797522984
S 9.350304850269511 6.564207977520729 9.83602151536913
S 13.27642048876527 12.338894517726915 9.059996274200907
S 5.858235528694234 11.009337184252894 12.139544339356478
S 11.497884407045351 14.62323273496208 5.159845376775673
S 11.800713660722502 11.325756677175523 4.792843684482971
S 7.466900101822878 7.62688965784598 9.125218305581106
S 10.676293044259587 12.578421046717821 11.192903682356677
S 11.662793521996166 9.81093103110962 6.1309010674252225
S 6.019472549816891 12.344165399969121 13.823542998957251
S 10.83621707290345 12.959378832412037 5.8690707556424835
S 8.154307725968613 9.410444905681963 8.576221558707466
S 9.96592281174452 8.65790036993933 5.725531636820263
S 8.29529090122443 9.566588835810045 6.468294349855971
