30
Energy = -117.198897 eV
S 7.903474692587376 13.643417758471344 5.830000651804986
S 9.169325454866405 13.96175920717464 7.242521217580298
S 10.835802381767206 10.64484276408535 6.544404332499012
S 6.863062704624923 11.618987431177805 6.332253362637749
S 6.203768258542455 15.44716436282796 7.731416820865036
S 7.686046564158546 11.001446586469648 7.992242427624816
S 7.854758068726822 15.355914578163459 8.676314643478747
S 11.574314694991584 9.346432687608244 7.76474032108813
S 9.92637769329571 8.143289228102926 8.539666765647048
S 6.358527427463883 11.71464579794446 9.608786325856624
S 7.474643869222219 12.143647124068448 11.143693725323743
S 10.763271232598576 6.827997962779366 9.76393574769665
S 7.524460885759541 8.602436136824519 10.923039229978885
S 10.755479199045913 7.947540740635485 11.715908297448125
S 9.113435314646251 10.025927671105185 13.55006018671318
S 13.732041874442197 9.262696843887129 10.733334186468612
S 13.248533487344917 11.227367625263954 11.437587249433161
S 7.586469417120907 9.94884884843291 12.33769981923766
S 12.140801790110356 7.134840485000347 12.821917532909698
S 14.97474575404037 12.21898460332046 11.66738715906824
S 14.156932772348005 15.725343142115674 13.464910796425546
S 14.124729525209142 8.067115005509434 12.262248854886002
S 12.150488401581859 10.353235501467099 15.479262525782207
S 13.006082732566826 8.635446384769534 16.271029072156505
S 15.947031668491995 16.210575071419505 13.034188091702827
S 15.446019224629683 11.59197001760834 13.741375121701777
S 14.499910822844317 14.302129386931986 15.386060531400572
S 13.854510297332451 10.495821980393066 16.65768968203084
S 17.109114476281512 12.442133777560958 14.273126938731638
S 16.41794631775301 14.360148293275792 15.475305386216824
