30
Energy = -121.70214341 eV
S 10.434558650269171 9.684732606802722 5.142504454418228
S 11.753804106410783 8.169671034747328 4.666634499851244
S 10.926789885753946 5.290058025392169 6.085647748436498
S 11.591613928294977 11.303539083307689 5.707002213615181
S 7.321582333614821 9.862118315376579 7.389580624924425
S 6.115109630851411 11.409162670011279 6.6776834891890005
S 12.139453711336719 6.949192565817437 6.290550929049916
S 6.0993522983712 8.435403143030076 8.287026680317764
S 11.35131088296859 11.760533014386398 7.725343647977729
S 9.273595263506145 5.463630037420643 7.326125972374935
S 5.532012613886871 12.642129329152015 8.164959445107094
S 9.567658167549252 4.212022947056203 8.937792894737031
S 7.16240717750207 14.032913194691908 8.421553236881499
S 12.695479285320962 10.807492386494198 8.902590253237141
S 5.987634805648142 8.890797627095434 10.256282126882054
S 10.593375442373038 12.727611719362429 11.296550733401517
S 12.21017684561353 5.057436957225356 10.919166934149402
S 11.484164604960679 9.353365714418938 9.967418636812033
S 10.18344333480104 5.287523972997737 10.596833179501361
S 13.259951649175765 6.518073943691978 9.915996299797898
S 6.791040416537024 14.93614283445085 10.188124927270247
S 9.596222148735595 14.443393355373088 11.884332336258785
S 7.885156525354066 8.132755933471456 10.933115901960493
S 7.829052630890345 9.311517028303882 14.140277263403721
S 11.606100868366925 12.046423343627282 12.971982579999002
S 7.6280215521428225 7.671439814725241 12.886234528081253
S 7.598960377549897 13.93638060382221 11.844535940437
S 12.869818173921407 8.293894807726884 10.971869946922524
S 9.844078563714254 9.51882524273239 14.660763077817405
S 10.33348147815136 11.51722610086077 14.506926850760577
