30
Energy = -120.60072845 eV
S 10.393681441003233 5.76662634677292 4.316680197293996
S 9.174935110439073 7.100504738496717 5.251651286206411
S 12.053654181010554 5.46352408688177 5.543025317015866
S 9.926528578542953 9.040326028445016 4.754992855735156
S 6.201705091794919 7.921248925253346 6.820727594627039
S 8.309573320973088 10.156963519679122 4.246351122747774
S 7.243780930698102 7.49773999926426 8.550589307986288
S 12.105291600573075 12.229273405200136 8.506335760300185
S 11.728184827508418 3.8657742721470822 6.799500713469799
S 13.80837329941897 9.393675446404732 8.420119777327844
S 5.83878079644896 9.93050527016279 6.538439946495724
S 13.468251517919152 11.110653244195392 9.561237648088916
S 5.925545547525127 6.984555135491347 10.070873893484674
S 12.014916701334487 8.416335759183012 8.22380570384921
S 7.596332342051949 10.914196439425014 6.054092875879546
S 8.031530308391458 14.003491548281808 9.829378607359992
S 10.747634327395529 4.428516273370408 8.528382673531409
S 10.272729603733572 11.630500111493589 9.263939584538285
S 6.417782781272664 12.729971757253459 10.168664959915356
S 12.12625280594996 5.377173992418182 9.757545452802395
S 9.666609239379094 13.069773709579186 10.650257947275257
S 5.644322471336107 8.5755834376043 11.335761226873137
S 8.464449792519941 9.786682917480347 11.706885845298723
S 11.493346395590399 7.331737514815591 9.917755615382237
S 5.695266766644176 13.080607430002171 12.04430472015128
S 10.241162709083547 9.438148962158436 12.809610115641416
S 7.285660350460699 8.457017258632126 12.689122554340422
S 6.753556259944855 11.869380618826092 13.474036095450675
S 9.741913805332548 8.082791543751728 14.127919109050175
S 5.647273072495239 10.365746284102809 14.057037468653027
