30
Energy = -121.82487221 eV
S 7.9200753585959225 11.783183372193308 5.823067732717397
S 8.717426156628072 10.234188504523184 6.821757447770698
S 13.776605229813224 10.535743004086592 7.638182697731622
S 7.694833069701136 13.316100152125767 7.37720753635601
S 7.184918231996744 7.316030055836925 6.456632022835584
S 11.316264589242959 5.350131158795705 5.2950472743455395
S 12.133860444676335 11.814564851056389 7.776538947492963
S 13.05368704302637 8.211530386012868 5.4179018286421465
S 7.794200522528981 5.936682629727167 7.880030996985398
S 13.171383136018552 8.612974755563299 7.535199959878492
S 7.046477180452006 9.110571402213031 7.451102890546176
S 11.290307430825349 11.444364738909234 9.643134227581664
S 13.23079720341358 6.204583295675333 5.343766069464578
S 9.817138224310744 6.111221969489055 8.240036970895513
S 10.829089585315298 4.6541575000267565 7.167659971071307
S 4.66396212823764 8.001784617571746 9.888530961495977
S 7.079509663056236 12.450604622177641 9.042702089028314
S 7.5373997645399 7.7172146085922995 11.495684725893147
S 4.883368508738927 12.542957360086913 9.109191328054669
S 13.767838499815342 10.081654114929345 11.260884721601027
S 5.502501033389934 7.328084386590716 11.65698375677817
S 12.74173570868596 11.900618727883034 11.014120977051746
S 7.763844509467408 9.752240891818866 11.418665464581979
S 3.4587020578396808 9.626093336492302 10.297559369526322
S 4.4237878423030494 11.431044517243414 10.735328198381637
S 13.541581939537473 9.402169946919143 13.171827375139987
S 11.73392689448112 8.360386843101962 13.351577596154645
S 7.774897822193588 10.540713435304777 13.341857542829866
S 9.715847901286258 11.022327027415812 13.819046563343987
S 10.644794655141572 9.416840122896804 14.73953509108322
