30
Energy = -121.1984048 eV
S 12.352459727885087 10.992460179772296 5.757874246796641
S 6.570012777443125 9.226674644157615 5.399326220098513
S 5.9643666295993185 7.316448231064804 5.75286650311853
S 11.150987017325109 12.66580457132743 5.994771886901371
S 5.215709997995958 10.651274814005312 6.158048292988656
S 11.29066958617424 9.562368597578178 4.710015144774879
S 6.938849528104588 6.5904897566601 7.491046655148849
S 13.223204110863312 11.27488211717958 9.925660767007876
S 6.01211793494204 11.396923988599488 7.852676170790447
S 10.342502053132433 8.401470201527813 6.138516645094551
S 11.593551490933546 6.840318502439974 6.6573817008836125
S 4.643432696262623 6.745139131997867 10.076386617166559
S 9.721195890485292 12.18574591443478 7.422344213549138
S 13.076488145879352 7.582447114623057 7.91645489134205
S 5.5186157267102205 5.5947775934270645 8.568219465942661
S 11.500969899611677 9.989196403294585 9.506686546811032
S 5.2116757850567685 9.984578592021771 9.266021457389261
S 12.367712290637023 7.782342734797705 9.80503204883123
S 5.529957887320272 6.2688338173425215 11.878158303266423
S 14.712854065306582 10.23258400287998 10.803472382510357
S 10.508627468692481 12.314043765607208 9.276442801870193
S 10.181189608977062 9.971727821800284 11.163691060363508
S 4.881133054846595 10.99777378707983 10.981939617328717
S 7.13098582425686 7.4894711389535535 12.334376549719146
S 10.698731888852958 8.474749094646793 12.471303673167181
S 14.617218878419378 10.624510660466393 12.85129353009082
S 13.753801754954742 9.00772355747164 13.783822211343235
S 6.6173043687811015 10.805463351970628 12.149775746606352
S 11.742697091844672 9.356095474502343 14.038297614276562
S 6.4141147878549845 9.156818407519212 13.351235003970555
