30
Energy = -122.35377719 eV
S 6.531743505312118 9.95814091398139 4.524815650367363
S 12.214519040769092 8.036392126520537 5.791088510763123
S 7.41364259417077 11.54566092717172 5.516102694622846
S 6.327847118015842 8.430749037556126 5.902165767281305
S 9.45892011756181 11.341928508165681 5.3861588305465595
S 10.336061079987138 8.300181929803735 6.6276094134685835
S 4.434919888955037 8.507833481965458 6.7309333193285115
S 13.566996851807303 11.891600455732657 7.092044457147378
S 14.620673920451983 10.144941619828943 6.797508405073581
S 13.571315816187235 8.440062587952701 7.307415702249147
S 10.086753591629368 10.293612747224696 7.061568233576109
S 13.65814286717655 12.467979475993893 9.085634486977733
S 8.679279180646153 5.900888257069027 9.072346720086642
S 10.56210673796899 5.324069296434645 9.638748949542062
S 4.339839808364748 10.012093625242976 8.149791973027622
S 7.214157938603429 11.876294260197154 10.08510625186085
S 11.804970862941342 10.098290141227737 10.549405689093616
S 11.808518871656146 12.071164984014198 9.895523584683572
S 5.017393668393373 9.374391829792017 9.987694510833608
S 7.047719263734734 9.825713312711832 10.105665792465404
S 7.432014743828968 4.741463757565267 10.370113457212247
S 10.971795579753156 6.248963732016485 11.419611503109364
S 7.06935146575432 12.69357656116751 11.985582341123411
S 12.047898702986627 10.06069055344144 12.596146034962876
S 6.699123377283411 5.9679164791389505 11.736367321114837
S 10.135659992588533 9.948832652048388 13.377941031278441
S 9.004175845353407 13.072487291445848 12.612639055689586
S 9.813249708749414 5.111644626097489 12.815730052032848
S 9.559349367802806 11.785981878770663 14.127306535269591
S 8.253562013956262 6.208156472111099 13.332937247601796
