30
Energy = -121.57644875 eV
S 12.063270577815668 8.709872690731062 4.903364379609461
S 10.813788359473188 7.497227523373955 6.007447781586542
S 7.435959798974312 11.415126054148823 5.55622011081274
S 6.319245181645414 7.270338255573726 7.0524670166114545
S 11.983181842263633 5.8393442622076615 6.552006390835802
S 8.386907457802243 9.817259801392545 6.503598692553946
S 7.116924903654484 9.087080421582284 7.910172989440956
S 12.811646207493201 11.559153598116408 6.664217710713295
S 13.407434671797633 9.646024396796795 6.162696420658322
S 8.016617213421718 13.086229161250023 6.594490548258026
S 11.433996267704492 11.573870274308105 8.205971687832179
S 12.218618461043041 5.813134690513603 8.5608894460135
S 6.023691551100596 5.961614446702355 8.539886676199536
S 6.577425708936918 13.47534310955221 8.074900006983563
S 7.993814656480358 8.660558720010922 11.14159483794401
S 7.721122531903714 4.68409954021994 8.84930263843389
S 12.339066065092984 11.30919543951107 10.04478376935895
S 13.780630012772157 7.190238920394696 9.009736446320233
S 11.73378209352668 9.441923530283894 10.694290316818446
S 6.0027611158700855 8.479658017746173 11.627277946510906
S 5.395283190444466 10.26350913105374 12.513221475396874
S 6.913220748876122 12.352789642555134 9.7175317412148
S 8.905984249400156 7.374822321669076 12.511099384786759
S 13.288549240294126 8.057108111921897 10.784678376209712
S 8.04806479971555 4.545065397201198 10.857515610378913
S 8.264796580208515 13.558399021284847 10.920866021775938
S 8.951228497948264 12.324965922579864 12.342741937598051
S 9.620210650434466 5.818109044685998 11.38760508513979
S 6.657835846251021 10.539457997326133 14.147211830186379
S 7.51048819695565 12.384027234605473 13.89775940311704
