30
Energy = -121.93026339 eV
S 5.812940678270382 7.116285255132698 4.645022805465093
S 5.09407834341853 9.06329822483801 4.534995780370929
S 7.953957425942529 10.66126669813846 4.981776931502395
S 7.928882972239346 12.57369021397035 4.486222596137247
S 6.131291058866206 10.117906046826459 5.946072414527716
S 10.753829476678916 11.1473063036052 7.454599884782172
S 4.481059158861025 5.95813724079172 5.711217443056995
S 10.411961423989608 6.0186064184955805 7.79970172220372
S 12.32365422693361 12.20269045066289 8.235653922332288
S 12.89100095888986 7.659059238929599 9.406487846881964
S 8.759701427724147 13.645807347024066 6.29260918335276
S 4.552744553850547 6.365007328009455 7.729199105102819
S 8.831259350080902 7.420508297945613 7.671645561456923
S 11.269880978774522 6.221493039754028 9.600498033625255
S 8.956191709379562 12.256261795917824 7.685533560461098
S 6.197040792396794 5.44560130983201 8.590138098752075
S 7.4924343773482835 6.958474966827384 9.153995339756895
S 9.737566856480495 14.237926371368816 10.896283200514908
S 12.249768846116154 11.984314393116106 10.302960141664476
S 9.097321853471108 10.15269977003909 11.747299292557237
S 7.7256044059084665 11.681057854913107 11.699574403490892
S 14.316760241623177 6.798255607117606 10.492320673344349
S 11.748330659725049 13.816963229656212 11.108147122702963
S 8.658639654623117 13.37818177978879 12.440468994676285
S 8.246888867873476 7.549812820153523 13.749274770763815
S 9.69458132615008 6.2286228728006545 12.92124470045929
S 9.140754943535148 9.371226473613518 13.692781062842332
S 14.226645519245883 7.696523320375155 12.503953909028501
S 12.360673233508326 8.18240172878749 12.980480731804892
S 11.388554661184356 6.5246135846578985 13.9738407494714
