30
Energy = -121.15096142 eV
S 11.696702370341292 8.587155866472314 4.173399370484765
S 5.414184330608497 10.604151703050947 6.073637059800866
S 13.56118136146928 11.45543669018482 4.515257918776418
S 12.285658441316464 12.935814942992433 5.182297393476263
S 8.385701444179041 12.058628100087574 6.118786462666841
S 13.192477848809851 9.576431595475672 5.249401694080594
S 10.166613566276077 8.34387551091205 5.52374036675741
S 6.541736021331609 12.011715270130265 7.080156295374703
S 6.081342029836519 8.674530076609821 6.381723029515209
S 9.720775879762604 11.37631455656724 7.550783741369593
S 11.976317356013052 6.689372680906419 7.8904756730840315
S 12.600897107650734 13.02731089752932 7.253469000501838
S 5.123703079268651 7.722368192289145 7.952621863777275
S 10.443048809547786 6.538353588376257 6.490392503536549
S 10.72039399568539 13.12109901722302 8.081332395025473
S 6.432974043241546 7.674237969069601 9.54825349482627
S 11.920376469338812 9.638796656007948 9.30678366366579
S 11.250214826046555 7.6292071294779245 9.552146601852236
S 8.548068049615367 11.387812216200146 13.904212758471933
S 5.916033336601454 9.21252644797555 10.837953354339955
S 11.203089557469928 11.36948068338616 12.007553461978885
S 7.620900517597007 5.1687025472865935 13.407032167152371
S 12.63667987304148 10.238496896824689 11.141935711914027
S 9.36015920196784 8.474706636700708 12.286758180517353
S 9.314308340893854 5.845807457782923 14.388444871033283
S 10.392260897015687 6.869240351570353 12.918948514757785
S 10.022137582373082 10.206815960975453 13.574066057025293
S 4.662611897592653 8.463048220792711 12.290473864773807
S 5.99462801112071 6.040234163470367 14.340979811048886
S 5.8127921922128145 8.056296411896623 13.9749511566391
