30
Energy = -122.40215061 eV
S 9.372013839244884 9.370168147636175 3.6930132991557647
S 7.896636677403061 10.219162727696158 4.914574812553611
S 6.202760055172646 9.111192161673074 4.5590260467893655
S 10.95093760870412 8.771444950992587 4.835623209068601
S 13.863063485788375 9.772618473024584 7.164173977457533
S 12.481977217925174 11.27245189608051 6.7873706995164
S 13.407300651138923 13.057333986479396 7.257873749205224
S 10.644045356258221 6.859727051604257 5.641224583529339
S 6.237742213129659 7.347223099054105 5.633658329988835
S 5.363965050916341 7.6420100349306495 7.48033325079135
S 6.864165537038015 7.96049723312719 8.8636127606651
S 13.18478699393107 8.830171185434232 8.886156328023704
S 10.528677551442797 7.091924533656364 7.67878132401954
S 13.458730485692424 13.409146218235543 9.289300336812085
S 12.490500187635813 6.966053205998733 8.359840060984776
S 4.558837796146712 8.692804534430776 12.701295737942797
S 7.192375878633886 9.980318350104165 9.112817005680782
S 4.833431367089938 6.851429914384816 11.82881517268959
S 11.768234894609362 14.452103195076118 9.888558088491003
S 5.681067554333603 10.75463012800157 10.29309801271804
S 10.46387268466877 13.171685344798124 10.842383669886784
S 7.76301427173236 5.18080202812599 11.91622014857143
S 6.0319282422268685 5.602527702409482 12.974085331296633
S 6.021598189936664 10.077367224221964 12.220947911295234
S 9.322575821801301 9.383082171423899 12.777474226577759
S 9.971203758962757 7.7269210714315815 11.708939522025236
S 9.437373916140741 6.030842003679035 12.768189489496153
S 12.0945551638434 11.288719765665213 13.038677458529667
S 11.092679315523554 13.08474131311894 12.814693513199071
S 10.806941927006124 10.027894041581781 14.056235637116307
