30
Energy = -121.54260907 eV
S 10.53634240779109 8.544146049873303 5.2766182599211575
S 9.368939081554007 10.069553148807941 4.673096630895782
S 12.489339784560986 9.305225515036565 5.810483293914608
S 8.143770807657926 5.479474720137364 6.268900524968232
S 7.361972595050964 6.952224739026517 7.282584992101961
S 8.394479719777802 10.95944384548345 6.335728036622016
S 12.962338323762603 8.412173001472754 7.529296797296007
S 5.176353663668004 6.766076974777193 7.134952358302725
S 8.380146941053951 3.7978877396091892 7.870539166981084
S 8.793890428438754 12.959347973915353 6.188362112570909
S 10.280368771409165 14.113080197405507 9.030284628410499
S 4.622877339471559 8.690831798905498 6.923492029617741
S 10.598078870969852 13.41007788054512 7.148933887510749
S 11.916528003169425 9.660111731465278 8.978408673601423
S 8.066645690209937 4.713048151663067 9.557068276219349
S 4.139116740333445 9.443602211116747 8.84811398760204
S 8.742092309186722 12.440741116094232 11.55329205274185
S 10.276962529074106 12.354978479437037 10.232533725979547
S 5.86685873766711 9.710830846195812 9.846312835144708
S 6.073076302766464 7.784963161639231 10.818092337080879
S 10.012616141740605 5.5407141351026485 10.175721744306273
S 9.51683319287546 13.115556829882237 13.375763161164004
S 12.273119457489042 8.882826340910977 10.794085273967301
S 13.386809311426736 11.736912867646621 12.136898586639967
S 9.72027446337637 6.098457398451532 12.088775176585852
S 9.12352593632074 8.102186800086209 12.1508844229923
S 7.067940294823166 8.137399628291583 12.528559361378262
S 13.946894682715731 9.812737830411523 11.687974269188937
S 10.57268670045935 11.505236876427874 14.125000390660002
S 12.60330146901761 11.914332708000902 14.043423703452532
