31
Energy = -123.38909491 eV
S 13.017565797393631 13.647992493644804 10.394786998132643
S 14.819685819156781 9.056429768633713 7.383123780278087
S 8.103419940925072 12.675101285097877 7.195824813096751
S 9.74354056709465 11.879188763098835 13.200376462238694
S 9.018161692594067 10.88749983268467 6.602605169800363
S 12.14952159371244 7.276859018773899 8.029490685258624
S 5.270810169995138 9.10002463410918 8.370267538932627
S 11.383226496672808 6.452804159646382 13.748782005305863
S 10.485115961252577 13.670650518722626 12.650312452384439
S 10.117405487860434 6.490806588655643 10.589401805740636
S 7.90639946656797 9.489530333927041 11.779512893623172
S 10.883770898590459 7.6549104852563525 12.075404023927685
S 9.299476602932948 10.879270322140469 11.338076201070987
S 5.740675817455097 10.686084545574383 9.495976601925308
S 10.29697110144314 14.226391811434794 5.301847124453128
S 12.161764725035589 9.38951343458291 14.930164228745474
S 14.13935785296245 9.144689302844 10.714160836319317
S 14.239561661568155 7.719731796361043 8.622882111549627
S 13.35979471858605 6.399211009771392 13.895828868140105
S 12.806611689025496 11.892622797670924 9.373176412908894
S 11.579916333614314 5.777271153773272 9.257619755912703
S 13.79822256531497 8.396530072297896 14.916400402126877
S 9.286484330098558 13.628111162839623 8.47779352730917
S 5.964944267386845 10.223864305127378 11.517026751431278
S 5.506584388453581 13.306155761253695 13.830421197157634
S 10.710219983387532 14.74866888463429 7.094601262609919
S 6.402518960770647 14.328184332390247 12.501383516942878
S 8.66189892185613 9.467215318109025 8.104176266162296
S 14.614333806606576 10.803860949050732 9.811875431062616
S 12.559607138754439 13.455138828104563 12.402266986512029
S 7.164867814321294 8.231808369203844 7.63895932226774
