31
Energy = -121.39983657 eV
S 14.466061671333813 8.146797281016928 7.3953076867913285
S 9.181656265543586 9.903467803891855 10.519553997100372
S 8.703439989244007 12.219830438467682 14.29000558251721
S 14.830705666454875 11.991975159276183 12.097103738422566
S 16.61008682932442 14.195108152216564 9.376485567297912
S 13.372188212492278 11.501967901241478 14.980264512713168
S 10.381780438481055 6.607855850470758 11.32600522409987
S 12.590284318930422 7.978159296777361 13.47170408350814
S 10.017980593007138 12.92259707156633 11.230426380271034
S 10.068846754062854 15.687627280788952 7.5290839009606545
S 9.365372729858036 13.708298855830158 13.029955181876756
S 8.393419522023452 14.128220296042551 17.666174413179103
S 11.619349191117504 11.81265972796782 15.908533203642092
S 11.548425005976359 16.828463624649597 7.9986845066946595
S 11.738910383674744 11.444021683010188 8.377547315096793
S 8.625946937833538 15.665866517675235 9.066688368103017
S 11.028657937825537 6.850422079465615 13.443366963361218
S 13.591575308852178 11.99133146154712 9.034754159605862
S 8.191338020289551 9.035433145073451 12.193154117038645
S 8.628440328910578 12.367409569603357 18.349516278997573
S 7.165477985467685 14.49289560127855 8.618243051402908
S 10.139324358644974 10.834482270399832 14.748584740464551
S 15.045469351961447 7.504762324225444 9.124876828268954
S 7.128155308000269 7.512068991456929 11.507547095253353
S 11.99901617525475 10.201334354324485 6.71092231861931
S 8.504743096733973 11.834331117501419 10.323736748180243
S 13.996728505508234 10.737430413233263 10.69152934131342
S 17.313104321051725 12.953396409818305 8.119700322806285
S 13.528391426140253 12.915366762590699 13.376042972034629
S 12.301621307625764 8.289615440199208 7.324864168386672
S 8.598930264302272 5.788944955775704 11.447157831393287
