31
Energy = -121.99463108 eV
S 5.994797820339349 12.19534654527041 7.866612650237862
S 6.6683862957338675 9.779184680149761 5.651138544061419
S 13.959416960994924 10.681905310904993 12.880922711657819
S 8.868689106813662 14.4284192106476 11.205729490568363
S 8.049052049861512 11.939049481291152 9.135777407711332
S 10.588887982664012 9.067860011589193 12.91965443340578
S 11.961847989624035 9.206205834712188 8.106262819128654
S 10.677874653242625 15.02246068566097 10.40316647923158
S 8.59932815389523 7.732904739802617 10.536606103110838
S 11.147605758848142 9.741749841032458 6.328516110725313
S 6.693761062962943 9.044069220719855 10.335546683524765
S 15.183975573779197 14.170285321316248 11.03309375031613
S 14.409190097217081 11.732836838785213 14.507338600445745
S 10.23561122548586 11.776613840148938 10.241007925560202
S 14.59147475436875 7.547416753135554 9.183655462048296
S 16.117482136888697 8.92464154520833 14.814830635317639
S 11.12265483339195 13.253803216059197 9.246733908039651
S 11.518995402316055 12.171232042106391 16.11849676574471
S 15.24209029810891 8.814873156944897 13.115472008796221
S 13.273405019628573 11.091165706320977 16.15736886961681
S 9.737597232372485 8.315983898925477 5.741797038153684
S 7.154047198726574 10.876171970107348 10.8761611256215
S 7.6040839088678345 13.974370346130959 9.670250056644862
S 7.928916836738376 5.980584710491201 10.120750598504307
S 14.212709211552662 15.445638993578587 10.011010299024974
S 6.905415208481426 11.804906155905641 6.105194616544613
S 9.069109121550095 7.754175583353246 12.73316044991914
S 9.804674525209437 10.912136424641467 13.531731518791371
S 9.95058647782952 10.93688040167961 15.592198349818537
S 13.578579309753465 7.854388883602198 7.5702310847079755
S 7.9708267107423785 8.626607670268402 6.762029321705683
