31
Energy = -120.60184246 eV
S 16.637646379937785 8.465312643674382 10.308408024265079
S 17.238131256180296 9.81263201710474 11.515929498000041
S 13.376990779484546 9.252586140028226 6.419966319662361
S 14.756183133528419 10.826342453140779 9.739585064594948
S 15.894118879553819 11.50322459968178 11.120131688113778
S 12.385739586425467 8.915913549433501 8.02206043049479
S 16.309243449809173 15.518156880060761 10.863614441894304
S 12.433009768838536 10.679528990549144 13.289685826467572
S 13.215706249948179 8.892643715493751 14.431619710787867
S 11.306264156127718 11.86892247248977 6.885292983303813
S 14.472598525851629 15.84843418382827 10.46891856625453
S 12.482918651655941 8.859815793244104 16.222010528042286
S 8.519750742210263 9.963868115445443 7.48708701450661
S 10.48359305952078 6.954843017022292 14.24559065713057
S 9.401138723778217 11.30658137238701 6.15298955675595
S 9.305299243799368 8.5852650976864 13.29096898247214
S 12.12187378852592 13.332564925245139 10.277432198028913
S 11.790101845684621 11.965266337985918 14.674371592889587
S 10.63169021224677 7.418634202674739 16.127158004581673
S 12.674244702016784 11.247942748605796 5.590211577312872
S 7.178590247793644 10.963670883766799 8.587046118205917
S 7.989898585945779 9.219749772432873 14.630032685935689
S 10.013114344681302 10.691669629247372 10.421082260846038
S 10.63066770432073 14.672106459909317 9.764190285719927
S 9.668430765020519 12.110804287751208 14.675585426299863
S 11.050378880027326 14.293415253868611 11.770778943387961
S 8.907223564224344 10.698007512943827 15.901192226219552
S 8.300935511902084 11.549167062113614 10.449984046462376
S 6.405653509880142 14.5072572237165 11.193385388259777
S 5.425867257488359 13.748016199619045 9.708008282955436
S 6.426205777405536 13.532242763386318 12.860421366402836
