31
Energy = -122.13217026 eV
S 16.70292335263138 8.750562408494954 11.233691956893093
S 9.974165666379408 15.672219782825502 13.272650823671396
S 5.247709447284531 8.675752373407102 9.589191020472299
S 11.484019622937582 12.726959608762117 7.660763678192114
S 14.204356024696265 10.485508316752915 12.831710949823234
S 11.281593861437612 12.244142567106213 9.559632270585325
S 9.89056047415257 8.248653507679172 13.014688094192643
S 6.062817764932946 7.083535715894679 12.297966162123041
S 10.725555490351024 16.224188355774338 14.95586500781281
S 10.592021543479028 8.871838814680778 14.701856283523648
S 6.12768510770552 8.972794878446992 11.444137669937415
S 6.639639693834782 5.751653583606482 9.388758582904039
S 15.83466195424096 14.055284338072568 10.04257492937836
S 9.749918900031478 10.789250715340266 9.82601973373402
S 5.518882924679449 14.329187903990286 9.806371516083685
S 13.375255873474245 11.335952774195228 7.107772713714462
S 7.947852147767396 13.445020526980965 11.887955126621474
S 13.780207852376238 10.454969839988122 8.745138992192516
S 8.643948233447942 13.961558921572411 13.677705875322438
S 6.705161487860817 7.6434162970856 8.539218738282155
S 16.142500636670395 12.527255775470648 8.540399680778679
S 15.878391015929203 9.500285473160929 13.149828444833906
S 7.515380201645874 6.0364029277316 11.24705872584771
S 14.74000825728931 12.753385547258006 13.068926759214444
S 14.189914974831556 13.770265253250942 11.123447004629016
S 6.158239315904608 14.69534375938976 11.586425225171396
S 11.46191491809923 8.460496849644015 11.529177974425153
S 10.483515984251994 8.864103069043152 9.792230651848499
S 15.305230198927578 8.007790778237894 10.135841306112503
S 13.402777204639664 13.434609416399738 14.272808234017976
S 15.130306755147052 12.971504343649569 6.919636006587575
