31
Energy = -122.81265691 eV
S 11.278157576749892 12.04405539484831 7.121631396728845
S 5.663146551814278 6.932021610931852 11.119241165548189
S 12.084577369251237 9.638973633114773 13.656242296325829
S 12.436441588536438 14.357805988847865 9.489711770495147
S 15.19651925934298 13.574271634580283 11.473401347089977
S 6.617570330100951 9.249640463107394 13.350513472504577
S 14.323991375932051 8.010948663327648 8.798837124286027
S 13.919236475536621 7.676292448559723 10.775404620932507
S 7.378006017900367 7.915729473209684 12.036574901982485
S 14.199357486298762 11.971803543795028 11.174964822137252
S 6.222568329048627 11.035136487931227 12.426068073095676
S 12.37564526293045 13.904815225035069 7.028300484589891
S 7.331956129782011 6.115695216291574 8.395632622669853
S 11.26238640881565 9.368653512313971 11.780254343325275
S 6.543699121161064 5.340737174807048 10.31250701776667
S 11.883995425139524 7.491610658376243 11.131384401374792
S 8.383609959461452 12.648447133468936 5.679207094982888
S 12.045809219485914 12.673685717175807 10.371872575534507
S 10.286658385964174 10.934556443332431 16.115015685494207
S 9.29730597870508 12.544333669913277 7.451142890639631
S 8.699070596642496 9.416062138433116 6.667124970425849
S 13.894242356916488 10.016843519405935 8.33198778672833
S 8.002595643749189 13.445086905686393 10.943512115048476
S 7.927663005692278 10.458796932636549 5.264123625679656
S 14.086015672277647 13.411801771147019 6.311997151073685
S 15.152077563992394 11.274044644274358 9.257959270945717
S 8.914398464013644 5.117860763464987 7.934528216529548
S 10.720118185777334 9.17135520131524 15.162936804342074
S 8.522996832022935 13.05964963167663 14.157513284607944
S 8.224955832448488 11.995227264505377 12.186891046118937
S 8.392019965259266 11.664406199326615 15.603778193010914
