31
Energy = -123.05034062 eV
S 9.77412733091045 11.061692452371407 6.821088510877808
S 10.724049557789133 10.202145259801656 8.488622444806182
S 8.472099112436263 8.670791746910961 13.46516404918815
S 6.7141814984892525 7.904904180064591 13.541757572091209
S 12.426192895733463 14.764356232766508 8.43292132123695
S 10.45364729601883 16.229404306708012 11.630887786730211
S 15.630436917269234 12.347694926108325 14.712712557048015
S 13.55079695435565 11.457173486561794 10.880401537109131
S 6.611267466679269 6.8567036373434425 7.404197002929036
S 10.283317793594474 8.241992528354405 8.466880214872388
S 8.868591283637977 16.068421922617148 10.571131732946672
S 11.012643084611474 13.715851689090915 9.639001034591184
S 14.226422129455747 13.625135716087444 14.504887143922709
S 9.41608988969108 11.81964358660386 12.455872949686805
S 15.116066733225425 12.785271736785026 11.467645624747085
S 11.999970335524116 7.139452911651948 12.192537397543466
S 9.455693953788261 8.04755787264605 15.387219081610493
S 16.389402917500647 11.801692040532092 12.612224244227159
S 12.365830307516374 5.409982442593515 11.42286226118817
S 11.306791065351259 12.233146825535664 13.289014082714061
S 11.906958160970083 13.278431937346337 5.482386055229081
S 12.417692293753866 6.9966365562450505 14.320429067896857
S 13.228506267807148 13.460512044476104 7.095798217083562
S 12.61702952558454 10.800306125342596 12.573029636111961
S 7.3048486331648235 9.564807593994924 9.282836618441136
S 11.28477771168217 11.31972764202574 5.440248015548856
S 8.281151210697468 10.922292254179162 13.837578467682247
S 6.021946239094837 8.665073587080713 7.55970868514355
S 11.393278954440728 8.576812227368844 15.130991492781574
S 9.20615691506396 14.329455303968194 9.115027536379992
S 8.490879835962948 8.087210595995794 9.739925263569512
