31
Energy = -122.8901199 eV
S 8.287123354372623 6.698806207780296 15.009843035589435
S 11.130426989895346 5.638096287606309 8.535341135246847
S 12.690887944599169 15.814421454571935 7.992991236612632
S 12.821875015146666 13.160622899730528 5.917277064328397
S 13.379778199958036 15.425211598466054 9.869400669464007
S 5.575096176448926 12.532195777372316 8.238247670482366
S 6.515680728148117 11.123805115627277 9.160366329664702
S 8.630475524002952 11.298827428587588 8.569958241364871
S 10.71612676324372 6.319006451572172 12.777725132672582
S 13.706580895246478 10.325714876702126 7.490952706409055
S 10.363672411054948 14.683588142885222 11.124442343301563
S 12.03311917900241 7.881870489354252 12.91863241859627
S 10.442221678076812 9.301089907997737 15.39642540519464
S 9.240416543998116 8.203392585845108 7.588591139621623
S 9.691372691240142 13.948733451060985 14.573089477962196
S 9.343213598363482 8.05022832940879 16.458020728156622
S 12.205119592200703 6.9863506216860936 7.717105744716268
S 11.685684445635365 14.100087977371949 7.383019109396893
S 13.587928347069191 11.04062517572137 10.810143367326846
S 12.269185085984983 8.296492135589878 14.90993074224967
S 8.831177333686297 7.24694396348239 13.191764997714845
S 11.257245627094361 13.384845713836969 13.099659059358459
S 7.356506690414588 11.714089672530275 13.669233930218168
S 14.626341979865094 10.68507025782146 12.396623499042608
S 8.938181304813824 6.457075549711554 8.41308400345875
S 9.531557387821172 9.652274363664896 9.22622922574589
S 14.428054864386672 12.173310637750928 6.669379027672975
S 7.942256509612224 13.564707411480061 13.52624911982737
S 11.760334568932228 16.043995427362844 11.14959117245899
S 12.827819190142879 14.399972384297145 13.48059120090102
S 14.712648213852948 10.07785152217781 9.19602168294969
