32
Energy = -126.14178031 eV
S 13.645910028016296 9.458221453630273 7.775430195230784
S 10.773501215324297 15.512141298976438 8.946158665257908
S 10.18203036550534 5.840942670419226 10.466386917369569
S 13.932032624279554 11.791317895937764 10.892873727801089
S 9.613213862956092 12.690121970385071 11.444765190379718
S 12.266542892138194 8.938208761491296 12.9629000612818
S 9.727567768660933 5.665439902456445 8.363389794185037
S 6.704901110986588 10.157608989875097 10.69490125362647
S 9.79485800721628 7.719034897172781 11.102619431728511
S 8.188025512347012 9.912814513979802 13.725654480263461
S 15.201306214808358 12.186412951248109 12.482736924202472
S 14.009823321254695 6.540490232766207 11.322697073546927
S 9.529652120037415 8.511874094749919 6.650529860585261
S 13.825107669410787 7.299568857546505 13.06824145697489
S 10.392564907160724 10.222618879425573 7.768412466307014
S 14.755105744282112 12.901719381599596 9.342412885252285
S 9.284325781688318 13.961786516058014 13.050977720898747
S 12.247930247515193 10.47632698002822 6.872549408542387
S 14.721699611779009 14.137979826239398 12.996509249803484
S 11.599403923748616 8.85123848242428 11.090803389265865
S 14.15872648692599 13.039393788964755 16.47100169331855
S 14.281557846893422 14.852793893715646 9.860210302708992
S 6.4177672312361675 9.6740813118314 12.695213985925745
S 7.577888123053777 13.225462104671141 13.964076395793947
S 15.55306287393889 15.245181092515146 11.451262897704392
S 10.18119232168086 16.822345054320028 7.701060891649305
S 7.964306789217626 11.522161010065002 15.03990490988792
S 7.944085761691723 7.981176074576018 7.578439774699657
S 8.280337973913065 13.03024097940917 9.925550978935227
S 12.389168062344245 12.951133367550161 17.16125969733308
S 11.044146232500701 6.577525875863497 7.247752058415312
S 6.43464355757676 12.184232030003153 10.427235312783997
