32
Energy = -126.72836068 eV
S 13.780912664393751 14.741727649561252 10.919450544068626
S 13.576785639773552 10.161463149355134 10.427890566919631
S 11.281694026276435 7.8104703401990125 14.141640268984233
S 5.815753685137222 7.59331078094241 9.866623164248555
S 9.511079119407718 6.315927648041304 7.290142439672324
S 7.117519175634277 13.426890629933514 8.202330461158015
S 13.097482483740318 7.317968078587115 13.757748515877902
S 9.19624365427171 5.737773059232228 12.319433341489072
S 12.429927747527001 6.438515050623228 8.856296110225756
S 14.708641764392866 12.946843773744849 6.395286247544974
S 8.602282115676449 9.109498018015644 12.43776184819155
S 7.413227376086836 6.373875229791317 12.792487925054683
S 12.99269206650552 15.887132147307728 14.461092558464195
S 12.200977729986878 14.067247446999016 15.028576708341243
S 14.685027255419604 10.797855805842142 8.90331070405774
S 11.155134248289745 15.203653640740272 9.04136467930447
S 6.788357435152513 11.278598246873637 8.217848404897804
S 5.934779316620394 6.09693142907895 11.258939203128536
S 14.978005715851394 16.066969572803732 11.843668468170305
S 10.168501976680862 8.062000552568275 12.123883241123396
S 7.922711253815629 7.573253813745104 7.126466193742538
S 14.959588265612306 15.621289691533516 13.905606232490753
S 11.528263970690743 12.947218966298301 13.420774381537056
S 8.279013848500302 13.626853706642164 9.861490247823047
S 12.693461891689378 11.207402498710627 13.459401089073728
S 10.678467538902407 7.246069662288209 8.860146922457146
S 10.258344209902958 13.332450116601372 9.319833432280905
S 14.284556736568717 11.184269219669082 12.207475060976599
S 11.885340753424648 15.77484250431184 10.836660122338566
S 13.601032125625023 12.42901919749123 7.885264549179009
S 6.229209357154694 6.758974589558701 8.01340719693309
S 4.919107295038682 10.885720178949086 7.923783774269847
