32
Energy = -126.94777476 eV
S 10.994624488975623 8.981908361709554 7.712323217978937
S 13.908721148265249 9.638607833780997 12.157074942251068
S 14.395269027593491 6.6303281886752 8.940447006213178
S 8.518139731601527 7.994544168077241 11.531592569359848
S 9.236765717416825 9.948645654301483 11.293950990165632
S 6.907518334365324 9.452176697436354 15.990738982166516
S 11.921944404206718 12.848894429492267 15.034558053036669
S 9.108825011044454 8.541686062954408 7.15220910588015
S 8.441105644573865 6.834456858037691 8.30601754676349
S 13.459205737326922 12.825261293528119 5.927429794217981
S 13.377541836057947 13.569747616962694 13.498811447947613
S 10.823621508413066 14.716900491187285 6.78501085836085
S 12.956212155599617 6.213428041747695 7.500988842754352
S 7.53819745030186 12.555334303831437 15.015587149723736
S 6.7865002061532245 11.053095387545977 9.201165818080943
S 14.954045236581898 12.501823097223484 13.776726119029842
S 11.65438425677875 12.721752453149747 6.5942666600755695
S 7.733418075485203 13.942279179789386 7.80949897798828
S 8.068203146688349 11.798424553259197 7.852211071687362
S 11.911847441327152 14.588318356116115 10.541241181661892
S 8.859985648542324 13.519432484336168 13.838304653958778
S 12.649521373621743 8.519661910905302 11.103989572791905
S 9.447581990925524 6.876866979320943 10.057962993804402
S 8.876380911318025 14.406496257220674 6.201402668378666
S 12.424797541571184 7.967827982838754 6.568369274459358
S 13.463926176012555 6.596744283309467 10.765360188490549
S 7.614228282568201 11.167140531885455 11.141256844546863
S 10.43595562824116 14.204718020532349 15.07870752850845
S 12.207815080038596 12.937956306784788 11.474334263528034
S 13.323294601565488 9.117178516451437 14.300072813649843
S 11.959460897318698 7.77613341082106 14.200110447929797
S 8.226338719295756 10.475260675226748 15.026678273025226
