32
Energy = -126.39306717 eV
S 9.482229099821248 11.152833952313955 7.366312343294749
S 11.394180885591908 8.262986297889269 13.305743505241143
S 14.414020415114146 12.220925936672403 7.349501034675621
S 10.65493601147747 17.024482535711254 10.175866268274495
S 5.402520081660466 8.771156012589563 12.732352219126271
S 12.446434647475138 12.711877990348048 7.32837951741513
S 14.371459180935748 9.627591734654173 11.352863506694119
S 13.471568797627672 15.655451878442678 11.184989612576002
S 6.041041658645562 10.199676134168246 9.451241528694464
S 12.02416210908999 7.5979829888932136 9.997459485735543
S 14.382024039621353 15.516809248940058 12.990200085938922
S 16.40221572780378 5.17086477138562 12.804359722948213
S 11.382526845903561 10.90487347596946 6.793429491757754
S 7.555169413695058 6.261642846646816 11.953648827829536
S 14.587080586459015 13.544175667952933 13.502093929725644
S 8.857624980950817 11.713356316425628 10.61386194734832
S 9.068147038256068 7.1690703939400375 11.002853307899603
S 9.99668542580774 15.459498777875494 8.762140009622478
S 6.5352788983246795 11.621179558777069 10.627323118347
S 11.263969884615975 13.74525293368476 14.284884324998252
S 15.2670919675985 12.077646859056248 9.250091779036076
S 8.95876351112722 16.285353695167363 7.367162370360424
S 10.994702183445346 6.813754930517307 12.121635103030767
S 11.374951110635672 15.91835088441584 11.672794848190213
S 6.690897831222078 7.462065781271133 13.489367893639658
S 9.254949708880453 10.272604626468775 9.32583897512702
S 12.958556557000117 13.025076428914847 14.852659060569755
S 14.857766234615148 6.051319977707963 13.485517182374913
S 8.316992936280037 10.254747011135454 13.626462395637866
S 15.531424338769389 10.07460659676647 9.729547398108627
S 12.384776418489611 9.416192671595864 10.627470215594641
S 6.538180893978438 10.735504009339277 13.139060501359445
