32
Energy = -126.90939909 eV
S 14.93797015430118 12.807256339475982 11.359827507644129
S 16.566524613818295 6.587852566824667 8.038599852824508
S 9.917336270013111 16.43639356443685 14.352970421361611
S 14.307521620755386 14.731383451286074 10.869904825894626
S 11.904297336543745 11.273966649130312 16.24154149497068
S 11.684663368271048 7.940886239542733 11.529336821840609
S 8.188452945312301 8.165713206270967 11.360834780976806
S 8.522312152360081 13.452076149488452 14.49744607375528
S 5.070672997588823 8.492427116289699 12.667660188324218
S 10.250420575730818 9.374004114711303 6.403847387740558
S 6.995806911456436 11.265253433747818 10.956039846662181
S 6.1649422915315295 7.185761618033247 11.794672043063823
S 16.450021564927884 8.47511340048281 7.661915151884028
S 9.220463630837884 7.749450830169569 6.517193679858406
S 8.006876751798295 9.918253573277633 12.2649261094889
S 14.719257934927045 9.228432458460203 8.761984942785755
S 9.858883620431566 10.98023174124125 16.3540783494424
S 13.44833400275065 9.375989209530239 13.966923004040225
S 8.222866966910189 12.802492280727956 10.433798745831517
S 12.272339029618008 9.640625905762263 10.864960668173072
S 9.002394310668022 12.848503115488903 16.43902825384676
S 12.415877686659556 11.182844987304131 14.24373059173015
S 10.132987131094456 14.37784242977811 13.687512517324604
S 12.276291301278432 14.751428974546187 10.557340828098651
S 16.04606308455499 12.149454965655911 9.762280813552682
S 14.796749478920212 11.21636361045461 8.366107931235724
S 9.053454809468938 12.485944322988736 8.532792006163156
S 11.889680385506315 14.174367825639097 8.599934966115763
S 11.093137284056715 12.265423049476356 8.706852188223742
S 10.10826888052784 10.4433068467018 4.811530414409125
S 11.413868391764746 17.417633882110454 13.632095894327316
S 12.193068348759446 7.850050839021476 13.721349685220442
