32
Energy = -127.98015186 eV
S 14.891465362136838 10.91347669998884 14.72313485798206
S 13.926532272029817 8.454738542763012 12.508923252420434
S 10.538159549322701 8.989398963437939 9.308650523167005
S 10.914743053396702 15.43684127954882 10.7854132524195
S 16.41137474339416 11.016382363900803 8.041685599055324
S 12.3974231987826 17.008768628960432 11.593784696032605
S 10.548835830969765 14.460364392518645 15.567455743117835
S 11.910767345904695 10.354483424161003 8.704310673825377
S 8.57239376555892 16.0509488431431 13.043747109601101
S 14.302730805027215 13.439231994069132 11.182735901539598
S 7.67547678125865 10.33998139335859 8.210315500164
S 13.738867771880212 6.767148283064422 13.706016443848187
S 9.186786435030388 16.357130910283804 11.047687350367436
S 13.359743158385925 10.138685656518275 13.55662798531798
S 16.976085476477273 12.28821177258849 9.543613486170958
S 13.542089692743879 9.355752384973297 7.801552135780725
S 11.360327711897575 12.795468972325532 15.067396398854205
S 15.202773127824596 13.789871256451205 13.015026857739263
S 9.706029756769937 11.23476612714027 14.933198720309298
S 11.363823176918954 18.438802329090834 12.34393782853821
S 16.156374421704545 12.033431950300981 13.520716136364143
S 11.758747563939751 6.509181634289387 14.211777886591758
S 9.439198738855236 7.403756434060372 12.050990744359456
S 10.310676361480997 9.112545656360275 11.446890395900358
S 6.988654472389614 14.743140939789798 13.026990638164973
S 9.482940256476992 12.428694742409332 9.993647240456099
S 15.693584985047488 13.905562734801011 9.715495821229057
S 7.5410366346126745 12.783446450146394 13.004816669929403
S 10.77310812232784 5.867873422407228 12.51055250053303
S 15.296425993569319 9.413168651384307 8.84450489433816
S 8.571341779115597 12.034091094724099 8.321966486211778
S 8.0076028123101 12.241981492202491 15.040936405449422
