32
Energy = -124.64141362 eV
S 7.435244315818101 13.40799970567179 13.816572399337327
S 15.469784686149362 10.305902074386479 7.048655323984533
S 15.207241101143248 13.137701794373562 10.425652436835017
S 12.586588873136508 6.538730723309792 13.83818767513868
S 9.215679681176306 14.04898032840263 12.56615348484047
S 6.577378209723848 9.022555483436085 8.375841041703302
S 8.436043896303213 8.93396727875974 12.902145805147546
S 12.998064758296648 14.33323115847653 8.157587798075484
S 13.344234777423003 13.995359114914423 10.16577370519979
S 10.123259515492652 12.636423569076538 11.659357511913164
S 6.955484186335542 10.09620574976063 13.773718229092877
S 12.103088686405075 8.033163253332399 16.948774970024754
S 10.688070973946722 14.609009928839479 14.361221658521812
S 7.193560078940909 8.157884071483235 9.985387409224488
S 12.996589343058071 10.532958133154477 13.329804941205921
S 12.236173593785965 12.647046798314394 7.245490448341833
S 8.669436526163661 9.434501000374453 10.94421145817657
S 13.897114008226822 8.952406575903648 6.97765070417515
S 14.341395589984485 10.11654662666828 5.313802767411674
S 14.909186700956198 11.085853417158779 10.58840726931493
S 11.111647349507757 6.1733027026471685 10.169133638007608
S 10.857334515225089 5.976049779625574 8.296380793723818
S 7.862367955996697 11.696137710054023 14.764268223580014
S 12.388204001853337 13.865951157151725 13.710801795828026
S 9.027595479892407 13.607873377116523 6.911680822807766
S 10.679563450198732 8.83187521614875 15.62868833994941
S 7.95721454853279 16.71601225135394 7.461979258476866
S 14.945564919820082 10.528703360613635 12.569591708161445
S 11.393542735724326 6.797725624851302 15.300803749710026
S 12.886268086793176 12.02892592717147 14.70499137410065
S 8.91511481218578 15.276530405101118 8.31375759646816
S 10.275396705851348 12.341718757206353 7.887919640028625
