32
Energy = -127.02982159 eV
S 9.591109154936222 11.020839172537253 7.487732950104668
S 9.213222195479867 10.628277002161871 5.279792542972228
S 7.690432662002647 15.18911315644538 10.68562265162026
S 13.612356845737315 7.294908194902605 10.599856464044192
S 13.17586396489435 12.95387739640573 11.525029479670877
S 8.636799132750099 12.13050684886931 15.941416225728474
S 13.27166361947908 9.454631925477205 11.340310724782716
S 13.28679625985758 15.53321281634969 12.736722559535082
S 7.19472821387256 12.772613302597543 14.612002809565146
S 11.920230242000102 14.306146711275895 8.690637259271249
S 8.672830568678991 14.410363284547964 12.15738784439241
S 15.566405836079603 9.219472483066854 14.794101411092
S 10.895626408352257 10.757352713884888 4.379292924970611
S 11.94816807944797 6.367072788776267 11.041536404718185
S 12.184965160689954 13.111172217232816 7.084938261205796
S 10.154234235377722 11.319961447820143 14.74701732136519
S 14.883347472802862 10.91407767521989 14.166964811341431
S 8.779237173292573 6.757287757734909 10.174355646359674
S 11.57637151610037 9.370727874715303 12.323032850083466
S 11.68224361557266 12.64993892312415 14.680239373193203
S 13.137203892786761 11.783896847176417 16.100082619815083
S 14.146404566611535 13.180759360247812 16.939889959639196
S 8.453901815751774 8.769700113323921 11.295581318196307
S 16.300257096379976 13.904324156544885 13.338187220067573
S 10.566910871603119 6.913974060919629 9.399047956308149
S 11.565891207625294 11.134613344909974 7.576375631703522
S 10.021005849492102 9.847609665177098 10.83248384886109
S 7.576346203326492 14.686165254643374 14.009011030273706
S 13.685411725426258 13.878586571102408 9.91795543083217
S 15.156850338671932 15.498913876332015 13.871838829035916
S 13.621647153964316 16.27412588806177 10.975706914910006
S 16.27848376731564 12.420059042237698 14.770970779819582
