32
Energy = -127.8244631 eV
S 9.70999689705231 6.437508931268193 9.552090622517317
S 15.211785577436583 11.806197978552273 6.004779485747581
S 16.2978508132619 12.147731451361253 15.276196609382586
S 14.841268808111272 9.85969265841695 6.608061112571685
S 10.274525493783818 13.988105245848704 11.42820259283256
S 7.679885174031043 13.113364856802077 15.259464685230734
S 13.670031724092693 12.870366726098391 6.899453379746683
S 12.886266601183118 6.362870123632059 9.68732810079735
S 7.312670687905602 10.503585257058868 13.073496620675096
S 11.669366895632704 11.02749245625028 14.764578353902722
S 13.67777789481911 13.992638364808933 14.507423539671821
S 10.868478518767748 12.555871612541011 15.91960165008776
S 10.875343635520373 16.015430730256774 11.597036526315959
S 8.963654072265204 12.158130729684542 16.583418427878485
S 12.41364452052466 7.0755625700866585 11.393699199899286
S 13.383994480916254 17.11062304827526 13.452901772459121
S 17.854155753963816 12.996544018013259 16.0576007506285
S 10.944089829262516 11.114208330535693 12.822896477216824
S 9.666989247359677 8.346696915997528 8.21928928671237
S 13.878998604904432 16.156697754328984 11.882294574623812
S 6.399883246456388 11.682945056065716 14.419282522061302
S 9.53705007911117 9.834767027250944 9.466757494033686
S 10.037714266875414 7.096603680769234 11.332957920956849
S 13.843808803361592 10.93464458999873 9.502313820171926
S 7.2813580969877165 11.578276994903426 11.165571410713946
S 15.388333579632421 9.878430760325733 8.608207322445608
S 10.908893359104246 16.826761342180028 13.38168240716708
S 13.872316636490236 15.815798741784691 15.28392646668005
S 7.3537747075884194 10.158397492958434 9.790388866117087
S 11.800199689461026 12.585267785188247 11.667981603148519
S 14.214162367329207 12.888711323506072 8.896862572833426
S 15.480154769747111 13.342703875599865 13.705255390357404
