33
Energy = -129.49649228 eV
S 7.6873311881327355 11.448930244312393 13.59433931018687
S 5.049742200512325 12.510897128385016 15.359950724138848
S 8.754232997340283 6.882476437035271 9.590298214189906
S 13.649810574698911 13.813470816214112 10.050644124255886
S 13.826300056942204 7.768178728642002 6.203606729938791
S 14.446818960361165 15.67400415736955 11.075652300463224
S 9.100213382309773 10.160686732043208 14.307905100332
S 12.982908809168022 12.663299176971934 11.51264503765737
S 13.75563812709919 8.398293988707888 11.734855131213472
S 9.971892197193101 15.225417703192786 15.355765838180403
S 12.3603093630785 10.860289909423967 6.279947848124266
S 8.846155631342638 12.87683460024036 8.791780087181957
S 11.49938475168874 12.16133263722266 15.599738293277532
S 14.300224580008654 9.560531508761185 5.705829479442796
S 7.932592765958741 6.311162588980092 11.335791268249032
S 11.88948838892921 9.10787711244043 11.795689640045968
S 14.600851370709243 11.576503348045405 12.402710806986716
S 8.813714069995795 11.346723249600503 7.392633125390639
S 9.95951318776624 10.829795694366824 16.06526970716911
S 12.59858960493637 12.741002406643334 6.021520329108323
S 11.036833093316057 13.922699407095495 16.559935708037653
S 5.867229820092104 10.916905094195725 14.63419218908966
S 13.765668916814118 15.617864221303737 12.906624149746445
S 11.231302277923303 9.197734393585415 9.734558717966664
S 9.629369820857885 5.7078285966863245 12.563746555075374
S 16.49195592439064 12.055624716118421 6.809217088958825
S 8.521170993331163 13.315536375438542 6.783186094838029
S 15.020991065202072 10.039542429476365 11.16319481057767
S 8.973696164239334 5.4743550365733755 14.361738128544891
S 11.254048818638877 16.764862613401345 14.741155222677657
S 15.713759390314882 10.38875128317076 7.362689815551779
S 9.237008532775368 8.953695415783903 9.77533152834899
S 11.789503791113699 16.563033511804715 12.809454917903954
