33
Energy = -127.78621469 eV
S 9.256930161953116 11.926596854590041 7.807581555651743
S 12.626226718147864 12.15849106606121 4.098997966256331
S 14.000954376499374 10.109767709846796 12.790245431835357
S 14.959109679955697 10.336442000326898 14.671039236516103
S 8.806284969942187 13.580967450329608 10.690780565810744
S 10.367824392736177 9.958333467903325 8.426479308982294
S 14.151573579198075 12.214439346249264 5.271502479769179
S 10.114945728607424 13.30177349920317 8.898062624532434
S 14.37650497465649 11.971517261797352 15.508559220487845
S 10.019792211327323 9.843073289957818 11.727053825425287
S 13.341519036423172 14.752832819398952 10.853036574299104
S 9.727494636562664 10.603806205419327 3.5602506791981594
S 8.546758508002656 9.05850181426012 10.806333119900163
S 14.466644655078765 8.448092005256655 11.934797739841336
S 10.37421026919127 8.591887425795633 16.47679008840565
S 8.735451622859422 15.477940100690143 11.025721662698457
S 14.623898731398574 14.038474846711985 12.25374189187925
S 16.473388433669005 15.255096279286743 11.943625756853743
S 10.866325915010252 5.8134170286448565 9.982134884657555
S 10.654527928647857 15.39591721925988 12.781801341807016
S 7.335160430588168 8.202447714815246 14.99988524217671
S 7.110249929620085 13.708809267858022 15.274391033962848
S 9.557785765652019 11.845605409490439 16.503129142279576
S 16.16510049350936 16.616964646775166 10.63208627109708
S 12.884379990070311 5.308625871441688 10.074119198520814
S 12.381197583297697 16.35272246134845 11.578476308960147
S 11.26592520443516 10.660086137821471 4.714145649797994
S 10.883115103389056 13.506409208259779 12.732580238236949
S 9.16059250000508 7.565359973471301 15.031507861666617
S 11.469204329853723 10.467197176070382 9.913630726505378
S 7.944718814534065 11.986422862418385 15.045676652931338
S 11.879428797553144 5.918719301340519 11.78639245041689
S 10.809982937866717 10.458617462446574 15.713495005585504
