33
Energy = -130.64334799 eV
S 16.655668320379405 7.744549954718703 10.60927606479923
S 14.716447088308206 11.26669056024337 9.60734302721628
S 16.060472147630012 6.900400991769661 8.983724915002421
S 14.206076280129821 10.123885091816245 8.069000115552143
S 15.404631076255836 7.910649509976307 12.065598656764607
S 13.64192281206443 13.235204045155394 7.070286542131826
S 12.539359121703038 10.955505705112618 13.086145941395527
S 12.095692442768769 9.92097762126387 8.009427857922052
S 14.407260665258555 13.378607160597076 8.81778901183441
S 11.454932242810601 8.79331225040274 9.581934595165452
S 11.755982875355691 7.783378362688321 13.727159162343682
S 10.789909219109125 12.014740365363357 12.875846582086263
S 8.992434856158866 13.388715065920263 6.1226401786737235
S 11.545736416318492 15.221146110430205 12.77430055192164
S 12.336922447479974 9.549765683172811 14.602276790167183
S 11.65178062307192 6.759140321005395 9.227653682969235
S 9.811386399399746 15.97253060113817 11.834954495841059
S 10.345233075889755 6.180931210050703 7.717880885247295
S 9.886124335200364 13.658966734591823 9.405741283304803
S 8.258848789438154 13.772491826400172 7.847728033496204
S 9.749575649853474 7.312854077479912 14.16850398637936
S 10.900736880900975 13.751806271694655 14.037746066360429
S 8.904073646251208 14.297279907689212 11.090965072525833
S 8.55085531280559 7.879989157264497 12.678309304636088
S 7.554486232788997 11.926602902844909 8.948509060648927
S 8.179186529643072 10.005591137208034 15.30124388628324
S 8.406345245943378 6.0348416223841 8.321460367630737
S 7.5612154948119645 9.739996326388093 13.51104907200343
S 7.634008938445301 7.871799856108427 7.563838562512699
S 5.629128396065049 11.49100772671753 8.291334307989398
S 6.0442802743452 9.319848698564911 10.276310681857195
S 5.855883510899642 8.231559955367125 8.694556284742125
S 5.654595337512901 10.065888734638833 6.943852505410669
