33
Energy = -129.07127873 eV
S 13.277019611810017 8.860069487183384 10.709722750852523
S 11.976195112278214 11.889650762379835 5.853176145082722
S 13.382183074599535 6.49637474349832 8.42179708992014
S 15.783453615543204 8.612520657956935 5.988221901270247
S 8.780850336110424 13.013260416662398 9.954561915854178
S 13.426989475831917 13.392354521399128 8.4748196343112
S 8.15148208843568 10.23672772528935 8.199950066912615
S 7.879549780604949 9.701731220766796 15.80968027348237
S 9.269303246302046 7.389081016254886 11.956784429949957
S 13.314057534892614 11.008102397733962 15.75288916606048
S 13.04446776999853 6.755770975981986 10.307530495759647
S 10.352673284369109 11.876587099879648 15.969363879895669
S 10.755828601286675 12.653716214424684 14.212238710217788
S 14.009431784083766 15.287302548408395 11.593830260184417
S 6.579620636738881 15.163264432997678 11.027546306814356
S 11.18592598898105 10.182373647893371 6.784483451476719
S 7.8241520775098925 16.19374920553331 10.0011301744427
S 7.399397977718147 8.016806563338385 14.845234355892387
S 12.006055240300745 9.240853633480002 12.29139901717081
S 14.321817524017355 11.720670933328863 8.21140735027426
S 7.384956812100414 12.07831181015701 8.631687085758381
S 10.195620827649384 6.613827815906549 13.431325871040162
S 15.106547448284143 14.602920987758688 13.053717312978184
S 11.7327206258159 13.515500007342053 6.972963845366579
S 10.007404850182281 9.812353824323285 15.920048473726585
S 9.368329830822168 14.715164062350421 9.147085148677618
S 13.174194332639109 12.149519174053511 14.223134692663326
S 16.19509848811145 10.09289082213277 4.866188958979224
S 10.147667361095746 9.466946955852634 11.575276805400899
S 9.161691116455039 10.11629346521471 6.388796289470474
S 7.013147792361157 8.465344845421697 12.720634536409298
S 13.999059197854272 14.152297406811472 14.74342249410898
S 5.69210841348544 7.214016951031021 12.099797386793384
