33
Energy = -129.42465762 eV
S 9.383690818831695 9.814691125632843 9.17568370231067
S 13.704160702170046 13.782565880911081 9.577012722509226
S 8.709063868193889 12.822047411777296 15.306972093248515
S 13.878952257853472 12.304023929902117 15.868697581508936
S 8.35228196078165 11.14787981661543 16.373937454503228
S 14.722810437394939 10.191399024101798 14.751075485795734
S 7.81814611496273 9.530099022621625 15.148762263174355
S 13.754794476234482 5.979222507007392 8.736409292091462
S 13.448341645640319 13.53699868396859 14.327698216736207
S 13.290186705244349 7.581944042484596 5.6624117319905425
S 12.215442604376614 11.574861483691139 16.66923372058267
S 10.302685050668263 14.933907312218764 6.962242207022323
S 13.260408534439316 9.00834220925019 15.20869076606117
S 11.56592867715036 16.699879235032498 14.124381219981982
S 15.528380462456866 13.522874500628653 10.084829083730968
S 7.660397114568839 13.369726245748657 8.260525424782637
S 10.571908872612777 10.676500594417613 10.608360589766995
S 11.78167387061818 9.32873982926278 13.627481231871188
S 9.224942895824036 8.07717118689264 15.469242720971392
S 10.490487407012077 7.8012880258633786 13.804557020997901
S 12.78901664317949 9.297352678291714 4.972131896895482
S 11.581933323067565 15.26130886647169 12.446743684865817
S 10.675624420228385 7.209873830908282 7.583979405901335
S 11.84403543811178 15.971737483733929 7.81292364933635
S 9.703940053579874 7.742419149024574 9.265304288113146
S 12.563660239070712 10.609601042768155 9.95831662370141
S 12.8784793319825 7.521986334956319 8.016119166420584
S 10.955912266051097 13.229724313896568 14.982977692148298
S 12.881164530833376 11.953832239611028 8.493667757435572
S 13.586480091964713 14.94983224279149 7.632308552282209
S 10.211662462984739 16.07435503705012 15.325713883735313
S 10.267969609007624 13.895815976776035 13.019470057338943
S 9.460065617576895 13.904421203060606 8.689378595172641
