33
Energy = -127.76865805 eV
S 6.768257560883291 8.760662867626195 13.185710203879106
S 10.131857702564576 5.646679258798617 11.440906983904807
S 8.702282012328492 13.367712212414013 13.052946903478913
S 14.944443554624618 12.105406114428792 10.952714849255
S 10.598935939525605 7.732819234930837 15.61587093513641
S 9.684237572563562 15.75008148723178 8.568810557264715
S 9.065152357568422 10.714387083471882 9.488132574077119
S 13.935672146853149 16.18544810486638 14.183571470173066
S 15.571750515245393 11.501325421841397 7.027435524361775
S 10.623289829503047 13.22807564955222 12.010245647521282
S 11.646173616982848 12.117296102778768 17.439292218645303
S 10.3750754536086 9.327214653839992 9.893099356814744
S 9.925072920265672 12.758434677100936 17.933173590006614
S 8.121763907789015 10.173656920459516 13.750428276292304
S 14.179706139876782 12.670260044892954 6.4709645787441445
S 12.320879231384492 15.723317979973478 13.241612674102898
S 8.523654498222884 6.007884372751487 12.566066951709981
S 11.299121858410247 9.451028948684165 15.080550699550383
S 7.623801505331997 11.824663751440596 12.43094204760098
S 10.127527370862879 13.65857319657356 8.122011979585892
S 7.923144283488557 16.368944011783825 8.188133288850501
S 12.167796783731115 11.4914987186836 6.669218548602325
S 12.353347247885434 10.039272509870242 9.678895471980416
S 14.17198332150513 14.249029411341118 8.456319894640131
S 15.697517763127314 13.447610869286727 9.342528280035266
S 12.030513321343218 13.547902849353315 13.390019955676213
S 11.822589129324735 6.831937655574769 12.221349755943278
S 13.350442910439321 6.193026570000107 11.239510894445697
S 16.493325290593074 11.422855676357914 11.87168581067598
S 12.72394632200099 9.846902169411276 7.6245574737707855
S 10.90385631726795 15.140909340774108 6.855928939621332
S 7.433137451146577 7.597762386063786 11.632919795349098
S 13.002068498466105 9.478877039182667 14.172524923681157
