34
Energy = -135.73136028 eV
S 13.686509405056421 15.555533287970746 14.848601836183592
S 11.543687866820528 14.308124597960997 11.03594668158331
S 13.142261803706583 9.547131725151207 4.807587306121783
S 8.468255361253595 6.9976421204243175 10.211512030212779
S 7.837475541000238 7.533809461581512 12.11339315595524
S 16.42460751662607 10.053698894195064 14.601154496675024
S 15.01889758486591 9.950039789172017 12.958091827531382
S 7.97704321524021 11.424741151015054 14.678422571417272
S 15.697948503600902 13.03293419990242 15.838022711257064
S 9.753118697754866 10.959349558758914 14.093912564325404
S 15.365265662622251 11.031247955388912 16.062641468953206
S 10.236633538416243 8.014439769006751 9.889937552688965
S 14.77594009653364 8.663275324788428 4.293591753528355
S 9.79211415326038 10.017469697317244 9.602841531494166
S 10.459961885728218 9.181075322297218 15.15585373392707
S 14.186969590246367 13.603751175473555 14.448914436160084
S 13.499738716000953 17.082612597916746 9.681821556725922
S 15.912136177070664 10.371655331584416 11.299542337314211
S 11.800398848333158 11.233610868512498 7.2873543646277845
S 12.060531261436072 16.715040405350663 8.374299633876381
S 9.035735722653632 6.598447848894243 13.496497822946607
S 9.900916180524648 10.429163318394027 7.586659206317015
S 10.611264490554452 14.934276186211173 9.136932230803204
S 8.877014313849985 15.075897000420925 15.869052261694177
S 12.167028828595049 15.742774593440124 16.184639476189307
S 15.045499503892119 15.68571987803537 9.347375310767934
S 10.792320597734273 12.336576217377655 16.27077573575467
S 9.01059075894002 12.823293107684023 16.717136424788475
S 14.835802622987787 14.423170739322028 10.950320539524698
S 8.882830092729355 15.605438802766166 9.63883328079599
S 10.750001260515239 7.7799726446765956 13.724221068499222
S 13.152931945916214 9.757201244757745 6.976599993033205
S 10.52505758335041 15.166658146924489 14.850838224838522
S 13.182807411011778 13.207314663226922 10.557460246386736
