34
Energy = -132.8468011 eV
S 11.850153797887076 6.028603882522714 9.933981020941482
S 8.99681103709638 12.278090910964709 4.882712304703745
S 11.789711876094833 11.083260524348503 8.658744718377767
S 8.974530675471753 6.675485092000139 8.387452277670787
S 11.08716487427226 6.710322484562872 8.305785681198758
S 11.27530824114092 12.29251440741995 14.569379950290495
S 14.461157486888842 13.35370226863209 14.158375187451103
S 13.050635115291042 12.075687635803678 13.47915292611718
S 11.465976271296931 11.371564151456116 16.389773868018764
S 9.71271855569305 12.254050475022993 11.15789636132056
S 10.16463761645754 8.649697820545752 13.249253651354536
S 15.825678480002523 9.257681123389325 10.351927675336512
S 6.923494351250398 15.457019287167336 13.664721268877765
S 8.225824101002535 7.3522474735175 6.743062248361773
S 8.777791195787138 7.631917223957933 12.382564302790016
S 10.66310666222461 10.39472092784287 7.084080953785321
S 15.59148680781549 11.14144087152312 10.328582348661547
S 15.489630276783046 16.423702578641755 13.510267959069646
S 6.555712249312796 11.493061068499685 10.099829795565604
S 6.331113362386304 12.241953997001906 6.80171971526102
S 6.965955392157 10.8418210655402 8.18256236465114
S 11.59910591456243 9.305785786409219 16.070609580450153
S 15.49019967464751 8.950951126065913 15.173639070789637
S 7.864886014309892 12.998846942114005 10.636447978151109
S 15.809066385869926 9.091160725389853 7.673499103060034
S 10.85860954236084 11.87827306797817 5.600564221586484
S 11.013506914677796 12.742169276513584 9.608724825397415
S 5.845621732505277 12.496186040625222 14.671970556305235
S 15.572425082036156 10.963009184158926 7.464917369286899
S 14.09535281151907 15.181707096981484 13.030899386753866
S 7.931418838887423 13.431392699942437 6.2732975642653255
S 15.815452939459526 7.551245338877677 13.928389008795047
S 9.821029375194037 8.607579722382814 15.413353943371671
S 7.024232863960799 13.998932133810174 14.91763185423638
