34
Energy = -136.92803627 eV
S 8.866400050098953 7.8172513372667165 8.66818886479352
S 9.75043649145848 7.538983920191744 6.713445868026334
S 16.480895001511165 8.947557164020418 12.952619599956229
S 16.220072790074045 9.295411047915806 10.917962279296408
S 8.182881871941621 11.38803408374497 15.070743846117889
S 7.99719650509161 11.198982251033774 10.816014087105847
S 8.899170752468185 9.65460406344791 15.85384641625252
S 9.808368867062205 12.768332254832172 15.205657545118443
S 6.037214274636465 13.99166952838151 11.159414212565816
S 9.47382731478856 14.169398335962237 13.74526242062245
S 14.150551204773112 13.38283063384016 6.885352004778749
S 9.287730824837787 8.176648133783328 14.435869523195562
S 10.623934084587257 9.323801391316014 6.276397258818313
S 14.010464366587886 10.891759933508359 14.273470688525952
S 12.63581575840345 14.701594266080384 7.994570859130548
S 8.278692750325538 13.775382628154036 8.796506754086197
S 4.853015808711617 12.416910212371265 11.29249368158244
S 8.264233799712768 11.726090732558676 8.755009559295623
S 12.857259731051325 9.10161321103775 10.256248912987585
S 10.471298917704807 13.844748318602235 11.996120546816057
S 12.840796707701383 10.372197627304848 8.616968438120166
S 13.28336127388411 9.677447740671932 15.76176968937587
S 12.668723684522448 7.914700446545088 14.831859325667027
S 12.36701675247243 14.771443913017798 12.460072602397346
S 6.12815669482587 10.591342557931565 11.028960105744106
S 6.3484614430004 14.398638834679476 9.079484050553305
S 9.44631165766138 6.405215500865768 9.853852330716988
S 14.666987214205273 8.10387046424218 10.264490246142117
S 11.141401060700753 8.442849937885958 13.560763824205566
S 16.056138882300292 10.647510803237584 14.026916989755637
S 13.72788794459117 15.413876235552502 9.477635349752783
S 12.617293664781508 9.292492574957448 6.875539875237662
S 15.743361335528595 13.373590796201148 7.934920544543526
S 13.680013329647272 14.042609991395816 11.137108991659
