34
Energy = -134.77500208 eV
S 7.7779481479085675 12.996862997289067 11.267095886776673
S 14.497114149724732 13.193251937371114 13.52601056497625
S 14.662780073563642 8.772987203649068 13.423644721907404
S 9.421429154490971 11.96837299015656 6.365805471496954
S 16.897923112981097 9.537790090792244 11.074072321686408
S 15.20474527645362 10.148881805617288 11.76720785184444
S 7.662306141960143 14.900031518556439 12.323505520991427
S 13.54528044321712 13.915721514608977 11.622046568132328
S 8.856869732656325 6.446806124854282 7.680954048833463
S 11.561068321117371 9.783367731142485 10.600004931403415
S 11.337207659848946 12.920697634358376 11.418783582447832
S 8.935323038462567 16.11446967961745 11.536560817618353
S 8.849103146067494 9.442000632861541 13.654758361340296
S 7.593461228712172 8.982483880644645 9.671424400014812
S 14.485758695134283 13.110221804827104 10.162785055616794
S 7.397636069050952 6.848066166272751 12.097103504751342
S 10.514706678806288 10.803936249444478 5.169430768758012
S 13.881795197512137 10.892098450653165 15.825209913841459
S 7.776031125998966 11.131078201046044 14.088193068799184
S 12.315509190628195 13.097110786415275 5.409866997169445
S 10.48349271090036 6.4993248829777786 8.833549948938344
S 11.928242534688897 7.783183929437444 7.916686062029745
S 7.5200670092796 7.840235546732829 13.892630728478009
S 12.849853266690042 8.599797718527485 9.567756211455936
S 10.788783454065449 13.744695034215317 6.5314523830376
S 6.1873823403610535 7.913356419088573 10.81120935708488
S 11.602237790355408 11.80909445339563 9.828702486527563
S 7.684899917779425 8.253344119725794 7.797047170067523
S 12.52846209821356 12.257129677606663 16.190706200758694
S 6.65135409639369 11.796156232540566 12.446899642377568
S 11.70303581908853 15.022554331599876 13.989141112242576
S 13.225844618842626 14.223005321524962 14.882916364193258
S 12.440268795015545 11.08098671671616 5.988702127671802
S 13.058434523422859 9.57791682268633 14.27229067370895
