34
Energy = -134.61583272 eV
S 13.605574399648413 8.639801888049806 7.026559335681045
S 11.13793128728441 12.399948854676973 13.334920522849947
S 15.697559235262716 9.999233421292738 8.811605404253182
S 16.248321100166116 8.173238742598 8.808161694133934
S 13.181004291627977 13.58089484232178 13.052160338352454
S 10.469153664337622 12.100588803280987 11.499987282709899
S 15.751084620932057 13.463073295588014 10.982941525749629
S 9.482897818919572 13.901494428601579 10.798470057007451
S 12.574840896906855 15.886021770101292 7.9734807115475945
S 12.01486089128866 7.748752079910774 14.467574937972541
S 11.847772595487992 13.18008698583299 16.131367220339616
S 13.465613646121207 14.016602664327683 7.220368729989046
S 6.9238148486000135 11.880979916864638 13.37431704048293
S 13.102176056174446 14.224953661394192 15.072044828133533
S 10.962700161997159 11.79245601046033 7.583747829873589
S 12.976220559509477 12.57204033790268 8.433819808529297
S 6.803690662480214 10.34477831224975 10.259869251616905
S 6.653294594116529 13.822294396153737 12.669577378772896
S 7.94362264833459 6.598592232237202 12.736273442956158
S 14.751833648337472 7.203314627945696 7.532660774712606
S 8.7743785426736 8.24839884111746 13.446271122435153
S 15.429989799439307 13.292609324096198 12.97191911600134
S 14.469387182417362 16.608472758387986 10.758963290216588
S 10.80500494593494 8.316698937154221 12.867445784365133
S 16.12492213470736 15.422532766385919 10.400407616861006
S 12.64703968685772 9.423831870674638 15.3765745697957
S 10.646141493705066 12.799830626525967 5.990651762481135
S 10.467939592451025 8.019929253027339 17.55661010516594
S 8.333394601461324 8.859018404162482 10.279234550372072
S 5.905333818663246 10.642384501133142 12.071807150268542
S 8.557650096201307 14.61647793819028 12.452005581597808
S 11.287717738081085 9.697767518101271 17.11451513818744
S 12.734520979633485 15.756732579802307 9.975590141107531
S 7.594061147354664 7.0438031794833496 10.542223600060959
