34
Energy = -134.60395257 eV
S 12.631580768030407 13.353873223161532 15.641297615346428
S 14.519822645223709 12.090698224562383 7.452200816441382
S 10.572798713813997 11.961919020898305 7.490197576741151
S 12.046592188802178 9.126980594680846 13.397080134936079
S 11.810406365759864 12.605788195476057 12.02032597576141
S 6.312753089725789 13.640766952503924 13.102383667483984
S 15.513958216050101 14.642221745348438 16.570774787157752
S 9.986150548216274 13.60799829904994 8.318644020097157
S 15.131274815727464 12.760620286527722 13.340109503032854
S 9.135243923358411 11.40697344018546 5.9701947144173895
S 9.12917762878333 9.360819686833791 6.0343443558726335
S 14.917379126132477 15.992716435939856 13.035214023623118
S 14.110451193189125 12.987258580566255 11.745900118632735
S 12.933837050824348 6.800149722064652 9.710970349083562
S 11.031673679756317 14.222084755416864 12.867521187036296
S 8.868346570843613 8.630470761219158 14.691230447287234
S 7.102934263650445 10.483702678045324 12.50877582935425
S 8.304256217332476 11.541532291474017 11.327111494456728
S 7.563057689145405 13.669742025904817 11.652006838670214
S 15.474510358371683 10.26108200514928 8.185642688264776
S 13.72393714721944 15.253645123452973 16.255351347589723
S 11.740159790506441 6.516669105856355 11.378777065418955
S 12.641999473781466 8.723169311991827 9.033998028021502
S 7.821343489079765 10.40005660591684 14.477889142705687
S 12.760548124634818 7.207167132870175 13.032111623430293
S 7.716338083517676 8.716265987308091 7.359515578365929
S 14.266096373238689 9.855447143206996 9.75193991008325
S 10.824018519201571 13.833172109280621 14.97341241041547
S 13.558235670527925 16.591040769512915 14.46186402343662
S 15.351182994095907 12.65101715584432 5.809824390836213
S 13.960972091758457 15.318635776587332 11.433744591448093
S 8.838211141199187 8.409721809355245 9.203992281005478
S 7.80980812467211 7.213985259234717 10.310091606281455
S 10.856615002739199 9.054495708833295 15.079358224710457
