34
Energy = -134.07573098 eV
S 15.947430288333491 13.18044631082777 7.315016040870674
S 15.359684227724937 15.895436235574358 8.962784887677103
S 17.405592640355422 13.645597552005961 8.452701787408474
S 14.482590344727475 14.792935853351349 7.6814182713385435
S 14.233059512166705 10.167051608873379 8.33324666754082
S 16.184123677466143 9.250462799291194 8.976378096766812
S 14.709284369377587 14.497630958378029 12.32489191258811
S 10.711599704630318 15.554081291546918 11.142708058801583
S 14.346508670073396 12.655802489204222 11.607106055895132
S 10.50057400593542 14.417488504582266 9.462482060777413
S 16.652829642665594 10.330394502067827 12.10486817883705
S 7.1839876990876546 14.872253419250102 8.986868634317844
S 6.826583013517019 16.192186143675947 10.558664314293676
S 13.016800493572994 10.12219482427447 9.813116365341912
S 15.923916863967735 8.746255010599066 10.881713118440219
S 15.037859660655991 11.191932334523345 12.974651315665904
S 5.682041555946148 15.274097998870745 11.971453932541646
S 11.358966602202273 14.22711146824321 12.681373451318875
S 8.620887839710987 13.524205731528989 9.579516489686169
S 7.0568998055166485 14.401893084243918 13.398930138490725
S 12.993616572676526 14.985604051849752 13.547544239535034
S 17.166852348584715 7.6692889709130965 15.282227657935922
S 7.742315824456215 15.717858674753339 14.63649984024437
S 17.030488236488672 6.371793957550225 13.898516041960624
S 9.358573376982596 9.960170307712437 10.92074056132239
S 11.540792519394353 11.779264225638984 15.660227514145872
S 8.304505089512304 10.354643936306624 12.909487125223041
S 8.44129926630221 8.36450368962295 10.235680260489348
S 9.375947581304546 6.672840112395591 11.284395091585985
S 11.087982106041508 10.71781380933585 17.172664471584543
S 6.663543261499579 9.3847031832585 12.907155000305842
S 9.563586216250782 8.295861689318205 14.246147160672328
S 7.93915845028342 7.296936138065399 14.23170934633688
S 7.963244398753467 5.915927145990485 12.419312870529147
