34
Energy = -133.94130446 eV
S 5.566380268878434 12.783731440477098 15.339442262101446
S 11.556634743313678 14.314024641845915 7.7224578200678655
S 8.925397285606243 8.318138902362241 7.429281716043697
S 13.869479064686443 10.37680830909301 13.152243241391036
S 16.072409349657992 10.022307264432708 13.356265500725405
S 13.941196035793125 9.365193280289374 15.265495706199932
S 11.473618255418206 6.69431539727878 9.513972419772875
S 10.38712266316521 7.1790711189022165 11.144603547825874
S 8.36290993524798 10.596849790876192 5.578571043092796
S 14.607853357110749 12.459152542367097 10.736813093585443
S 13.202940615354576 10.541096451610693 16.73183102563223
S 10.390793138451446 10.718378051212678 5.726343610304848
S 8.42830006164127 12.132016194798423 16.76212690615114
S 11.909689639915564 9.160156142543695 13.272145046580635
S 10.383742191480728 12.202727473547071 17.003663074037643
S 16.842469952967214 12.279447795862499 11.130991285546466
S 10.71434206215338 9.208601525282797 11.643711616444936
S 10.96678354599942 12.599931940007783 8.81765091619276
S 9.984503530115235 14.960011038233448 6.691020499568056
S 7.763410187980867 12.416738368418692 11.63029233477894
S 16.88090862118302 10.305681911417418 11.487235831060184
S 13.970064753671958 10.611850714167913 10.744054562290174
S 11.183830785211192 10.190258546020297 16.973933674320392
S 7.969156513357374 9.597179833154064 8.686246644728367
S 13.423962275133293 6.1246498034142824 10.306624456784784
S 7.400915966454081 12.999966384688365 14.815813697021012
S 10.136770526508217 16.791281718647525 9.53771601547925
S 9.046877317573701 16.548868573437467 7.983859805548002
S 8.153844128721113 11.473676463571666 13.384235312127723
S 14.755684973943946 6.551504449872053 8.975973815810585
S 7.538404826476377 11.295470992156398 7.293216433680704
S 9.16095930909811 13.934207144617687 11.329481360244367
S 10.974909927048884 13.096977426530248 10.804141546929028
S 10.80818680728836 9.028739061474658 7.128102489318258
