34
Energy = -134.70889367 eV
S 15.74560730094176 11.740809389314458 15.571572604458103
S 9.613368798376497 18.004053673052486 11.591968318818282
S 15.356374910037667 13.030012763513156 12.24030706326392
S 13.456454240577305 9.451317603917735 16.259970073044833
S 14.9223849957915 15.72778628825743 16.063827292577788
S 14.692397095852725 7.702527889789567 15.927140326871426
S 14.41607086871411 12.57582040763644 9.069422747305147
S 8.298815522390889 16.93784352179626 10.37763416581214
S 13.776609621672012 17.25064390147447 12.64564784606594
S 10.276469892076793 10.669439840577537 9.952264955414734
S 17.26406543873581 12.78863769802379 12.829136595243241
S 9.816583477335477 13.850441809212956 13.213572603104556
S 14.001737939351418 10.785970659890602 14.836738186900229
S 12.43672433105872 13.176433415639242 9.225842870590835
S 15.198333836282721 17.976575558805063 9.658950441299101
S 13.310809126768829 14.675517483881027 15.911698575817933
S 10.489904695614833 5.563140074120446 15.52652668856038
S 11.361500312952142 18.274976304408636 10.565001820290066
S 14.149649291729423 8.17719083324665 10.764059738340507
S 9.26606494344703 15.4774985482689 14.499180562991922
S 15.678050789582507 7.318422243624748 17.54563142113675
S 12.05588776158653 8.294118710356463 11.590930267654311
S 8.313424817346176 13.852390566551826 11.859659527418689
S 10.9143983012363 8.656566572578056 9.998400701457973
S 14.887044424660155 11.561383259990677 10.779471757227913
S 14.062788282855893 8.40128368522226 8.86469197248347
S 17.217928430245006 11.220767779721436 14.293454258193796
S 8.946687556050923 14.995294592729213 10.221442796250905
S 8.81134856296481 5.043148512342257 14.806612558220419
S 9.978299964219001 14.908837444473223 16.329838038478425
S 12.61284613674069 16.66262814430417 11.15720797750769
S 11.712170909525275 15.9251703588588 16.682923219988638
S 15.590463879742206 18.08735962870789 11.527953865647921
S 11.179084584740695 11.73579868383273 8.43863012385355
