34
Energy = -131.48626591 eV
S 12.471722098743468 8.136202266472088 14.332598464327058
S 10.099683140230866 10.675189585095282 9.422586304192286
S 7.702833995383323 6.247731448984997 14.818974281794967
S 11.544644392181686 8.196555979414894 11.10670577849847
S 14.799172434392588 11.50241668825861 14.539536765576887
S 7.4655486927768475 11.75128781613052 13.766389381881732
S 16.658001642398826 8.38557116013087 8.625115594185516
S 5.726013998384325 8.184196485151364 9.931409032495583
S 9.735440797851338 15.627561429294147 14.416481998592504
S 8.831377124849809 7.334624372632838 15.899378520089304
S 7.011688100329918 8.634843857839863 8.559999959752908
S 11.281077228242026 16.717069042077867 11.692890489366519
S 13.934108368669513 6.840381021805972 13.690730544221674
S 8.684812779569292 14.674333739506793 12.077144381476895
S 7.1768928781912145 11.9994089836596 7.841500042998693
S 8.636892074405536 15.768975196306084 7.905325326407739
S 13.715693992497796 12.95182541034731 12.036992714224331
S 9.7831258247231 9.191789009029478 6.3628957622812505
S 11.455576472939127 15.074596124703275 13.855781058667572
S 14.963057635208067 9.118229209395787 11.396684519012295
S 10.413253778800282 14.121223310806043 11.53942906427992
S 16.29041137198032 9.627670475431621 7.184467113968896
S 15.464412416906484 13.686523727240198 12.258019944617388
S 10.52113935321039 15.376677262955422 8.044785284069478
S 11.050197527097414 10.00841742210645 7.565114688568213
S 16.227276796382604 12.654997866851792 14.028864387700494
S 9.547659728528624 17.24573253837302 12.237658963697193
S 6.162479274578092 10.407117671183064 7.4302532946877795
S 15.52763603415147 8.003423561365548 13.028811496013349
S 6.981774000751811 10.594356970318191 12.33608414025258
S 11.628890764971352 10.267051977596061 10.683926975618713
S 14.842177613104102 7.97040553051294 9.69655993496868
S 10.86974126939828 7.874875416236546 12.986727252819216
S 11.143584629480037 13.674322031663399 7.393377292817696
