34
Energy = -133.89929229 eV
S 11.203070514373053 7.474430676575437 8.644471405932292
S 10.672981370807586 7.122524432265875 13.441798534532593
S 7.452804840799776 6.011958890213049 13.092990335572392
S 11.967414934034466 9.970478638898191 6.225706108207149
S 9.78847149384067 14.79609118055775 14.412094097991817
S 5.6097403554829555 8.64408441988697 13.276262113553864
S 10.313370266236007 15.396559708467338 10.939526546990788
S 10.411256116806403 16.697445238258812 14.025436405178127
S 7.195801342923699 13.614647162228627 7.858944794871942
S 11.941469911879127 8.927731945545501 4.611690064219719
S 7.60161072285778 10.364688856371743 7.258089245324043
S 6.288134894649982 8.745354767239172 11.442030447137519
S 7.594290966581617 6.807465653950223 11.363432966553857
S 15.549395810829589 10.224308129581125 5.832160349416783
S 11.377089068294856 16.67350351545855 12.114335947636897
S 13.461536635155866 11.689809227795626 5.902404916365306
S 16.166698953427577 10.350662800365667 12.002355670335632
S 10.409570956920335 8.21396807315638 11.742043049497669
S 8.464189400773048 12.07925919019405 7.1369532712619534
S 6.485841245865438 10.213315646691065 14.561183884843377
S 15.326766257372382 10.461072150682062 13.735241033447373
S 8.072336195278087 15.327842793387418 7.755517744320716
S 8.45797439298394 10.382530836596157 14.4790289522704
S 13.775672066896323 12.51868061458099 7.599251388605392
S 12.363787177976866 12.714351617782581 13.77048102433864
S 11.10460301569698 12.2779168319071 12.228050310275338
S 11.495668367293824 13.691958799264466 10.758818351065036
S 11.937994157001764 7.437136683462757 10.435239356089687
S 9.335235652619314 8.959036210450575 15.848844876917978
S 11.159546699043384 13.580104174236732 15.310606262944331
S 15.407477536465985 9.236052202100632 8.99032061641479
S 14.564069293821 10.199928060761724 10.517774402379679
S 16.147026292541895 10.77238916719836 7.587015955387429
S 11.09170297623734 8.527007145069653 14.951834798919279
