35
Energy = -137.93034045 eV
S 11.475297606860943 17.902609960662804 9.1640876854566
S 6.073714826645953 11.573239987801722 13.113387305441368
S 6.786867012422119 12.082522084837569 14.931920979243523
S 12.814200729373912 12.9829046920299 19.684079183377264
S 8.351893350804717 12.553023381547671 9.774110936515672
S 10.774929264121797 11.70458699724223 14.195503578551484
S 13.352311673062244 17.160038148376078 9.385031032848998
S 11.700892719983992 14.888074923782687 13.48151326691353
S 16.771522275606017 10.578395784313848 13.162199383276624
S 17.230887055398803 11.856401488745442 11.302517732073403
S 11.910031247279575 13.104345090912595 12.819081815564754
S 8.379556030112214 17.040376385308406 9.896596525340431
S 15.353265642174122 11.822610363682319 17.146282934622377
S 10.324133884673751 12.084262094531885 9.39087476572319
S 13.957504604595373 14.324420513807475 7.637299649258776
S 10.177984597554655 16.349899696261193 9.972988455280971
S 14.178468327191418 11.636458529300066 10.018836141198054
S 16.390032173302405 8.646390467063107 17.350477152629963
S 10.95454119337594 12.937132901525063 19.284268960719295
S 15.729459189063254 12.812376382709719 15.421644447227683
S 14.098286988993948 16.39943414382294 7.602408689922229
S 9.934090214519525 12.926659341889364 15.51529076781966
S 8.123214754605492 13.684492645442475 14.770216162098336
S 15.249987398748422 6.947501422974229 14.002906066661224
S 12.85227972598441 13.66504755531698 6.027613345467958
S 7.292218680563386 10.805096953601407 10.191149720927562
S 15.440461451593308 5.213683141999307 14.81337984968121
S 15.148839802627586 11.41111145016484 13.906722056756086
S 17.034223023912464 10.471661396265132 17.352651125581428
S 15.745782842188577 13.070096186064363 11.143735328619181
S 7.492789838396891 10.297156376756908 12.148556572068223
S 13.744577018254551 7.246683848541981 12.836754814157487
S 10.50143728293425 11.679779493232285 7.368517852143681
S 10.829746648299817 13.491057398992835 6.424413189800918
S 15.200641386701955 10.050476173189832 9.7485599876689
