35
Energy = -133.96920369 eV
S 15.422583303766459 12.59229765615864 13.17319496911237
S 13.58369104832994 5.959806569249136 12.590761366537329
S 15.069484165435021 9.997391409016329 6.42870348004806
S 17.0751072342653 11.711570971373902 12.263498819454496
S 12.180400521344481 11.509730086263556 7.326746983359966
S 11.727990182681339 17.997434647404777 11.615582019556166
S 10.394984470784761 10.2649589155579 15.477215606073845
S 14.169444201667343 8.837018054318213 7.771764630996355
S 13.514101027217041 10.078070323246118 10.925889811948649
S 7.706643263552813 14.728954070590444 10.811454069450889
S 7.843836138386145 11.910364606959469 16.659891967204416
S 12.081757309613891 9.54274706376701 14.64748877522339
S 13.28736554999585 16.912015874559362 11.937363692429933
S 8.781042192868961 11.678411550758703 8.452486716971348
S 8.29521575385314 14.31679317580553 14.395067100824113
S 10.43035744681249 14.093709616522958 12.496688048059662
S 10.297769046004127 17.936167909362826 12.904930619241192
S 9.476641813820168 8.401711301446603 11.551265008267046
S 6.900353038792118 12.16154096878348 8.715670289429054
S 13.502460835807772 12.018215631417114 10.86887679476946
S 9.731162996484404 11.794187004239332 10.354247780246764
S 7.231470244296714 12.831218063092074 15.05206261332746
S 14.998424787855424 9.201125847833007 9.663867294299461
S 9.73852873255694 6.67491525894674 12.3663664697843
S 9.754866770116877 13.95366137211463 10.672672339635803
S 12.424668439606943 5.355031484522126 9.551845796006099
S 11.148615899059486 12.200770431321988 16.27550640195726
S 13.533102448834914 10.088895234622614 16.069464391656485
S 13.695130886090748 11.775476278082289 6.190411372053931
S 15.906201682067524 10.665761835065268 13.665265550584841
S 7.242938418653158 14.583816514113277 8.680110635409946
S 10.605831005287653 8.839811482298117 10.008551884876608
S 8.844694069405188 14.794519846419794 7.643488985586192
S 13.062971760128649 12.13122432838866 15.692260728365515
S 13.885503377194588 5.900224343676748 10.685876762176775
