35
Energy = -139.71627863 eV
S 8.142476114887522 11.294344795233634 6.254392604108903
S 15.953347999362666 10.921587037468472 12.633550695098329
S 10.408889384446486 7.023483659693951 11.035984349482275
S 4.718533650536845 10.907619302118892 6.199835242320632
S 12.258743340222267 13.588675311851397 16.431057700493714
S 18.357485466582723 12.945159575415282 13.580830722630852
S 8.893932531987506 14.081511152245433 16.958666220903012
S 12.82114892349036 8.417873464993816 12.895611664840358
S 16.955445459585114 14.312626919952327 13.57144060491425
S 7.359760892136238 13.169539637015239 14.075145640320539
S 13.55520669972011 10.95874921634102 7.959307175408502
S 5.768183747498823 13.916872397245497 5.299010998470612
S 16.68669126129686 10.876644625501784 10.771280172117999
S 13.143891997157825 8.106110996575886 9.378738884771966
S 16.061847096285266 14.157642708512219 11.42941989357368
S 12.651349830373226 12.1218920012102 15.028909728900663
S 9.999620100616628 13.993448872161515 10.855947078733887
S 9.706103128301946 13.035002644794503 9.06411927989629
S 11.011509415623543 8.741061485086624 11.842226386231172
S 13.28536325202775 12.377202866001946 9.246439323243882
S 6.7620791389375245 10.427203783648778 7.236432473186007
S 11.936256460332698 9.121917731148242 16.10038370676165
S 17.26516396601456 13.023348400757351 10.427297214636152
S 5.327362417815419 12.106917634869099 4.6899145882264435
S 17.499777247732045 11.023398774312907 14.002674938372273
S 7.640174364631773 13.31990947330726 8.639938904409824
S 12.52383804700741 7.6362046055744095 14.750572960528684
S 11.754819508633148 6.7946801847764835 9.254117416351475
S 10.611299943417471 13.119781690736282 17.58699827533507
S 7.592078612615232 12.732823902949873 16.078032089371025
S 13.440721920429189 10.524650014739144 16.09493738152913
S 6.5820853600313765 11.776662367120755 9.230140716264394
S 10.235157996479675 12.592236751649065 12.361217523247195
S 15.364506180011213 10.607340539419358 7.385646605904808
S 8.394595743775463 11.82176230008504 12.90167253596595
