35
Energy = -137.96887808 eV
S 14.713273115750896 8.393939287695185 14.553498968805139
S 7.743824228281989 10.090369061658489 9.072446397367377
S 11.241027729623786 4.1518381039554075 11.817140940649649
S 15.542926919999118 12.598829913654585 14.330840949740077
S 8.159765919250686 15.598064187682358 16.665872646960025
S 9.955166580940622 13.756036626258048 14.676049757247482
S 13.275791235550416 10.151042938509667 14.684014975513437
S 13.242728635194762 9.508393621328254 7.668536520332404
S 8.671309989177145 16.913254554734035 10.938874844444955
S 13.745005701293143 15.203187421222427 9.070817551336724
S 14.32553297458918 11.514920432165345 15.67264949568089
S 9.193586625398165 8.744763656388633 8.486135660858627
S 14.401153491272362 14.135804705750063 13.60386379264014
S 8.537829288957864 11.167298548779216 10.652520253141475
S 10.071358913566556 13.826917399248412 7.298736339649975
S 8.752979401830231 13.186316929462018 10.19449253160874
S 13.453528857815979 6.459918284918297 11.219667961212615
S 16.14631761294161 11.033730017551079 11.204564577986428
S 6.801708664165815 16.963302034245615 11.409613873276939
S 10.742060761674502 5.601800286965877 10.536958737844397
S 5.965042660842023 15.326321409194422 11.988069172437667
S 13.463464707220558 10.014867566559055 9.619072690569533
S 15.166608263412023 11.40560418930525 9.588203154912266
S 10.583967200709743 13.568771430439343 9.397839577666732
S 11.540407896619007 7.29525785254135 11.502687093699091
S 10.553229596370503 13.519412144244422 16.67685348308913
S 11.61355293918637 10.576552825019036 6.9114467048586015
S 11.698919571070443 14.014628991887047 6.2788858030220505
S 14.634406992767783 13.986497871043472 10.26734421015148
S 13.327348897928061 4.808404991046939 12.338110397961145
S 16.404227670754867 8.980500666066769 15.228749551121103
S 13.355298113747756 13.489225278107503 11.962228188821268
S 9.247196627988112 15.629197614033766 14.702132746791653
S 8.528968523329224 13.7156048998109 17.228513707686453
S 10.064709194084747 9.239542328391396 6.675546713447569
