35
Energy = -140.15042265 eV
S 14.819642482501834 9.447188949044694 9.3971174529152
S 12.643073770115027 14.62318472179447 14.800411306991952
S 10.449387316712397 11.550759207615624 16.05999349788456
S 14.330397992183066 7.646822830141178 10.178893022050739
S 7.420333587284861 12.799812089430489 10.073097599056533
S 6.5263266210826485 11.945990794494614 8.630844788222548
S 10.823386761103729 5.943760359746081 12.539636683017635
S 12.705915558536585 5.2130124724113935 13.854410245207301
S 10.757988244614333 11.575272141911302 5.059036643048192
S 15.43563366950992 10.71165226476164 10.945369426223401
S 6.4618706730301465 7.419746990832763 8.8733609222301
S 11.84886641187222 10.727685599936768 14.642624666306974
S 12.263828164904483 13.929355444502788 9.755380762680291
S 9.529456817744943 14.036576741081932 13.890265177804938
S 8.969572931898215 12.197564085237413 14.885432260167267
S 13.875142068129787 13.73731741002996 11.034758174037202
S 8.576344996762563 14.649457093664237 9.233088842807392
S 11.569979229883359 15.859678881323232 15.784050008904183
S 11.034679183483098 7.832565082070443 12.528704336216462
S 13.362365691371625 12.190125413601761 7.058552965895464
S 12.141356906272735 7.535178402550417 9.922739207051853
S 9.278477465073184 11.168747751334523 10.49692599424132
S 11.689301075609224 11.02577815119307 6.863508876591041
S 7.334841919235398 8.523761468121142 10.185801950090596
S 11.705395866108553 5.66323139693805 10.031110416325273
S 9.40108477444983 15.570454569205477 15.132230170729134
S 12.910329096595522 14.070023656832648 7.804595096621865
S 13.892451337815997 11.802785695993249 11.772410578825816
S 13.591548116649939 6.907796677272496 14.19436549556527
S 7.7921816467283 14.817178162602497 7.405234461748008
S 13.220412593772002 9.726890618045342 15.774314086331524
S 8.907645958016744 12.309550105170844 5.438596949305283
S 9.114862923553257 14.364825243124512 5.877158294084708
S 12.740719952420005 7.756069645701339 16.015005265745017
S 8.751548930028958 9.88917309524026 9.137226364288532
