35
Energy = -137.66774077 eV
S 9.701802305852901 10.24251400614971 6.462674769238072
S 9.655485684468616 9.020218864365072 15.302074292836686
S 9.5597191227248 15.016025961315263 11.558039723959226
S 14.73491436173579 6.72200658722327 15.169916402850767
S 12.011231988702585 11.125895406100792 16.568840738596556
S 17.020897905660707 10.062899551937441 9.143344430493007
S 10.007023329680607 16.644303281462467 7.755689922833438
S 7.584100322617558 15.581482782676872 11.981344841460933
S 11.752898010027911 9.834352138994028 12.191080397810332
S 9.02799805511041 7.135348952113393 10.773859195720698
S 6.395299692481827 12.705242570146508 13.396737848336052
S 7.880585401471574 11.333931234822321 12.94184777635641
S 11.14033347616556 7.507000610004544 7.8607728371510435
S 11.366683123434267 11.94400099095092 14.848161198808103
S 6.330115295656944 13.98480436430943 11.770816255945718
S 8.878247760579532 14.986867749066741 8.21697547321754
S 6.183938200852023 8.594518058355956 11.789325583581778
S 10.631169464654782 9.365693503824629 16.915607946624128
S 14.508714373819771 12.992775265936384 7.588290628488009
S 16.492947163746518 13.181179446405489 8.194242022097674
S 12.629877283817812 11.46314414284268 13.281774845854907
S 16.740266206176436 12.08000385742831 9.887035122190074
S 7.5883644002304065 7.057705909018686 12.199456582333864
S 12.865430586448568 8.254625549119806 12.33904146528508
S 15.90373373819339 8.844496438153374 10.145538290583096
S 15.502847279677935 8.651419160038873 15.259050837398997
S 7.6280258335186115 7.700696643027545 7.8281736177497745
S 9.753249524028176 8.33165995414147 6.78907367519381
S 11.62720284775647 16.109031590619143 6.581273224962278
S 13.514056078070615 8.322627384216606 15.73241064531848
S 8.231990908058565 6.250422489311985 9.001984533355026
S 13.376594114029224 14.262155862547354 8.75049629304047
S 9.634085545246334 13.924099448112086 9.829063574824822
S 13.270862583836038 16.11179601665096 7.8283437539164415
S 7.245384603535127 10.259344860957647 11.289803123922464
