36
Energy = -141.41586126 eV
S 14.167580156414314 15.158191465698335 15.854320185118251
S 7.636385105716836 10.593570350378537 9.661084610898092
S 7.966158761593626 8.709356793432486 9.554856659446102
S 11.983566039092356 17.554920424523093 15.03471332288985
S 8.48731965303343 14.31163053977201 7.3643834631073135
S 13.050583870496924 10.67701515010069 7.296160430241284
S 16.09269324081168 6.803666010044242 11.565254447602298
S 9.972168127574355 14.556807172003085 6.201294594752313
S 13.595817043332266 7.386794714884649 13.796846908361326
S 11.952354274249963 6.330603275580789 13.07336729620728
S 15.247006159698174 5.59731239085397 10.124970924509116
S 8.6707042045937 12.767672336714082 15.755833118658725
S 10.9933172865802 10.468898233218379 13.724697166203757
S 9.687266334417684 8.857650760557362 13.258498222447297
S 10.766162625654617 7.641896156068879 12.009231561845828
S 16.101634292717947 15.840445411927519 11.034965210472686
S 11.490351493955002 11.388033679598975 12.01791121062966
S 13.862218970729208 16.830110570614913 14.5451960951604
S 7.0460165686253395 10.615168697751777 14.852819061789498
S 13.967577150332923 9.446482368115715 8.623405447671589
S 9.407151063666571 8.329570170877993 7.834113811750177
S 10.989240812628179 14.197891166770042 10.424224675213207
S 7.281600549900185 9.81559460975796 16.556957733084438
S 13.613301730742101 7.455456227744135 7.914556455288268
S 14.386676135754138 13.542856057749049 14.810872272449899
S 12.212343330320413 15.380314676066433 11.40059142055228
S 8.83420023446155 11.851065185972356 17.412052770954705
S 9.691768197553149 10.138132314286171 7.055293789401082
S 11.196100771880559 11.168296736772 8.09509694412378
S 9.989940517219415 12.894270328565286 11.708840698577404
S 10.478717598734162 16.99306882789778 12.133957591187666
S 10.549578938577712 16.35977622815718 14.265928758702612
S 15.38307045921578 6.524144564470246 8.258183625048193
S 17.178511718312294 17.331344944979392 10.547318929823163
S 8.914028775791481 16.246562175310455 11.328282396771206
S 14.666704893086765 8.159168434226062 12.22906688526153
