36
Energy = -144.67290662 eV
S 14.530572279900538 9.307117467792096 14.019697843832274
S 14.547161372509857 12.904171726345448 13.95485639378139
S 13.102282689765742 10.583123199848753 9.344223953587447
S 13.979871681533057 13.55641899131394 10.626672249540878
S 13.657169941320785 10.520652725943192 7.349873031405967
S 13.75879574129695 8.699102491653846 12.298977022285255
S 13.115218664386417 11.085086259368909 14.606032332733593
S 12.484328836665982 12.546477949244567 9.675583398221159
S 9.542648341226538 14.710581994029848 10.99755302483974
S 13.036433959459089 5.973682188958829 7.214936624399164
S 13.380750242300872 13.825208631622168 12.665741084851629
S 12.58377693194076 6.971950054330455 12.577441809837763
S 12.176815568828049 9.538112853912851 6.30692459203408
S 11.27464895637694 5.330126902480907 6.767685735852334
S 10.776815222819089 10.901940422434862 5.609424573651836
S 7.73406309929653 15.671228954908985 10.919886519542919
S 11.707570899898395 11.151932432838485 13.327139703263084
S 10.363896724614497 4.414737276857874 10.894933780386218
S 10.571490114995765 7.489980668365474 12.68231410431587
S 9.874275380831785 7.763953177208302 10.82501788778767
S 9.205578402963324 5.760640333269968 10.114414649295123
S 9.080948010851387 3.8095009156997293 12.7940851219276
S 8.14126658683991 12.39422397469473 12.994833230804385
S 9.053567926345899 12.684380193364309 11.18320782659667
S 9.18589898931991 10.887852410507168 6.94023649577088
S 10.458316760630261 6.574096802883559 5.183693125608027
S 7.5279277490305825 4.903640660203761 12.654611879438463
S 6.963258045393479 15.702460614984654 8.977679724998023
S 6.6629420947546905 13.82180364044618 8.211363001368174
S 8.451883038678863 6.492807170360572 5.482086417557482
S 7.675801144009416 9.692638885265822 6.20384065941326
S 7.868792646704682 7.792160509210509 7.001286054861798
S 5.0693492566825915 11.385803732465876 11.896043798550274
S 4.889316297256128 12.874635124511467 8.80373534938392
S 5.500280932072059 11.218022616205408 9.847551935158355
S 6.141317760000797 12.92628692185544 12.692117103234418
