36
Energy = -141.40596835 eV
S 9.016393463832346 8.750169871822406 5.503831932843476
S 10.355060984537944 10.218068289314353 5.190684364597745
S 7.20539920697043 9.630956499356074 6.195286287371031
S 6.794688987637296 11.754108886925081 9.479852199321153
S 11.578612836753292 6.229612805826683 8.211633845791821
S 11.681689091759038 10.266392788340454 6.92698574515711
S 8.374619369748087 12.756121025163493 8.500981866998128
S 13.311050846835684 5.561294711626615 8.713329732318835
S 13.32693681822913 11.068423799015914 6.31611756969669
S 10.748584576393233 9.975820726534518 10.363139550589443
S 8.647380694152323 15.564567814231918 9.95287390447849
S 6.595848402310661 8.807155057326563 7.9429001868442715
S 16.76476199085928 11.34018372824378 10.296224876921883
S 14.300506111728545 13.699507016799851 10.565553652614183
S 10.019217871930572 5.468886798092111 9.536206867119985
S 7.413596687241986 9.811895934244266 9.598843751968742
S 12.420673121736831 10.920118706809038 10.58711357490722
S 15.530678317818456 10.376248812288104 11.590313135684296
S 16.195186452474914 13.465168759161944 10.329115910357396
S 9.570277894594593 13.584574778648554 9.892323681384042
S 14.020314240208435 9.45356007608945 10.579022293005796
S 7.844306162484157 5.1965534940705425 12.521527127981926
S 8.721194025811451 6.711105758549282 13.29565474855998
S 10.821931565541313 6.809807489113002 12.464605261924524
S 9.854028943576875 16.838834046371826 10.891019781474869
S 10.924324834319066 5.149482289905892 11.351065838521087
S 12.545884591497229 11.179527192581961 14.289123719604392
S 13.61776016981355 13.017026679892306 14.92808743556628
S 12.859037154552606 9.768820486394596 15.554574190240036
S 9.113730806175452 11.248582683634066 14.131651323107466
S 10.766481373988599 16.959952574280212 14.198861528138854
S 12.787243077395013 14.412442703076158 13.783826500447253
S 9.166903018618898 16.992274902021087 12.91606071892114
S 8.616462443929159 13.115458517775021 14.119972590747512
S 8.808198363236915 10.218504920778999 15.737938818525409
S 11.100835965847054 15.098589840234975 14.96349595080798
