36
Energy = -140.95373712 eV
S 16.579201503309275 14.178944325904318 8.338411660861816
S 17.14718281319431 13.366993006794905 6.697270479390156
S 18.605196774334097 10.380287152067309 8.830850551042662
S 12.76976833915867 15.669978406304732 9.720370615961057
S 13.269106173572276 14.50903054545263 12.807605728087047
S 16.591690915262028 12.731794396463794 10.026873756852932
S 16.744313710080352 10.905378621010344 9.091191735031517
S 11.826495228219205 15.364766372488576 11.369770093508514
S 13.246873532774599 10.356436446239025 10.133445172324347
S 12.51072992075763 11.940065615686837 7.350094832280383
S 12.915340119741112 8.396973084460239 9.55163893502646
S 10.824273474835831 11.885757379370688 6.21375170939769
S 12.175724145855948 14.140034559211337 14.423148966780484
S 11.013954014814924 11.417118174539434 15.891700775689605
S 6.672791753970809 12.111690900406893 6.858154873620086
S 11.890407199779515 11.676257221279709 9.355714920705832
S 10.237234057813334 9.920710050502588 5.797224033329201
S 11.425361452570355 12.120122268509848 14.062460869433307
S 13.512988253382227 9.021858290555747 14.26834017704728
S 7.912779806935865 11.239963781111035 11.416107865454562
S 10.160593936405654 6.780058951700106 10.563335282667808
S 13.565949181321344 6.962344565964566 14.561739002774445
S 8.709769118568085 9.479107805265913 7.089734455263258
S 12.040361099807507 7.27339755228044 11.088270174245322
S 9.03997745111085 11.939217608015136 16.560242648426936
S 6.963744653687285 10.265104565487764 6.186484557226131
S 5.298354240428077 11.796269291989034 8.6490729730275
S 8.52838395755408 7.9085830658311504 11.67936323400895
S 11.829114925036375 8.033644579075615 14.965997973410293
S 7.94747079586339 12.32982920927029 13.083338503763528
S 9.493652019955332 9.947517212120914 11.294192399344018
S 7.790630606811247 10.441216169015355 16.114582658009937
S 7.015909014533267 7.598198545187139 10.540955335923284
S 4.899811404443441 9.927591772495067 8.754595445522632
S 6.41039754271756 11.134794314342892 14.432251976806242
S 5.923293556849852 9.593718035897739 13.412112484048418
