36
Energy = -143.40390784 eV
S 8.53466156956434 12.986757378117375 9.708418928578373
S 7.020663399959039 11.435573773927878 15.015057574962816
S 12.541402758282711 14.61873091256918 11.57691464262696
S 11.130497451370168 16.255692230011586 7.172449890690296
S 10.160255361571139 10.442265910961948 15.344600039603991
S 8.309891368358997 16.26837778118097 9.079315056076744
S 10.142003910193392 17.15349152809463 8.79024967452223
S 14.246707540742987 11.829189070530104 10.891061975864552
S 8.040373835797656 10.009601633125946 15.820288151449935
S 12.107460442543228 15.183956921676668 13.483419537593772
S 15.144501295740005 7.001186485355711 9.099646760313687
S 13.257905564681831 8.799679639948117 13.12378849857232
S 8.345250848907716 8.753617621120581 11.459653101358516
S 13.834117222734587 11.952181796556902 14.830459320229572
S 12.61569564229754 8.250362720835126 7.2316978570109915
S 15.17235644520944 8.227086592320202 13.494537898335713
S 15.828887406697508 9.416393116895287 15.107923398680091
S 12.524919785852704 14.958664792842763 7.859903389298903
S 6.577733583356459 12.327195690432363 9.533485847089922
S 14.223321737306254 16.28997874905138 8.220269397972046
S 10.906996169704165 6.69162184613827 8.428371472775597
S 9.66610590671193 9.405209104791764 10.045955851368998
S 11.816959578224571 7.561240962900703 14.099342392238572
S 12.526091974962386 12.463192476135944 11.513613494065808
S 6.096938775655228 11.27767906685533 11.251357854477694
S 11.26891422040139 9.633478795283791 16.75814726669853
S 13.890699862865624 15.274106262407349 14.540025082729061
S 13.90708810280664 8.470836577309479 9.095811456437687
S 15.832552058380767 11.323395185105023 14.413636721970995
S 9.537466691998532 8.059111514231958 8.366791873594783
S 11.470540843066866 9.782275954591395 7.12242649301451
S 13.852344742073994 13.671585330865193 15.893305961728371
S 15.694015353395855 15.232717841333843 8.872472492274126
S 8.466133833811782 14.85483213511344 10.588595779100723
S 6.425589725269695 9.28464760554889 10.854095025363725
S 11.961956331291491 7.639253540653897 16.08066362871731
