36
Energy = -142.94992201 eV
S 15.279203648318278 11.177439959337667 12.188656306768037
S 14.910580444465388 12.51705230330184 10.650081978446709
S 11.188609853758074 7.594927138490995 10.659281718943335
S 15.529704899242033 11.65517788249794 8.867091546523564
S 13.71643249844177 9.912002578496448 12.52166918083176
S 10.635254407031008 9.15925711574976 9.270713357353152
S 13.880771998761759 11.094460920786435 7.753433076405925
S 9.160478956024175 10.113141985596705 10.108919561141638
S 12.195858733966839 10.909002361289645 13.630633151270112
S 12.927604215162892 14.116243920882463 13.431008080462155
S 13.4717914319517 13.55465668246933 15.17467494918085
S 10.666091472270072 4.9495041850507615 8.577626966194794
S 12.045356358662314 6.145602524848888 9.52839588607089
S 12.88592799904087 11.364788751423509 15.432310656314034
S 9.090782365341182 12.090552557606848 6.585997619007349
S 13.42848866741932 12.724484915436976 6.577980824065792
S 10.854304390773962 9.596123168437218 5.249497818221722
S 11.889196917587277 13.757179892855362 7.554818290543155
S 9.212902673561194 10.985168711543954 4.898344732104207
S 10.39490633295779 7.901556527020896 4.454475868143938
S 8.963380885983801 13.490141575635358 13.390241561985475
S 9.931063194709216 3.5911473334446575 10.049043927308992
S 7.302538808029494 8.97248142079418 8.91290882868678
S 10.270328472956441 13.808264586046821 6.313802498118535
S 8.228288959904845 7.700144053813325 7.845559286878643
S 7.133685554809593 14.435036588605668 12.81063100118537
S 7.153668426341623 14.358239811606161 10.75414870794434
S 7.9819541711441255 3.4357487733598013 9.823629541934173
S 5.513540874242162 6.347417790783932 10.245543017556109
S 6.3351180323473955 7.994954679583735 10.825347618108902
S 8.306315046941002 5.9768864932456 12.179734361899447
S 7.006142963013133 4.775656874253765 11.4909277147772
S 6.419482627324396 12.560793183563453 10.118969477980189
S 8.602535693243627 11.906008040561435 14.444266482075577
S 3.4533138326364097 11.257356154916986 10.970663007311543
S 4.274764206255285 12.824863623084477 10.200510804551072
