36
Energy = -142.55090982 eV
S 15.134240088591627 8.231215400073381 14.36827939336319
S 12.367069274518888 11.67962102551277 16.110917851286906
S 13.638887667201839 6.795737042690667 13.969447400342043
S 15.135044739867682 8.680838126334226 12.310823456593065
S 15.777014825394156 6.9576439626467685 11.526828563438244
S 14.637311079302693 5.509376412571683 12.817036263022189
S 12.02060255997912 12.947711817352408 13.099400797807206
S 10.794038181536733 6.903493666036124 11.489134309359311
S 10.270911737443514 13.276194804140221 13.992493154341208
S 12.39748133428107 5.709464838265137 9.090204112380004
S 10.643573759702436 12.514919063210808 16.095194598745522
S 10.12743163560125 5.125200199688434 11.320325768292687
S 12.178535581628589 10.897514771300678 12.694364190729807
S 12.676263189396469 10.17893443836411 9.444235975062924
S 11.244667656294231 4.289309884833621 9.644673618065594
S 6.467351948132982 13.87300302904093 11.39752866392381
S 12.876909906529267 11.963857664540752 8.258519005867333
S 11.02633303549813 10.20609445943044 5.742440877327152
S 10.857599479367027 8.542570169464817 6.829332859964599
S 8.175633959660919 9.529007150716227 12.598918789081031
S 11.265322745292293 10.457499559115023 10.875059481353732
S 7.193062842400392 8.71200733692449 8.817363842651536
S 7.248994146408251 11.124401190203676 13.177922247775085
S 8.058220994857011 14.16409569174468 10.161925781128115
S 11.136026495227858 12.853239705890603 8.029999950592074
S 8.133218425272435 7.097130339547593 7.956752098089898
S 5.232161067675863 8.768734321546752 8.0706895249377
S 9.090829369309498 7.547883016839131 6.197743100312734
S 9.509221139360976 11.679291553184235 6.685978405252093
S 6.018461582439365 11.87155614812531 11.57513749156522
S 8.462818091114796 11.268653278436224 4.695256639612828
S 7.119188712700203 13.842804092592406 8.24637019700177
S 5.208338013524836 10.540085810111716 5.195269386131614
S 4.812474879683926 10.585290443968455 7.23906363666429
S 8.56164771789231 13.842345239674911 6.901387513482878
S 6.595224090329969 12.028784363428583 4.735189899398955
