37
Energy = -145.88101843 eV
S 13.727560917127382 10.11615317765359 12.028609642612212
S 11.942187430089588 10.695257520227136 11.20585990103665
S 14.099572293613818 8.205143767436912 11.353475443816258
S 13.254207674522338 10.458621153669243 8.081904494203448
S 9.473445979940506 10.93483117016741 13.944731232543411
S 10.7262129891137 8.416242417327867 14.320031438382138
S 9.04355140576565 13.64307859227628 9.095993432037794
S 11.74481374141305 9.115061767034646 7.284654807916884
S 8.627247215881068 12.517670140109987 12.78307478235389
S 13.467991457237162 6.211373722312635 8.001385570829683
S 11.503631998518689 6.170313326054962 11.913985950837397
S 9.898942670940645 7.318795970229226 12.965948469328783
S 12.86130952710283 7.6722193836182315 6.470336794498902
S 12.34527330569614 11.68427243721483 9.380451560467385
S 12.050058939659598 4.993360370437073 8.48197326731782
S 9.024368167159045 13.790981484981208 7.188662097266915
S 8.340125855575629 10.512063529011233 12.281944468517965
S 7.920859679767359 11.927333707224792 6.413007835602521
S 7.783324310742215 7.178763253492432 6.998257118754382
S 6.30434778788363 8.137028066440626 13.28436694227185
S 5.406214832070853 11.797289987308794 8.557936930244788
S 5.4387385091111415 12.30780103988585 10.451641012514202
S 9.617631480953905 7.189983345430091 3.403671436083801
S 7.394828233100208 10.987507064943951 8.051761418009772
S 9.068197834252826 5.724156289411169 6.3163933503125955
S 8.14632108761936 8.146724848732385 2.3406453105935148
S 8.820498231782587 5.481543597793751 4.274064143774282
S 5.922997849556521 6.419489172912402 7.466695235190981
S 4.5575912270693575 10.432323277636923 11.49044059786472
S 4.210041224257464 9.169900343894207 10.100926894725253
S 6.881485016634359 5.639022815990344 11.16115689480467
S 5.619857558379539 6.844278800373671 12.006674357929512
S 7.0506527971122255 9.521128022179784 3.455735397511991
S 4.342139904200588 8.360846238822761 5.2921388476181885
S 5.098151886961003 8.798302610829161 3.4333372611603483
S 4.761482666897414 6.380333402529832 5.754160382280363
S 13.237668069514344 6.814335941627996 12.67749703600821
