37
Energy = -141.30527411 eV
S 9.34398147968441 16.002301253117714 13.631121071877047
S 19.189675639357336 19.689891800438037 16.834144993319025
S 12.655479356701631 15.492967544299791 19.377852734215868
S 13.790062863384675 11.479953513116333 12.056989452975246
S 10.423935247462191 17.499974745606735 11.299737343821757
S 14.291758729280343 9.750288331069818 11.285967847470236
S 18.293816175679876 8.628819180847108 14.069977625135884
S 10.020245056684168 19.00059966949366 12.462763382077194
S 14.207715624766116 10.234723881641289 9.002441916955709
S 9.812937014593935 12.980720361407302 14.937011575700376
S 17.11069486000426 16.108420710238654 14.157932698151836
S 18.175479228291405 15.74304975325472 15.87663425390421
S 18.20899850675828 11.435090987806944 15.846493536266419
S 11.074067791083129 11.379683752209594 15.375500052457593
S 13.01719406577683 13.630343874541621 19.04173712556244
S 14.030509012638959 15.232421949857363 9.596186323791981
S 14.859827859735667 16.128838938846098 7.894720031570378
S 15.674288617932069 12.513971587581434 12.3868416809025
S 15.255641020780809 15.193029140247658 14.39656320594627
S 7.737803225345081 9.639857485748696 10.048701725919633
S 8.837244723036209 10.883807550561574 11.350115701795316
S 19.30119297767175 9.684271480048 15.349643149521832
S 19.74788271476264 14.431011371841171 15.344815606650704
S 18.958051406494754 12.806450015634205 14.445974739898718
S 8.807121367548332 8.134695185013387 9.503851649910777
S 9.170548958680719 17.80838755755685 14.314080537200645
S 7.749820901613125 12.348571989003181 11.97206832313208
S 13.274567434633646 17.03543657436238 8.893680389216827
S 9.643868890534911 8.167181986509753 14.795518173036625
S 13.454076596366741 11.991435711506366 8.893614531928161
S 11.429406896778003 13.249329419856457 16.219872300970746
S 13.158558751125645 12.43349761845598 20.544154256773563
S 11.811907989021297 14.370459700932866 11.738840134130436
S 15.521014952046894 13.148611375912578 14.315332294615667
S 18.20199391973633 21.120194649339286 16.062769827524793
S 11.573857855864938 15.997714801464433 12.720474320700532
S 9.737590119697776 7.451808307431741 13.03320971640132
