37
Energy = -146.33841734 eV
S 15.995452900613934 12.650689123401373 11.034199472927657
S 8.417315197434366 10.004121562048352 14.538157263501626
S 13.164398440133148 11.132021313908897 10.029709165813305
S 10.129804813062783 15.127916441346082 7.5859768717987635
S 11.86081793508182 5.817232020038655 10.171716605820555
S 15.367640674713247 9.21141689414371 13.678360265817265
S 13.897970190236705 12.972502193660407 10.614334968707169
S 11.63198756465404 7.146245668893598 8.825833471789272
S 9.934991932514984 8.871985045058883 13.775361025281821
S 11.989211653833964 15.55491844129252 7.031026751123811
S 10.773986934770386 12.248654667640805 15.484771021347425
S 9.972703501265988 14.237154456448053 14.729451369730194
S 10.094803216510238 11.695359689568033 7.769506315295304
S 5.800509533980873 11.438801628492865 9.889051354488267
S 15.5229294295537 9.031516410051662 10.329326780234947
S 8.856478318714375 5.628277746091824 9.452413662777825
S 12.521053020766038 10.102198763217517 11.595937626360948
S 13.512678635928653 7.568807264893299 15.921346337241095
S 10.199874740793904 13.438204103180121 8.848801846648659
S 7.581709592294818 10.497393544217651 9.488809877265348
S 6.436164248954016 14.089415147517949 12.013081206940486
S 12.809957430021937 16.663424732855955 8.842590386066657
S 16.622131033286472 14.283062224902768 11.851184300194646
S 13.974197295851782 9.501793318802191 15.050410286085276
S 9.21422435187169 11.17146465894667 16.114945670573643
S 9.674721076560175 13.44070604494932 12.62513101951792
S 10.277408430506723 7.197325143250879 14.94403289057704
S 15.212520100986776 10.837931095680908 6.762471582052416
S 8.141436484368118 11.074578468459928 7.551703094257212
S 14.340868904457482 8.536796248406572 11.750413719846204
S 8.390673392481403 14.809042055268998 11.883578873314748
S 9.511396415517028 7.012471123348248 8.316794587185337
S 5.950155480319555 13.48848402699472 10.094860918546939
S 11.432818661493348 15.476242396258078 14.780726212461222
S 11.475706666862571 16.621129966570997 10.214992138216331
S 11.578845640067897 7.776799959992596 16.474605648336347
S 13.822294604409558 9.751172122705325 6.053288320365644
