37
Energy = -147.18009362 eV
S 10.572564327922217 15.054403728240656 16.03992921287024
S 6.826581611776778 11.94719349226264 12.41521006445475
S 14.050032644959881 7.779376571438436 13.341697436937874
S 16.072170544045637 9.522234167769827 11.349415523613391
S 17.123099578515486 10.14038178296427 14.395261856081097
S 14.395081039741244 13.918263173147992 18.750404218449102
S 13.533580801765588 18.232277294534466 8.937872405243501
S 13.519123329582179 13.930022227965704 8.876388665713224
S 11.696637726604585 12.24799255627743 17.426455598595023
S 12.458711198394294 16.242868283708283 6.569883437110348
S 13.677561872246491 14.237022250258867 12.064975148981688
S 20.139030179637444 13.831984295930036 15.643283723576399
S 16.246280577913357 11.05022301418074 12.697578655714086
S 19.003918412218027 10.850589592620652 14.540496012017071
S 12.579477810743688 14.167825351218893 7.13150099416049
S 11.917675170081102 14.040215819112559 10.510675240319722
S 12.861451806697318 17.287081608863385 13.177787017062853
S 7.832968286233083 13.220511195793588 15.2780029210418
S 14.239463736501742 16.841883451728815 5.937748632316068
S 15.347102145837969 15.04860298291248 16.10152456367245
S 9.711404519171742 8.639703146487776 11.810887449976002
S 13.863687968481015 16.569869180218845 16.313775631445882
S 11.041112771571214 14.072990645043452 17.85178974201424
S 18.63562569015573 12.632513802168383 15.75787972552181
S 8.50216656445203 15.00608311200869 15.98531696345132
S 11.13231101156932 8.637304443068153 14.838199374856252
S 13.9911807974688 12.433118425544569 17.626670228375534
S 14.103734967543573 17.846054531996735 14.72674740566142
S 14.059809222419073 16.171948704998112 11.853243208872035
S 14.558205269917606 13.408506416913449 15.413241185414424
S 10.502506381503634 6.9161832766065094 12.05718978051324
S 14.992426653990792 18.05730613835301 7.714636153697141
S 13.188762935077182 9.075376688614675 14.686366337784705
S 11.026914000284295 15.72638613905258 10.424352802181795
S 10.075167974193876 9.86685617175487 13.679398503199733
S 7.6843569277452515 13.520471542635478 13.130677087836306
S 14.136569516918044 8.77693078117104 11.532303123887102
