37
Energy = -144.70937647 eV
S 10.497823997862822 7.634865472004068 2.703911231437055
S 7.541468067216318 8.672836852555573 1.5960417043052018
S 7.431499400132928 10.417970010179921 2.4503990539774376
S 4.1171730604700425 6.543349351233498 1.8062222026178092
S 8.367205081455955 7.22783142073675 2.847841215847847
S 7.449056334501399 2.9690789643463837 5.574445631366047
S 9.804779286527944 10.347466859687398 6.245100482025244
S 2.5754557730466674 4.436557509320199 3.755429535776061
S 2.6025241254481273 9.571856598761501 3.2533440368529982
S 10.10703192431473 8.558324950529 6.87746429908782
S 4.370495932272183 4.760628380230058 2.4816187275499284
S 7.262541047885993 10.203340082599397 6.315122389115072
S 11.398365742075546 6.357280825802221 3.8298308751949888
S 3.737493348777133 9.9761372382558 4.97501982483346
S 3.5389626469368576 7.992934778231574 4.16042293710554
S 9.29840166564312 2.9087543235329796 6.247666564839728
S 3.9945279161168306 4.750551124706918 7.417282224801744
S 1.5991695256595742 6.082404773600261 3.5857170101542044
S 6.688802822613936 11.611163862206553 8.223873036386852
S 4.678258378070282 1.4487091577522466 5.077530594565217
S 6.165286771687388 1.2210578497515756 6.262941659117395
S 9.664001329075376 4.548807509932714 7.827562489889866
S 3.642212166300378 2.7522595960639644 7.798243211156448
S 7.133313578513797 8.444499823619685 7.0167129504195564
S 2.893676107955999 5.755851357227061 9.09510838180395
S 6.52390578405541 10.200546209949426 9.558846821296148
S 4.342990837807345 6.985948100802917 10.345570284944403
S 11.570723934988665 4.77322649224375 7.7278107821171735
S 9.980849871570275 10.367979103495419 9.734953397951342
S 5.294844012240593 1.8537587274441263 8.415530504794086
S 7.339529464838265 5.807648300689707 11.237372897429527
S 9.244584702206934 3.495738030880146 9.836900680715306
S 1.9504420088237164 7.234360192592987 8.304228378040488
S 10.684494473015857 8.610856965867852 9.046536431030049
S 7.3558634311631 3.862460621293817 10.264138820589913
S 8.2674603964011 10.152685721498269 10.835980465619556
S 5.3765207212940735 5.952008529342636 11.75901393421253
