37
Energy = -148.55348515 eV
S 7.555049830173228 11.551779611069842 13.745399445045924
S 6.426208366480672 7.9382407735220495 7.555158532352932
S 7.0914775968579935 12.530193828046448 7.682814214835243
S 7.467259799495301 8.088265558420716 9.238602427249383
S 7.191648975784236 12.595348761121459 4.3706698884402035
S 6.81785583398787 10.655729829521261 3.890130803029241
S 3.0444744048228607 6.067215473413339 6.9292176878321445
S 8.439745719467528 12.667248855944209 5.994797287447175
S 10.443028712360372 3.4534697287015805 9.043691039686584
S 10.18932899696508 8.610443802403672 5.043654108917328
S 10.5201060373316 5.593655921663785 3.5413448837861616
S 8.432295952200157 10.016193598679768 2.4835749613379563
S 7.171200221886929 6.270798363777831 10.360019715279975
S 11.56068026245544 7.217030949588934 4.2251663352359605
S 10.778424102820432 4.042433150320225 4.882968305756478
S 2.833411427073261 7.233154256035196 5.432568175050455
S 13.380101368634998 5.124247825622306 9.284558203272002
S 6.1913323318414255 11.174239995980761 12.289166464015192
S 8.515056812745563 9.845149274431531 14.494447317612803
S 9.559353315343042 8.797173793825161 13.07746330721415
S 11.450609961133203 9.581900026819497 12.72285092489562
S 9.25294395604786 4.786439529807702 7.8323268445789465
S 11.561763981907417 4.539730641372457 10.284392090638864
S 9.084960582420605 3.790956458077165 6.069304327469259
S 10.273244198536855 10.223804285424821 3.889052083056608
S 13.03986733730386 8.486700970930611 8.776874686306648
S 6.770845764510548 6.862733995480167 12.264008788939192
S 4.407440373071465 8.779408951781754 7.923058993074145
S 4.015700950494925 8.77946670914076 11.892514657947586
S 11.344391588883592 10.527958720649206 10.88689805914816
S 4.727688473042671 6.981822342399889 12.643176600941672
S 8.069280060813762 8.146425956781288 2.267147325331171
S 8.211027050398851 12.354974367460953 9.246413087163393
S 13.779229319461969 6.974630620676315 10.017236514321404
S 4.415565538446117 10.367778660028993 13.116542243120685
S 11.172423617085627 9.057790587647037 9.44079599588744
S 3.7903699316018176 9.260856577320181 6.137386427671314
