37
Energy = -145.89024201 eV
S 4.175481885437283 7.580890496507933 1.1583606771780621
S 6.619240654349048 3.8977932526888623 2.0827950618078503
S 2.8249287091208437 6.510284246643247 1.9738107722531855
S 9.594428589164908 4.281782909787318 3.543561872667538
S 3.658574991312709 9.759909643367834 1.99609128847517
S 8.649346307008157 9.415459356162664 3.630106268933187
S 7.735463060364522 5.143981714382358 3.3292916562054833
S 2.1690585022888516 9.340025920725287 3.1251456605978056
S 4.99756390063677 3.229000192813359 3.136841022895317
S 2.2057633702180706 4.069269713432278 5.541466318916843
S 5.394986019145281 1.3713259221154073 4.036762424789837
S 9.215652751297306 10.159012665216016 5.320329543066428
S 11.915780548601338 6.361013320054942 6.151571341300858
S 3.1239169017120325 5.000189109462536 6.935931336583812
S 5.44473462798217 11.245379222358496 5.289881394022802
S 9.52308669727594 2.702248508430082 4.86270637908374
S 9.632023027759633 3.328461541479522 6.848872934222418
S 5.108929147759931 8.947333171696174 4.7157835509672985
S 5.807124199329462 1.6488789234533978 6.000038389112387
S 9.068698214946313 8.564526255785891 6.787963200117912
S 12.311280945990799 5.241026040630751 7.6721520703947705
S 3.2592206148641054 8.75111479637208 5.184800777424056
S 4.024029931812866 3.174651680150807 8.305509564996878
S 11.575059225411433 3.2104267712117274 7.445688587211684
S 9.496500667999419 9.4605202429708 8.5508913852587
S 6.960290236869901 3.873487697813422 10.484736694999137
S 1.6376166813616517 5.814632868661567 8.41112766660443
S 7.746148900510529 10.268119472464827 9.355583717844134
S 3.4906300605497056 8.489441367230278 9.137388332994693
S 2.7917674766559384 6.62482731876008 9.844483597284079
S 3.884596794653857 1.7137980979785952 7.022104638207083
S 3.746079293418874 11.723259263515569 6.0112754142758025
S 5.395980077577798 8.124212190626796 8.503165268314232
S 8.413768713929555 6.326049319573461 10.013100723079447
S 9.013199003830323 4.254661126645934 10.270745500063642
S 6.652856622121757 8.685227653554062 10.09785758983763
S 6.840174206224798 5.8117595647709015 11.326058937506266
