37
Energy = -107.55184294 eV
S 4.547394859079622 7.76497242638146 7.804328179570205
S 4.991163414097568 7.219634154866413 9.808520182401496
S 6.252670231262065 5.716670801414209 5.529265421153312
S 6.352646692274643 5.889279134296059 8.59793239119755
S 4.763598322836514 8.867684990942838 12.028612121241952
S 5.739631143818121 9.024657902565355 4.530933019995162
S 6.408405165086258 5.962582976304631 12.2484688288713
S 5.23663507507548 10.857013882373437 9.247235574786115
S 5.613798422730395 11.161265975279296 7.212710925026849
S 8.458619452280598 4.309070892572865 8.51753364510555
S 8.47789336952328 5.15211592236288 6.240848731550769
S 8.002240809177193 6.158654058504641 10.38441911526229
S 6.855406481043439 9.209803499088645 8.953326066987875
S 7.87405802123716 8.997322888762419 14.190650231364296
S 6.602886286582346 7.629688472716672 5.948860398566633
S 8.642947774248343 7.727797321904129 3.8652618904845126
S 7.955652813676914 8.731869849142528 10.815819476274617
S 6.930071794883252 11.700083924569986 12.435239833684136
S 9.549336086527475 9.937156372518496 9.816962585538619
S 9.83475359554452 6.848190503121751 12.73558643716993
S 7.7191995128484905 10.772971474472971 5.012074897372062
S 7.638658895358718 11.775403182578 7.986406936358363
S 8.035911432018924 12.291057994243207 9.977042603452535
S 10.672724804584737 5.452374697579775 10.660090416767526
S 11.154802428091257 10.841211114081288 6.911203080497849
S 9.529628302817269 6.539237183483726 9.702280665851287
S 10.36920423634299 10.544146197598701 12.155583258728393
S 10.690765781933615 6.9265202153590115 5.074851977307213
S 11.396630798602132 5.3405455174295735 7.271716488159602
S 11.122141301827353 8.319940369588751 11.398133527855771
S 9.529736207998496 12.266477104725057 5.8758916145290065
S 10.450769740940936 12.432163228037535 9.110093323630098
S 10.445982090838145 9.290509930432338 4.187815360872308
S 12.647878819401022 7.497239396800743 9.172480002147868
S 12.706753361539253 8.038202494218796 6.801844134391351
S 12.182370393716834 10.001748694677387 9.566271632535821
S 12.547368141530548 10.72793646349519 6.4035205363459395
