37
Energy = -147.1170439 eV
S 11.937962140152015 6.055986321219148 9.018516948759046
S 11.762986523989289 12.306149024235031 10.618009320355487
S 12.10801113995801 5.5790603243710635 10.927398172173891
S 12.788397780452305 10.510219411596687 8.023481809287336
S 11.969048461272637 11.050428777486287 12.321882009210658
S 10.602517392851658 6.661999098572477 11.979317963117355
S 12.697079426848779 12.758364957519133 6.21523658573503
S 12.073992533391563 9.457407999467202 6.573999876968135
S 8.466276231620352 13.578607653945902 6.277838465055257
S 10.263571146647173 3.175240220155435 9.594750927086054
S 8.955054052925194 7.571964817444893 8.506660843963852
S 9.640218917594137 5.355996025637428 13.227107094639022
S 10.741211751827754 4.310091025668223 8.135318254392809
S 11.012059435064714 11.197630022254605 9.125976492884153
S 8.192283676021 4.294753295893285 12.261727180477079
S 11.995004770146602 11.479265546885468 4.985414449873333
S 10.296397292293124 11.295094939363551 13.418503411973834
S 9.639092374480606 6.130721540559884 5.446016463513394
S 8.734985018273369 5.967864862187937 7.4783190225474225
S 8.899489910037552 9.851450051174593 12.566851525478878
S 9.633860266079813 11.533554523151818 4.594949569894455
S 7.326457273660467 12.162901410986137 6.8872326512607325
S 6.084368700942111 8.283651935138186 4.5148661086871735
S 8.597742752169491 10.266178617010896 5.598864869564704
S 5.2950528668058725 4.80869148006663 10.839041273299895
S 7.319129732215637 7.203002356845551 3.2575474476039603
S 8.123324097401799 5.548163917309186 4.2276507082806685
S 3.5444744329124056 9.995727563683618 8.53268984308335
S 5.915656223938263 12.026877541474116 9.826572684488813
S 4.795758671072665 10.388821324308928 10.238912903835182
S 6.48688841994506 5.61914702132416 12.123273931076133
S 7.210091040288806 10.092743159449117 13.465151000892018
S 4.143541697543593 7.618607985603709 4.500102141577651
S 4.649876862706129 6.885014073020747 7.7536971511776756
S 3.9520285817240044 6.153809505778014 5.990895167262979
S 3.149939321751009 8.020876427709178 8.711295777814483
S 7.719684697723758 11.527450856231793 8.958445567437163
