38
Energy = -151.04636042 eV
S 15.104113111940073 9.594663881376318 18.951298767432988
S 17.141757659542577 7.28898416017655 12.101898257036684
S 17.304830162432445 17.077777681623168 14.62969898113271
S 13.272995909292995 7.81013424754122 12.736661819730262
S 14.721674087172525 16.548912388141677 16.28679620192851
S 16.804958109439074 11.651685101513186 12.555635084178475
S 10.365542844107578 15.330527994497293 17.03743580623443
S 7.49903740038505 12.01141023489181 8.63587155160667
S 14.515329486729199 17.02888187981676 11.727921780571272
S 14.416103816838007 12.330938393957116 14.875143298641555
S 12.059966067720314 19.479330979503537 13.615630865047434
S 16.45213305671034 9.534970636333334 17.57945760428129
S 18.033006541793558 10.18157657297623 13.448167323517122
S 9.672787125427897 13.61733317687852 16.487538950058994
S 10.378462398970775 10.913402497449649 12.891978737259432
S 10.733500018498134 15.401766956599104 11.643679528864538
S 12.691390362141936 19.866764102636168 11.692553757564179
S 9.964539574107809 13.808017635506417 7.591605674374551
S 12.921468078179739 12.964655822051366 13.607931870781941
S 17.064217633707283 18.675284249789204 15.642159921663911
S 11.666060344602139 16.495652783711225 10.181420519491773
S 14.605515378451173 19.05918328397195 11.460550783348896
S 15.255291600171917 18.304931011076885 16.80079521210573
S 12.350933326609168 11.304656056169515 12.46991971600192
S 8.436718621909673 13.563397398044536 15.012829297344261
S 16.20558438514067 12.952872048690534 14.024047985385092
S 16.97473546729504 8.537221552485862 13.887700709220113
S 8.427578708429447 12.931392440807887 6.88365920217511
S 10.243087632930441 7.742407069891561 14.007609034380756
S 15.880496304846115 5.782704395297141 12.514248184586672
S 18.298734304190127 9.711476086152318 18.088540256789265
S 13.694457855440064 16.080624450614334 10.074988887322654
S 10.475837914300365 18.138124196224013 13.568900910312923
S 8.651359426338733 12.504732018586118 10.071706763877126
S 12.168445111348234 7.155650736181273 14.397849540577699
S 10.117590819913463 9.729524635540246 14.576377718483664
S 13.986485982834742 6.2295225485600225 11.672229050484038
S 11.209611919995556 16.215597602487986 13.51197911031877
