38
Energy = -150.44791326 eV
S 9.196758101161924 3.688709856466686 10.278567854605202
S 9.563199867975863 6.1549135165650695 2.4439884362348723
S 6.82213416079913 10.248203752429722 3.004480128514289
S 6.987055638707057 11.112055573024612 6.521564407294527
S 5.539224778051063 1.811487680613813 4.496313103351622
S 10.114969715580388 5.274265479339186 9.406886482307074
S 9.83308702580061 5.557295045754817 4.409215886669073
S 4.823291840094335 3.47307872171569 3.6991580870727216
S 1.6656798543933273 8.618277088108997 5.392923157245632
S 6.726820747237413 7.139357611688534 4.440464742714929
S 5.9099563320865975 9.23893139556479 6.985535712947505
S 4.488526234747302 6.397805524344133 8.622867709174942
S 5.8156727393436105 3.904432225332867 10.465419713506437
S 5.649618514648441 8.532212458885036 3.529691754342256
S 2.40945533112222 9.066372251362296 8.919964292900843
S 10.45677260562605 8.516710047621325 9.837801865562927
S 9.400273501670636 7.030646176866776 10.4762772929276
S 4.004793845138953 9.613663421056152 11.881007924574082
S 7.452779050719391 3.2883301548634782 9.244011064097352
S 9.842491935549992 2.3375347190528353 3.6471659354352046
S 11.019446380165718 3.8602647746223604 4.391814502972831
S 8.213651180278724 9.91640279913838 1.5684344283486993
S 3.4020811130000217 10.603330785360356 10.299676255802813
S 2.657587992987269 7.3171976088047685 9.738744601461239
S 6.166481371751485 9.23495772970781 11.536714552640518
S 7.172487179105395 2.390590262534695 5.756995834104669
S 4.01457724405287 4.685061665800551 7.911543359862414
S 5.747377665387232 5.856375214656517 10.61905059766126
S 6.870791391631681 8.497948028553399 13.171221940482157
S 9.980395655038063 9.512214778996308 2.6348996890558913
S 5.794351288070633 12.553875622064984 6.978529965630846
S 1.7072220155186633 6.745324720734793 4.913251754582984
S 1.2189482703907504 5.452577032749077 6.257776670535581
S 6.923330980387061 2.0640703077612867 1.453513717384635
S 7.192075468365849 7.81229125227429 6.517914606808445
S 8.847743222406983 1.374233969252166 5.199745251707588
S 10.766591644415639 7.7452914727961 1.9286901930325642
S 5.883772738215372 3.6551838951599667 1.6996511480702026
