38
Energy = -145.95136539 eV
S 7.85111192335494 15.250616070321549 10.330551738991234
S 15.425880325044764 18.402023660584227 15.111182344828915
S 11.18110465295854 8.378146812719073 11.344641637528499
S 14.172401451482111 16.220763012326536 13.193787357688404
S 9.241799849505623 11.385314138899512 16.783468656126374
S 14.174714445686991 10.901682378271746 16.839634295340996
S 14.472067700987347 16.279916614427588 6.454104692529979
S 9.837033430086738 13.661076394499739 12.484257816982558
S 11.656783555991506 14.73487658115293 6.9452708351799135
S 12.741552658304975 16.13627740132398 5.485705235481651
S 15.838949368409232 7.100857137935474 14.710545833057317
S 15.266921869486586 17.492443247373625 11.936380924171143
S 15.791222995759654 7.500904095209477 10.820276899993893
S 8.622036656595396 12.452589838262686 15.299814328802324
S 14.910921721139207 7.4314527204243 9.105410007465723
S 13.428728279716474 12.643226728116321 16.540746821483793
S 15.951992183892477 18.90674010392347 13.31415254834228
S 8.278402033559864 17.189881926896348 14.942458705975039
S 8.100052417392236 13.460071063878992 10.978861973853144
S 17.117462302091564 7.176041580113852 16.617851134989753
S 13.87656957566066 11.421554493989815 13.476909953820575
S 12.504538845299212 15.810137521474394 17.486197272923164
S 10.600137621338021 15.632350520483804 16.642321530642118
S 15.39240439449793 13.93021368880707 17.043552954645765
S 11.102051211839441 10.200759823147886 10.732201178357272
S 9.11614737167312 12.381968077624874 9.234978974370112
S 13.130372134577488 14.493276555812923 8.268885910593998
S 16.194364949089692 8.30773707730175 17.853919794987537
S 11.989435538148873 16.96172785657456 15.837380600431068
S 14.970788104886536 10.34288519361424 14.604625896505484
S 13.850033916298745 16.47283012384952 8.458112171033768
S 17.442213133213766 6.537569969434568 11.038496705396273
S 14.271745276992542 8.17678428264419 15.14522297638595
S 13.276404056786971 14.864555182349234 12.132590914048636
S 9.946601179532312 12.0247787200061 13.599111279652183
S 9.188318034463881 10.453237204087662 9.674407226607332
S 8.95120967497797 17.649625413827536 13.222501833112727
S 16.65056091667537 12.573228522717473 17.490297652436695
