38
Energy = -150.59515192 eV
S 7.766264347791163 9.845676405154293 3.4951691285553403
S 5.153715385596452 4.870183104849145 5.917735734105764
S 11.873663714429577 7.288566991047178 5.141435315645556
S 7.399018000679053 11.50677923671219 2.6466244530626746
S 11.355518705302732 9.392526412446996 4.403570072823829
S 8.36528325251667 13.290766018788728 6.016467074983802
S 7.1261237605365775 4.812297458020904 5.32839323083792
S 12.706916937088188 10.574796277966886 5.0556575391451455
S 4.087813951931123 8.060631705599969 6.249570026337095
S 5.58091799280811 9.470603847450892 6.430967289123208
S 8.426026533116113 7.711701751914536 7.905473931342368
S 13.37607947120475 8.187209447999154 7.9830240922124664
S 13.637499271306774 7.59216638814217 5.989085488608498
S 4.676663818872128 6.355582702133076 7.278150553916075
S 6.463462430843254 14.282651761937402 6.275956595826605
S 10.149136346953568 10.607524506432982 8.658765567415815
S 9.633932660271345 13.822658423007091 7.377877260494755
S 5.255256554519115 10.424896454936869 8.253373993042144
S 8.176127727986751 3.6733240406359804 6.728994624893285
S 9.11879101665619 5.9949303510934335 8.972994289648884
S 9.74801429730418 4.82448222813836 7.424864194018748
S 5.707247971526667 13.738904470463195 8.093062984057152
S 4.309807593292273 12.21774883763711 7.88597917206765
S 12.904661339800331 4.936327148586269 8.875576910090437
S 6.099061399028348 5.446874943100135 11.900465078609171
S 11.49212026935339 10.519269211649586 10.390433744822177
S 13.967349844549895 6.527472798681362 9.172230481057358
S 6.48825584343354 7.300879018488008 11.256225929031187
S 8.567683066388373 9.398018338849853 9.056437492587028
S 9.132637048072205 4.0616091966395755 12.379794865712569
S 6.099278669190969 10.461177289473872 12.33485226054688
S 7.528749270952291 4.725541190199754 13.339521009097501
S 10.623554556071664 5.750857470268086 12.687306025172285
S 9.2730423702432 11.663084789682738 12.653237935599542
S 10.447186715945337 9.941168735729628 11.963922880946422
S 5.457778827104824 8.604251662627945 12.668913530252595
S 9.82105419115366 7.005617377007595 13.88288144297146
S 7.75835324859661 10.865290408924952 13.679056203756126
