38
Energy = -150.39136518 eV
S 15.134975578940619 16.19435977981968 14.821465865818473
S 9.54933335081838 12.425813806424033 10.696208273978264
S 17.18575391943989 14.56776220383874 19.003375562332934
S 11.005586114897847 10.381959251942368 12.975670888581925
S 7.887724951187956 12.700745614264136 7.592853303533268
S 12.707997068543039 12.389544291394598 16.04167965117326
S 17.98639503853346 9.991590386944848 10.297066966018956
S 8.513237745724247 9.557403664057897 8.446141706462415
S 15.703649356443075 13.888817817646794 7.450627303735941
S 11.352396238813384 15.172744661063959 10.149129110013714
S 16.758294143658834 12.541680134447185 8.29204738421464
S 13.216312244219706 10.57284349388676 16.89198548295062
S 14.928264428354169 9.863673250591663 15.967121473801894
S 8.731301971232515 14.070635296095793 6.3598926195506085
S 16.858041634022758 14.761397023948621 10.314234021790398
S 11.192307721280104 11.253004342931112 11.130106266737778
S 9.874687545843667 14.363568507098712 11.352808334311288
S 16.459524338988736 9.913530545301466 17.37411603370428
S 18.16428443240942 10.474650369643669 12.154992080942154
S 9.542276049223181 8.862850024235408 12.785462001514826
S 11.347362542445072 7.005790094267555 14.8253771201433
S 13.355620401514672 16.490037033098172 13.755847398914481
S 10.66799085851601 14.585098225569087 6.939213559226984
S 15.77658522566202 15.526504452521088 8.945661322207393
S 11.400484078903578 6.1097588223632915 13.135375873328863
S 7.0954430346663875 16.664542925688504 14.757258376007611
S 10.238283621220306 7.391848464283552 11.655489532300605
S 18.285358936534493 12.342012427931204 12.616705466038887
S 17.424411486801652 11.699770250448623 17.347164956490506
S 8.759164945232708 10.806101733883567 6.991444210616472
S 12.270128906784038 17.81710986107917 14.89087394115744
S 9.966993696258681 15.693829378122711 16.181748966938684
S 11.554815724814194 16.888559370562373 16.608657098877863
S 16.54767175383373 12.750713276547478 19.050109516710503
S 13.922878287920195 13.835431512922337 16.85387409561554
S 8.283977105070102 17.055016420245998 16.229023410477506
S 15.284127849878562 14.219564833997406 15.300402727152202
S 10.580084136000957 16.016911917846265 8.432667514296808
