38
Energy = -149.47755508 eV
S 5.164062978832544 6.405427512963821 0.719551327520466
S 9.682460360671945 4.143329089857129 3.3670557813234705
S 10.161174324544177 5.64045463711346 2.103607559624833
S 1.543259168754699 4.79538952004041 1.784330318129997
S 5.964249870217661 8.10463022185454 1.1881835674381898
S 2.957457127983021 7.927148172860437 2.3092761572071203
S 7.541848518186967 4.448579229054889 3.852110442822093
S 9.52503030905736 8.832212521972044 2.83701192184759
S 4.587428349877523 9.243633194370215 2.27489914373696
S 1.302386271769426 4.341613702888093 3.641436993742601
S 10.272992912539808 2.786910721512264 7.158161158647251
S 7.129030978080494 2.025139280399693 4.325065836364455
S 10.865075779473557 7.304538604716172 3.174099929335392
S 8.120369356293445 8.95859803295349 4.337985006156328
S 3.1774964052452455 3.4375647312134228 4.3276617034023985
S 3.246158124025911 8.669908893569362 7.010309132795061
S 2.7290865381014706 2.578158217608386 6.062618431269281
S 8.904114082226501 10.423699507378792 5.694806716220796
S 1.5253947533089445 8.710726599940447 3.3479939644710424
S 7.37156678957265 5.171379847022184 5.6188829225254935
S 0.8059540268946909 6.521603619153507 6.634324728200414
S 9.864236147572118 9.603471342051055 7.168766836795586
S 1.2140919091352265 8.138813577581974 7.629030734192708
S 3.9628064932846665 9.981108629178808 8.356807937583708
S 3.4463908483182397 3.960129697785689 7.703861053997451
S 10.54355329408983 3.7122161201131805 8.97787386512868
S 10.012608811174545 5.785368262461571 8.738181256560797
S 6.942472518790893 2.25262721853984 6.2563402327722875
S 8.706305374351155 1.485733072953617 7.229228851531966
S 11.282946059517565 6.8391767718055805 9.731460956538706
S 1.2215732810581865 4.897631320687476 8.434993224659456
S 6.5548154091962 6.409594778730631 8.584604076543899
S 5.008429354754207 9.014278893526525 9.894276460206697
S 1.6107281968832785 6.063897349963736 9.891298726645486
S 6.758463918659642 8.38839964055605 8.959126693978597
S 7.80930815102574 5.545507356772641 10.212695131789923
S 7.53111596292891 3.6568171480427663 10.343982508258762
S 3.986078132318008 2.8271038495231138 9.150619598749843
