39
Energy = -154.38937862 eV
S 9.891452514257034 13.000405337090946 5.911181015051615
S 11.039252524043937 11.358418724398648 5.901796024469312
S 10.860934131448658 6.311162614605685 4.745841508094315
S 12.476557600943531 6.41961376801786 5.795180169241997
S 6.153631124730339 6.216458560010883 8.376979592167713
S 14.04425046874049 11.520916351883123 7.503608884255814
S 6.192787496373941 8.35077528069067 7.991905169504712
S 13.049059709206096 12.005110502903591 5.778637727646339
S 9.368841745919287 13.656841256418508 8.012478861192148
S 7.819810856447923 12.052459953794605 8.47135333851958
S 9.244363946763901 9.570679357825009 10.13542197968066
S 14.922345463463007 9.678434564227539 7.166840524010974
S 12.082723336457592 7.860690379251138 7.378734799571202
S 14.493676082501024 13.084003412295113 11.695808336939768
S 13.11331276830481 14.587142301286832 11.489872595859124
S 7.64403085843243 5.820147332928738 9.703587733286811
S 13.871457997639919 8.234693311853677 8.24804700796979
S 4.573778005131075 9.217035072534127 8.611510040661738
S 11.215133797582936 13.74371082737097 11.4273579053157
S 8.210083091807086 11.391808921509975 10.32685328767816
S 6.820652562405037 5.551274998120393 11.62900636434203
S 8.461807057855339 15.316604080353615 7.663159672021602
S 12.254908111192545 4.923539417406913 11.421384617753091
S 11.23887193067233 9.803086065242358 10.55782559854014
S 5.975437406790321 10.182917282607013 13.246852833953826
S 9.380026316946127 15.60673418066681 13.518669803258435
S 14.494891758328869 12.594049590516013 13.739487350343847
S 7.423010214488431 15.119633884707707 13.369234386705756
S 15.376693590090637 5.617236391224783 12.34430921145062
S 10.417998356726962 4.99548687963586 12.002245634961799
S 13.54040469933787 5.684694864213003 12.916293750700085
S 10.483860168167277 13.833617433037732 13.350628989596087
S 13.975447232037117 10.64179238653758 13.953805515832713
S 7.22982695057537 7.133234560414662 12.821701158424775
S 6.981984823633218 15.22211511122962 11.237296669630357
S 5.466702466816944 8.4087018718108 12.686578298467987
S 5.2683181397910435 14.374404429344706 10.991171813029727
S 11.556704009391721 8.998769748955748 12.45899369016002
S 11.87767545807947 10.404303766598865 13.911062913231588
