39
Energy = -156.32134109 eV
S 13.421668526332539 14.59188270515682 12.504051590186975
S 9.270299353255373 6.2716567681439335 9.664478056099668
S 12.766907610560246 16.38410020459891 11.785001788290907
S 12.845886508819435 10.209007101593091 15.8357665868326
S 8.544568185838298 11.073378761504086 7.81679786035572
S 7.403295971252844 13.93587237987251 14.003558602032754
S 14.386139705788889 15.402184602599055 9.473097878195434
S 15.70584945238921 8.655958913246893 13.087941881683896
S 14.559076942501179 13.823639285237306 10.750210653193143
S 7.815499594037261 8.499581908647183 13.065398188421863
S 9.609097525765542 7.84230999787872 13.824660317501307
S 10.689850837761567 6.736150868362199 10.956415748408016
S 7.688800651378736 7.853049545355424 9.820625522473255
S 11.302341354639566 16.030412706128697 10.42505676927774
S 6.68407033075731 11.881293541365551 8.019718734367524
S 10.046493410298194 6.074867681430897 12.889563207614945
S 10.482919410510414 14.446928964393246 15.00805312166785
S 9.389271454279044 13.118028261046891 16.08290311467277
S 9.235944656151089 11.392331977337557 15.009232950971814
S 9.029179119871191 14.993212506689266 13.406092984895688
S 7.6944766589092 11.978088512801678 13.512253327795456
S 13.652740820315858 8.087274955246505 13.306984710184873
S 13.2387629874102 8.084360492445235 15.238666095816518
S 8.329698245830325 9.211171619615207 11.10792545833514
S 6.512461413157111 12.634656178925228 9.896009549843084
S 12.521290978041938 15.3803421570399 8.673328112727173
S 15.5502871953993 10.551376223682528 12.330515499803335
S 12.94054009946386 11.314883233131795 14.198720448579056
S 7.820428994733175 14.436089951387133 9.750450889356683
S 15.010937471084183 11.781388551257256 13.886546585447038
S 12.059046135648458 10.433380348318956 6.625320293884236
S 8.339929096048955 14.359957199919393 7.790010840118458
S 9.764435274908479 12.918881131327874 7.560118369910231
S 14.026684878752969 8.261179270121236 9.314605770015154
S 15.649420971912747 9.188454425204496 8.674504543455143
S 15.009141200703649 11.199509020722378 7.919090677979299
S 13.03677220837573 7.437053623346453 7.603268023600005
S 13.06965560954288 11.376115160687759 8.266423991597078
S 11.402309165808216 8.656169272464695 7.422811262642456
