39
Energy = -154.65771906 eV
S 12.549020875614675 8.554187754914041 11.870671795980476
S 8.562427177986198 10.368995864997538 12.422242810067717
S 8.812225502783805 7.674603341743672 8.00116946441167
S 10.37017169228976 10.067052433667365 16.365714184822984
S 10.757279214007259 7.304265049059868 14.337822201500545
S 6.76904283593414 9.221435952579107 12.746489720300008
S 6.727868122590565 8.57979287880396 14.572252470778581
S 8.617978605666979 13.579577145950019 8.228500829652551
S 8.26106474771002 9.543630399907308 8.648740414269652
S 9.64067013097534 14.29311965322577 6.482421949613536
S 7.339624502797725 13.258076444111305 13.552930795382505
S 9.626846272705933 15.537304279230872 14.580539332493094
S 9.043974960872019 13.654512383102299 14.738234796406244
S 7.04905553108812 12.432079461054512 7.609331638665333
S 10.989982165247753 11.263531292239609 6.088690465262478
S 7.915011410294732 12.224582407487079 11.86475960021964
S 10.54956298062407 7.616558828920986 6.941246962264157
S 7.58456805865468 10.58160368125492 6.906491650191115
S 11.303124841540635 11.199627236246936 7.969639525382503
S 12.164252736738282 7.810512604204489 8.359127997930637
S 15.749943468831102 9.180251696588174 14.602910905300583
S 14.818940283808882 11.037657548735295 11.903499624534115
S 11.244175913233734 13.534278836142564 12.37818821522765
S 15.443967787280343 10.808034497516978 7.117850183497303
S 13.79171114593157 7.783677331518439 7.158411664555764
S 13.066347661042206 15.190247637016075 14.865131257419208
S 14.071647326159585 9.598318210967106 6.147606045836657
S 14.317616262716006 14.030045688405798 7.773330347363049
S 12.504018558507488 14.63858235276935 8.56359550632511
S 14.685778695681755 12.10614599950726 8.52591071314189
S 16.122140949868196 10.809817434694716 13.639186644759182
S 13.197914596892664 11.995515338584278 15.955594248632723
S 12.941936628234426 10.529688733755721 12.4554161727367
S 11.47585177055187 15.274044666614428 13.132637013562466
S 12.08205443557423 10.92089572789961 17.241847792560787
S 10.79542787104819 8.03963298173249 16.252898870397033
S 12.664905201939556 7.310150225619036 13.486814370616477
S 11.055781358688302 15.497860972481027 7.287334234542299
S 12.387170013760498 14.001187618497502 16.275899583396622
