39
Energy = -155.26663254 eV
S 10.94753747687952 11.162023583331303 5.645458929005412
S 11.323040626085294 13.186034852722111 5.9226876924692835
S 9.009636089211238 10.890200107573849 4.986547176763066
S 4.099589075307453 7.577208187237767 6.36181494538979
S 3.969806454202737 5.710324693858733 7.423811285508387
S 13.649609723967526 12.678294439146061 9.649794661619683
S 10.945924693686655 13.54543450644909 7.896436161080174
S 7.731156421053137 11.178005224013498 6.59811906635174
S 5.903944370987433 5.186170620235288 7.837522401025602
S 3.632351740235432 9.07898904841165 7.495248917323039
S 14.297727793344052 14.533828154266883 9.703557279721016
S 15.699884416946677 8.27086195833937 8.989677510276703
S 13.093744628990134 6.736774309337168 7.6237439238827935
S 8.997327194057467 14.399294183380338 7.953311456634607
S 6.466894942762043 6.101962942530818 9.612127206884548
S 7.424181432216396 9.478192413757869 7.692465226221929
S 12.987022969297612 4.945122548495995 8.970647749244534
S 7.525974899454019 11.389838876766614 11.515121526603783
S 13.57451290478891 8.293993490433625 8.740593390312453
S 5.783161208284263 4.968485406345636 11.189707233730156
S 15.916697894093288 7.653046881931689 10.929620428097463
S 13.419663675719077 5.550425608159959 10.801380994171934
S 8.93528143332944 9.268584848888663 9.142388898630166
S 5.138079222602612 9.099187524518006 11.342262126626803
S 9.29557362421873 16.061258428054167 9.105438507351401
S 9.144178071756594 10.983819004008847 10.20196808531308
S 6.144040546922413 8.712317745786713 12.921317353508314
S 12.912581520512349 15.78453729674978 10.495525279156038
S 7.303877810007551 3.634111482638651 11.71828909796407
S 15.551374120425718 5.637040766600686 10.968839606516358
S 8.568238587302295 15.634676581106058 10.997528926025087
S 13.89400817424867 13.543722024835317 12.916871499659862
S 9.858740901263518 5.703871099133005 12.202889372880792
S 7.69446849955582 10.33880507719284 13.196005591867063
S 13.173807030341257 15.311132448945495 12.746300806073835
S 9.79969527929386 14.396851254276866 12.135034287270663
S 8.37051629712187 4.484094520259133 13.216577638216961
S 10.452761231885864 7.045541091647608 13.4553464261928
S 11.005110638429985 15.487660389421345 13.339744955216728
