39
Energy = -154.82355351 eV
S 10.444279796131505 15.231535045943318 9.829876555826882
S 17.08338604008185 10.05589316682839 11.336103685136962
S 7.136016745651898 9.933083842093918 13.501012667731395
S 11.286018316927793 8.34790312903213 6.942298595262762
S 9.870657259394381 15.429205722936244 11.807465735552297
S 9.159076065497922 9.692815511803065 9.029360468249193
S 9.265066390214205 12.925883087421798 16.390400234106924
S 16.525322684664086 10.995650728925025 9.776362873246054
S 11.584560629349873 12.955637393930061 5.897015518994379
S 12.399085584180922 11.87896165203402 16.20222765298224
S 10.947131464850496 14.158547137821628 13.0232722082648
S 15.15375103668657 15.366220616899316 14.37710445792381
S 8.550847273874256 9.22175948161505 16.36785847704188
S 13.323143776555307 10.824677518407185 12.63080408489084
S 10.320861075608768 12.209830463590556 12.72325904123913
S 12.445027146600586 17.2724109565562 14.41294224769317
S 10.619231044513992 7.416185321835482 11.511119985761354
S 13.532402984542156 15.924169399486168 15.260165841540955
S 17.232674875714743 11.609478074229179 12.863533091861502
S 14.124448257450435 14.00206215333303 7.77487135835385
S 11.878416322428606 5.865389824081945 10.676860246817073
S 6.246203093327432 11.639771877131954 12.709799958252061
S 12.925902136068512 12.358743979463839 7.3561368306085155
S 8.512970583412828 11.80011584430351 6.382210609046473
S 13.133175517524831 6.88096204243359 9.443026223963622
S 16.72954772871871 13.202974986030743 11.945706389597294
S 12.241520559945444 16.19404777286371 9.503460396984691
S 12.407910372317243 8.006904327846831 14.348588216995068
S 9.358218666017018 8.110630714180257 7.732527900144886
S 6.14873784870282 13.013739466085276 14.066808078391944
S 12.339341377457835 6.690795379188506 7.51764739579932
S 10.63478136795645 11.676548451471552 16.972499331415783
S 13.426792744844597 8.732245671635077 12.797140293812317
S 10.531180641333117 7.156853161920586 13.45909021605496
S 13.704607714503014 14.728806903524475 9.652296707699882
S 9.739365771396251 13.465520485458473 6.661117411138731
S 7.820968591302251 11.029667752137922 8.143375997976337
S 11.729090925210965 11.381802552678705 11.451201088668128
S 7.493378568221022 10.565429970970978 15.481083326222416
