40
Energy = -124.54409635 eV
S 11.152331468661886 9.169225715139246 11.119961200883356
S 13.262008419376823 9.498278965274991 8.347666190398646
S 14.625325781301884 8.192278531260907 10.2243198232863
S 9.28923453391438 7.292862907610019 9.862289558883882
S 15.284874587252999 11.550947912190656 9.65388787107253
S 9.124821984281697 8.12634833599771 13.019117034145648
S 13.015817449967523 7.29327571425786 9.862294057382476
S 11.152037579504206 11.151929810458595 6.98756052445617
S 13.179926420343104 8.12675098140503 13.01920147662023
S 11.152637647281601 6.7601628922603805 12.51323828128645
S 13.547640863357094 12.140194552013604 8.274462538970756
S 7.6796203378159005 8.191615072463772 10.224266522768094
S 9.042513439146552 9.49781340595618 8.347725964781024
S 7.019281801606742 11.550063229327499 9.653921134341019
S 8.756319987992175 12.139767005193448 8.274520470755537
S 11.15216366844863 11.02144529459094 9.380635505986223
S 11.152600159747305 8.615246429637148 8.270614977968327
S 9.112369250689033 10.519713079564479 11.11029427560954
S 6.890313644187994 10.095436849968317 13.032392842199053
S 11.152446082597839 8.853272220296384 14.123522386814834
S 12.512891907042963 12.738683225412911 10.990079135809095
S 9.809426168981442 13.251126731321655 14.003519387062061
S 12.494411086641225 13.251188042051266 14.003665345986768
S 14.75218391175359 13.485856549126366 9.629899547116944
S 15.41420819505237 10.096532039566803 13.032439671987913
S 14.655880372781866 12.371754784691849 12.671685575003622
S 13.292664726753463 10.584699942221775 14.211625510503616
S 11.15151506456759 14.78634643251417 12.763138770455376
S 13.192068871804631 10.5201030167312 11.11034467335144
S 9.011584383845365 10.584102232248963 14.211662359035797
S 11.152079716518777 11.272308118092054 15.47048312525461
S 11.151766802206383 13.523047858956899 8.270326144999927
S 12.24390401604384 15.111287895937338 9.527818077988448
S 11.151938919038532 11.226818009844374 12.70965130507964
S 10.059417354583896 15.111055580922441 9.527818999320841
S 8.549678958199584 14.893826673661305 12.678153119250444
S 7.6481805056828644 12.371081182941564 12.671734834398675
S 7.551466460347265 13.485091880001187 9.630041662644356
S 9.790950040013264 12.73826424015093 10.99011204105384
S 13.753737430665725 14.894436362863827 12.67814689159254
