40
Energy = -157.52537983 eV
S 8.084767959302445 9.761018338720202 6.125020159037496
S 8.378884945628828 13.358993751096897 6.824739874177796
S 7.594508275854626 8.091371814048387 4.984065496278764
S 5.588863832882215 7.833295885764374 5.152492348688372
S 13.997911952911009 11.090972126577908 5.450772012587331
S 14.651006975251484 14.04754619218214 6.359577999589614
S 6.454273112190384 13.491744877097759 6.881335396969991
S 14.155443087806157 9.097871901790807 5.698789717354366
S 14.48589630963844 12.365034217686175 7.271919881882221
S 12.260205699190605 8.210780847795137 5.5824541791507265
S 8.585577778706714 8.999803515350415 7.989828145887627
S 7.703756741910205 16.113196301290806 11.568862208384564
S 5.3770359677316995 6.736303978148259 7.022230864730312
S 5.48137816315679 12.129040841018401 7.832974867625167
S 8.333700306469659 4.31218708649331 8.010634614066811
S 9.929491830995664 3.3090066818490946 8.670005026099236
S 11.647163151864365 7.64030854628067 7.460147379380819
S 12.584010313086692 12.377807530226624 8.517964812135478
S 10.604125344759863 9.243669946470106 8.272581219445698
S 3.600177868572266 7.049496063592944 7.703164651540942
S 8.76583474701265 11.563145442673763 10.785860029424864
S 7.394245345925829 4.86305012875017 9.980585462741281
S 14.078128656736553 8.128147183396003 10.60669947146569
S 10.532273440028483 4.506128776180487 10.294932471331757
S 7.407284227223288 14.406000607146463 12.387081700344542
S 8.703992456435623 4.019979454064714 11.226403983695214
S 5.833398416797688 13.31691559346838 11.235897952738565
S 8.661928133627622 9.844904367001414 12.037816659559853
S 13.397886460055194 12.757320563283661 10.333836515245169
S 5.441595484878232 10.287258445639983 12.68941955214806
S 9.359103507211547 13.157492826216844 11.790970844023759
S 7.326990558900383 10.233208719362025 13.535109763018426
S 14.817855083305954 9.872165821415717 11.491712687854509
S 13.211730037230755 11.160188648902984 11.654761178289933
S 13.603580810526747 6.84660093993695 12.10036452038763
S 10.10117234602298 11.001333660412234 16.230702424647784
S 11.535038264842287 7.353378193802999 12.579007493592874
S 4.889111750733543 12.301856277599262 12.706517182169002
S 10.981874313342523 6.19262840723113 14.016469978874813
S 11.881896844872063 10.351946003654007 16.359389777054
