40
Energy = -152.59436429 eV
S 11.197644583172726 9.41009125250559 6.640859645618664
S 11.146821722273422 13.869748386407634 6.0499783261989375
S 8.606854462171764 11.44885002032172 6.255241255373185
S 9.283482830646124 9.373715912809736 6.222186525725857
S 11.164416084156137 13.057045845146346 7.7657791618369645
S 14.31809312916708 8.313321537948886 7.494882073319696
S 14.842322180288178 13.160499959720338 8.132191485839098
S 16.393690438362036 12.169742701823909 8.743164901561332
S 10.958410940631222 9.537427812011332 9.300531521011711
S 8.121824128841077 8.0474232817985 9.31323360424181
S 9.129215267714972 12.057761570960226 8.054390599839108
S 6.216918399754379 10.929812898078083 9.306084607203362
S 8.81977935164345 15.24379342813868 9.50164546396726
S 14.296460569841217 10.08090209466897 8.22604520716085
S 12.0935946665446 7.151681064088018 9.450513044765716
S 6.3230191126932995 8.996621604073347 8.94850492245021
S 10.587718504588038 5.970176768456591 9.123918609668234
S 13.898485982874364 14.147687054537698 9.543178694067356
S 7.101000658225172 14.33373589637016 10.753401413693366
S 10.558019885985066 14.412056993755112 9.789790903546468
S 9.741304574552988 6.088628096027481 12.228780282948009
S 15.732501060639422 10.545776470933758 11.360194982961605
S 9.535866169378163 9.854366279272737 11.287785690784009
S 10.607538507231926 11.384681018566283 12.092309709952824
S 5.447329681122699 9.25728030220818 12.132694568174987
S 7.362869965685118 12.496813548279835 11.414382985146188
S 12.697074786839462 10.377776635976483 9.934206706375102
S 13.121231682578072 7.114995140678159 11.129028316585808
S 12.21570938260878 14.051758266786155 13.117331907944395
S 8.125980476935235 7.047050630703782 11.5696836123183
S 10.832708039828406 7.326980687894814 13.529232550194573
S 13.670204288821989 12.989846067340714 12.480977551892167
S 14.800382830662128 9.592388485006197 12.762675488242234
S 8.323828331774834 9.34045200720785 14.633947049144673
S 9.268558339293973 12.933048514398598 14.51046350821308
S 5.9931472479791665 9.28017644833795 14.007883398865586
S 10.646896043227999 11.398462748721064 14.1929598641506
S 7.472966467267759 12.46492888461284 13.758612805369557
S 13.5964061099642 10.716205444550015 13.874890439057399
S 9.437326477377145 7.71389160221899 15.05403997793215
