40
Energy = -161.0636443 eV
S 16.066256058295668 10.424330144766255 9.096830801540758
S 10.81269220980732 16.18855006053328 9.320969363734635
S 14.681510084042714 12.055024694225207 9.160730441005741
S 5.559128361319105 10.424330144766255 12.528553618073886
S 9.320969363734635 5.4368343590813515 10.81269220980732
S 10.81269220980732 8.524863933486598 6.320198677158132
S 9.694523449363132 12.819626565820169 15.100652469887802
S 12.464653978608766 9.570359725389434 14.681510084042714
S 16.066256058295668 10.424330144766255 12.528553618073886
S 10.81269220980732 16.18855006053328 12.304415055880009
S 14.681510084042714 12.055024694225207 12.464653978608766
S 9.096830801540758 11.201054274848516 5.559128361319105
S 6.943874335572069 12.055024694225208 9.160730441005741
S 6.943874335572069 12.055024694225208 12.464653978608766
S 6.524731949726843 8.805757853794608 11.930860970251507
S 15.100652469887802 8.805757853794608 9.694523449363132
S 11.930860970251507 12.819626565820169 15.100652469887802
S 6.524731949726843 8.805757853794608 9.694523449363132
S 6.320198677158132 13.100520486127898 10.81269220980732
S 12.528553618073886 11.201054274848516 5.559128361319103
S 11.930860970251507 12.819626565820169 6.524731949726843
S 9.694523449363132 12.819626565820169 6.524731949726843
S 9.160730441005741 9.570359725389434 14.681510084042714
S 12.464653978608766 9.57035972538943 6.943874335572069
S 9.160730441005741 9.57035972538943 6.943874335572069
S 9.164474954964998 15.054989886836893 11.927271399315183
S 9.164474954964998 15.054989886836893 9.69811302029959
S 5.559128361319105 10.424330144766255 9.096830801540758
S 9.69811302029959 6.570394532777885 9.164474954964998
S 10.81269220980732 8.524863933486598 15.305185742456642
S 15.100652469887802 8.805757853794608 11.930860970251507
S 12.460909464649644 15.054989886836893 11.927271399315183
S 12.460909464649644 15.054989886836893 9.69811302029959
S 11.927271399315183 6.570394532777885 9.164474954964998
S 9.096830801540758 11.201054274848516 16.066256058295668
S 15.305185742456642 13.100520486127898 10.81269220980732
S 9.69811302029959 6.570394532777885 12.460909464649644
S 12.304415055880009 5.4368343590813515 10.81269220980732
S 12.528553618073886 11.201054274848516 16.066256058295668
S 11.927271399315183 6.570394532777885 12.460909464649644
