40
Energy = -155.59468865 eV
S 9.031749511121761 7.823187190128955 7.700298903688009
S 15.003124369315774 14.127029896417165 8.611357939031693
S 12.794039107119122 11.632432622217014 6.920181062877166
S 11.89277030418585 13.358893228970643 7.155127531875361
S 8.161858588091503 12.45196460948146 6.645288786920324
S 9.137772329676656 15.476653763010251 7.6522048660128625
S 9.399611324624596 9.7428159892315 8.266684298154468
S 7.848890727539619 14.023237737824306 7.736557797211874
S 13.063501866643664 14.673629186562243 8.5166209826785
S 13.31966091809397 8.63493949287395 7.544302053988623
S 9.429295454695579 7.154874914786107 9.6491590356801
S 12.387218013327368 10.020844810531099 8.492851681569444
S 15.25200747523464 12.526697032235974 9.877980240237957
S 13.2353861735995 6.054358696924406 9.729196574952672
S 11.585827250310746 4.614406739259181 10.58438627370197
S 9.875166152701668 15.736718243294693 11.400778311549807
S 7.999226228563309 10.077083878958573 9.845538769523035
S 11.180686699464465 12.12944934487028 10.754686496991354
S 6.291590350865495 12.602264380637028 11.25084214527272
S 11.647870892950687 16.60937881442637 11.22588506224523
S 13.028159561795581 9.446776098475517 11.437842758879519
S 13.125828536045908 14.918762255094213 11.595725085771877
S 9.207370264482527 15.645676178377572 13.43377011229818
S 11.390431328876483 5.076484565857774 12.4947260945772
S 7.825095768233474 8.017563846946876 10.51717460673251
S 13.584278965947867 7.247829591986378 11.216739867795006
S 15.890285560409712 12.918446002192539 11.941868334878922
S 6.253410273177265 10.755637761939386 11.869276202419869
S 12.04980990092462 13.492902568314276 12.340408034372901
S 15.416543179902469 11.257003101964735 12.847606633026018
S 11.145965985831495 10.365744290402708 11.726498285562657
S 9.56543402557199 6.036003014652012 13.408423436724348
S 9.133192347496532 13.748002136694803 14.091973444025735
S 7.995384759966223 10.7531218552561 13.206811415776915
S 13.543986768682869 9.146444577574417 15.067659295449783
S 9.851256560016802 7.835573844360864 14.311446243151844
S 13.57980225356161 11.055241735158662 14.894299355639118
S 10.730013072482611 13.413637711870097 15.540689162376836
S 11.339831972581 11.517593362215841 15.354915143974013
S 8.069952094964748 9.14398184710054 14.405504591480844
