40
Energy = -159.93229764 eV
S 9.467788761503842 10.471671881358255 4.823174046356061
S 13.26656981051166 9.924703900607259 6.891194674533751
S 8.935903914107469 8.794224591180548 5.623651731654003
S 7.687985638318141 5.323497519061988 8.31725924042493
S 11.67266052414554 11.289124524051335 6.578028396106512
S 10.782050801779594 7.749027937719278 6.000568585487245
S 6.236462642960572 13.713025924742372 8.09268674329507
S 10.226572996039888 5.778855970949923 6.182169897967358
S 9.74643435856959 5.306880359612216 8.140521477726763
S 11.052513578931272 12.2513698883506 8.290869801235473
S 7.91434188418236 10.93377231844165 8.724209701957816
S 7.141435500706047 7.122807687712987 9.19700146153846
S 12.689006868750443 8.338674239360882 7.884639059515132
S 13.39198954161142 11.195207248883515 11.062307846216703
S 8.955972896764957 15.61461391252327 8.038544160946266
S 6.921061717035842 15.587412630350007 8.539681421185337
S 6.661938384268643 12.32792176429485 9.595018407298745
S 14.439276091442581 13.077966560954643 10.232183346035953
S 13.56097005238318 5.303159100428026 10.30763445001082
S 11.72358173245034 5.200818396326663 11.26106215125883
S 6.773731146695946 6.804353457218339 11.190622951418911
S 14.26854754430262 7.164870806303579 10.891514185158021
S 9.479320245335527 8.586137004222815 11.987715065242043
S 9.988127313186961 16.291927037484683 9.675019227975039
S 15.626909206284854 13.666019076260904 11.608770957186914
S 9.96396195151902 14.84275794723703 11.155265807825849
S 12.974254324231271 12.247218130289896 14.245607628968777
S 9.84302643788807 11.024367705925904 9.450206942522708
S 14.170302390439158 11.004711599269994 12.84299184171792
S 6.0754772018977095 14.074283251108467 13.200497065991973
S 8.58639038168946 6.771744825092688 12.2335746293757
S 8.958107957239804 15.779002911871823 12.764032521818567
S 12.23692980859477 4.8835338429266955 13.249283601952023
S 7.402435549371167 13.099146256038267 14.18037739305794
S 11.06175746949807 12.140750777270872 13.768206572594142
S 14.805548127349532 6.8439384137140316 12.870285028443783
S 7.01163918199405 15.964242561308549 12.419772227017521
S 12.978600293943618 6.726432912133115 13.844045200869841
S 8.699859239627518 9.917085574621154 13.442926726820664
S 10.162529932841922 10.404712953184909 14.738851223684927
