41
Energy = -161.10089001 eV
S 8.049585668912195 10.405516514925605 4.580136160991158
S 11.688781989794066 11.980705777039452 4.655377431229778
S 9.45767877757041 7.71378056964103 4.980232759017905
S 11.39197483270511 7.519927435102256 4.932973397036152
S 11.588123267107642 12.260386855538647 6.557204613634716
S 6.192089533687238 9.948877357043378 4.59433335776523
S 5.167581055721697 11.574137101236781 5.929553500055899
S 6.344044440124265 10.44267820006399 8.747294136651476
S 6.618066913106956 12.780876438811552 6.3301934071067
S 7.029878380595702 6.27427024113726 6.91693912935631
S 5.325664511473539 6.967515428786551 7.515905532169652
S 12.94173060603036 13.95513634744002 7.04116639944279
S 12.305622664438388 7.273542067840877 6.626828758181664
S 14.160424049131313 8.455224011232543 9.802104737502289
S 4.601904733456532 11.296263085959119 9.96118349743085
S 10.29233749616248 15.735796041167722 7.450046685906177
S 5.156712688908913 13.101194828648737 10.513120765038076
S 10.916749027127723 9.320438378313332 9.674143378297007
S 7.497247771380714 11.933028789560389 8.33366339467816
S 8.36259701532211 6.124347455240897 8.555715121501205
S 12.77256616105755 9.787420205100698 10.488190571827015
S 10.974277484804809 15.515799589067411 9.2209852820185
S 12.841487388805042 14.151627802196 8.985802370466756
S 8.544439252473948 9.90837203276263 11.94590722237758
S 10.088507263842649 5.481470894990444 7.973608319193617
S 7.755175895736835 14.073570278146846 12.504957296876563
S 6.103871239359941 12.924145196489981 12.456370045829704
S 14.211878873892813 6.594473129640511 10.840761078221968
S 6.884891529411443 6.848047966422618 13.087248726443418
S 9.885090600597161 8.500752556294703 11.271458895268715
S 15.640804831700013 10.2444195712561 15.026567278317273
S 9.422463532284025 13.001804623497913 11.759106983225577
S 14.542010097353453 10.645820593842931 13.517892989871156
S 9.608942753433544 11.37571799573351 12.978453174675826
S 11.89972078847671 5.936510923286671 12.914405494889595
S 15.19764151089794 6.727828708409491 12.54424208110795
S 14.409021596719569 8.712439379944183 16.262440253955436
S 6.581825768231264 7.882043251375782 14.68579538759479
S 8.10420735355756 8.722425797758467 15.516397134781695
S 13.37078326688433 6.344205815888963 14.057208783907384
S 12.892667188755723 8.378530564196812 15.085154267189006
