41
Energy = -163.89711783 eV
S 8.658058644850874 15.610683085224245 8.210003896368955
S 11.547670851760458 12.29784985232767 6.472851199913615
S 11.357993291500776 11.65014066856589 16.9236498856965
S 12.359074285677009 8.174291861942091 14.558545502005568
S 4.882871731349054 9.382469274607754 10.410273156707053
S 6.856618741459787 8.551048888593964 10.624062996314569
S 8.90710234513858 12.94447761880209 10.157376579066336
S 5.109057126376521 11.303379152373205 10.009049816025678
S 7.752655655165534 13.830985593387148 8.457290929864197
S 12.542179715734243 10.694665726776988 6.316624081316811
S 10.262106189333556 11.734051078447076 4.143142900824578
S 10.536787269547462 13.3711953634626 16.75121237493467
S 11.868320128641843 12.581036119261148 13.796710305787743
S 11.255520629444849 10.130686560824627 3.9780440378025834
S 4.990176187280595 12.336721945268568 12.034679911465076
S 10.858324749263886 7.869272846776444 9.975296014358577
S 10.95295420705938 5.863502407853654 11.15916133944554
S 6.954085792510566 7.588890375286298 12.398397587539376
S 13.232220491149851 5.949772199851032 8.32905797966475
S 10.236862670846172 9.25656794952287 6.348788542873668
S 9.025068106362278 16.003823058414085 11.450487190572971
S 14.900431577726287 13.354679126236174 10.954824380673573
S 16.781576038926396 12.333421343362119 10.795211716256672
S 13.885268986946253 4.794262939667209 9.900240858965454
S 13.943411886051827 12.720288550735916 14.156172213979781
S 13.935419689698294 7.824857323438184 8.52301822761357
S 8.091669288542473 16.890958457793666 9.706627045391274
S 12.850174086989599 5.672474992464402 11.58233495132874
S 16.639563596798425 10.369964143038858 13.509536987136176
S 10.917610567610266 14.108297332019358 14.632811879882805
S 10.47701299450062 7.857537168336635 14.831394807228431
S 4.552344544334324 10.998797032180072 13.331992543124056
S 9.238337574833324 10.856310088848524 6.510577967953892
S 12.61526118204238 8.662022478674997 10.137226083749123
S 10.885944533460648 15.574297808183584 11.047871952038811
S 7.457590979476098 8.930000786086294 13.94747607884401
S 16.236245465221153 9.239555691542702 12.020212753011563
S 10.75826952021427 13.488933060123774 10.00773541614461
S 9.402081341629057 9.44400080608641 13.796488055041738
S 14.735608149319054 14.102619665087861 12.843398482464936
S 16.410436162633246 10.507876123155997 10.137099210774558
