41
Energy = -159.94235827 eV
S 8.016597071359685 13.626971050542704 8.39400421163089
S 5.047203827316861 4.9885883842438234 7.7059925182937015
S 7.630622224031258 9.975801714827963 9.64593432910509
S 2.9991985880125873 7.956174356838744 9.6111144822414
S 9.768654785000392 13.457349612412639 7.1088926323337605
S 6.1414074608849 5.660672319630927 13.242713748752632
S 9.14986580413097 4.514674409658927 3.965837976686808
S 13.283620778043272 6.397395093719704 11.083335559645265
S 11.927381352487455 10.613909770468688 7.930501011878764
S 4.397739592780191 8.671875459008515 12.744771773609855
S 10.092079937635027 7.045804384771544 5.989015978685829
S 13.32327601400598 10.779966269920386 6.30955308620121
S 3.9888387548580537 8.138361565001887 7.827138891314711
S 13.503407974466855 6.666976771731518 9.190846662638776
S 8.322669339158594 4.295902638650044 9.676773124013142
S 6.598324458560825 12.773501419783164 7.394904484956399
S 7.3827198532119995 7.095115039102253 13.426108716247771
S 12.189795843793739 12.187770133270709 9.13174239077429
S 13.278905968175392 5.15551488771136 8.013558969190457
S 11.379554711172585 13.96480471960331 8.152362312455486
S 10.123746863153567 5.074242188970586 5.930660443805927
S 8.182654112530889 11.292691227013565 3.356425161202388
S 5.677933670179935 6.895205667115345 7.83482034024958
S 12.146193434451781 10.970015938644408 4.702516962945811
S 6.723391057282685 3.190482342003136 10.134562381432437
S 6.439180582000124 12.421712277503682 12.033838694560233
S 8.01577140992729 9.387607367259621 3.0969803151764568
S 9.247671156077622 4.9895452002462655 11.47851053023901
S 4.868951475128758 4.480927106699737 9.905418271850676
S 3.462391931674041 3.2049639037904964 10.192830652024966
S 8.236297162819518 6.06350721171623 3.302088917246743
S 12.107503123638471 7.62724216514071 5.266400328837621
S 9.023249529810924 6.947618357704697 11.734245035386989
S 12.014686131229622 8.956232427699645 3.812438928164252
S 7.923880141864872 9.975590659377106 7.599967047092709
S 8.768792066924327 8.452917297435919 8.80552645175059
S 3.598072020194898 9.42194177274554 10.951525631832967
S 9.653477166935325 12.199123189922474 2.4998741169923013
S 9.12946344137531 11.20823328183379 13.515230520520511
S 8.359399014618335 12.161906831473457 12.018260721099589
S 6.320526239940943 9.150387520461631 13.001287386983519
