41
Energy = -160.40710378 eV
S 7.368219452051753 9.660399942648104 5.0434580232226764
S 10.100600315603183 7.31864454464031 4.514019294216004
S 12.840470041137788 11.691239921808847 6.450766382603762
S 12.979904013502708 7.736805617754539 6.118373050001887
S 7.816263175544586 11.241769276541724 6.0430324057955715
S 5.399905186503226 7.650430237229945 7.609919180610231
S 11.104188590046656 5.711032292924457 4.229871487189364
S 7.612624628443239 8.180477016632342 7.3241793065503185
S 13.06549209968257 5.9058474916285135 5.34420738225439
S 5.934258921910948 12.291639591439496 6.652367418060644
S 8.532121888805236 5.464390093485182 9.247823610185275
S 12.884276631120178 12.981436590193791 7.8841681756746125
S 13.161906697993812 6.875260371567353 9.37339666048268
S 4.600019694876248 9.209495536731017 8.543052390763757
S 8.00922702814339 9.725648501032172 8.370974593251661
S 10.505663004575458 11.367970140294846 10.291717493576444
S 15.792983502304498 11.520557434774354 8.815814461475233
S 11.922548068642286 7.712480572431928 7.928276280041961
S 14.905501027941902 13.349453581061587 8.568107993002151
S 6.477729421117878 13.786233131540815 7.738300312280307
S 14.728060031375684 8.089208986553542 9.73259295066535
S 15.722883188592396 10.974464980456426 10.767362595388802
S 5.480157161920539 10.18315615303077 11.646991803975538
S 10.244090076615993 14.782413678181367 10.672210472479708
S 12.488073053501333 13.505524098540539 12.179848552842127
S 6.955259380697024 4.9533147407854665 10.235742057218651
S 7.245769871378233 14.120484172051796 13.275407621657626
S 10.306041228483627 12.644384441256976 11.706014654904896
S 7.454842278129729 9.5622486828358 12.048056136434617
S 13.935829440283246 9.63739980464229 11.184808681370527
S 10.994879114687027 4.793825691491207 12.624022506301399
S 4.4476955978357 8.768663978481518 10.618562841880417
S 10.382097042207894 16.028078632622243 12.152067342206704
S 6.910958311100807 5.310703101116391 12.130807109510789
S 12.133442437242497 15.010703268191723 13.347114259533997
S 6.55995875558044 12.597419364814009 14.232715655465372
S 7.52886617618373 8.394720154912438 13.684699412263882
S 14.17238948575315 9.135366807105456 13.020578924629394
S 11.186326568543583 6.439205935660405 13.560246652032738
S 8.22571313815988 11.397462810864852 15.059402762249718
S 7.278411384769486 9.685685743033511 15.42456821873806
