41
Energy = -160.89072359 eV
S 9.534054139409127 11.286961390464038 4.5238291306506015
S 11.586108419544445 10.709601252833457 5.287948163324187
S 12.218363292859726 9.557404513070818 3.886940705872891
S 6.457304191263032 8.961621104122191 6.3047905893541945
S 15.660629006681752 10.215448066788607 6.995033570902614
S 5.98491878873146 10.944787069975753 6.289895104179104
S 8.71040423530195 12.74947093636733 5.613703952296377
S 14.43062986725477 14.683914330284102 8.369778756141898
S 10.946103272982441 9.454548623264362 7.0797105525384945
S 12.418690428124572 5.916973248070215 8.400410000144452
S 15.624919322426331 9.07307812687112 8.524840967053274
S 11.91762881956358 10.283677309642517 8.621630709984023
S 5.530146114729738 7.996734390507344 8.008511233260643
S 7.539794723419842 11.96754713336728 7.184760665433348
S 10.862967620665668 5.034748801890572 9.11878040563848
S 9.256685618382047 15.679498404962233 9.893661924693273
S 4.794981536274273 10.421010774847925 9.581920342773463
S 14.38136823296142 13.107295197930483 9.470057474793503
S 6.800530308615452 7.675189683493864 9.45048632059538
S 9.188402427991443 11.013470078117058 10.469843447653252
S 10.254967236691769 15.909486210017986 11.50088116723992
S 16.14382070162414 10.442102556751024 10.329016515071059
S 16.40425826861675 12.175090634481695 9.45458866172325
S 6.026465515658688 9.68127120184825 10.841865449747267
S 7.360253559919961 14.621825311604706 12.100656060016494
S 10.779496626145656 11.840117856314382 9.46046767843337
S 10.195283015089117 8.427284743038747 12.318111570930972
S 6.764790139645116 6.0343271978712805 12.766530798617271
S 9.759656504687793 10.502400072594265 12.377072828059559
S 12.097155152217889 8.145465522175614 11.885728701237916
S 10.929612457048117 4.3838798976745394 10.929979864570674
S 8.91711618701711 15.161043446486035 13.06174940655295
S 14.11859748208688 10.027783036253949 14.282787902222406
S 13.334106779638756 10.758808475327868 15.954052172897647
S 4.80215238268073 8.718686483790306 12.403343037566133
S 6.217923114588779 7.725935269678564 13.558864581721155
S 13.01688122856561 7.936648263080072 14.071119043956761
S 8.646161874478366 12.510237076753738 15.979859410731697
S 11.893934823166932 12.187271273367644 15.562208327457675
S 10.016388781919465 11.15537169444017 15.878623065646833
S 11.53811825930827 7.983753797557146 15.267730196293579
