41
Energy = -162.54664574 eV
S 12.025326648908793 8.642640630496734 4.750707471345691
S 11.919601067671525 10.632530944346977 5.334313797136722
S 13.671911198946074 11.249810007273325 6.228355701528741
S 12.34894842339472 6.400430813652332 7.206772035874618
S 10.936345249816853 7.430243789055315 5.989146168907434
S 7.431007812927022 10.94950102414966 8.072802733273043
S 5.683069883327647 12.146145524828514 8.217356783754147
S 12.730483036825845 15.996875244247759 9.926883382210796
S 11.17572726563914 16.52588224488702 8.641335678325538
S 9.411758286124382 9.691267012121 11.118619044032446
S 9.887877935312895 4.840862092188323 8.255757390816239
S 6.159216560444958 13.766447221979899 7.0916085769814625
S 12.331451889861903 7.100767260461069 9.033094315543261
S 13.96117833690691 10.005518047856574 9.371351606502154
S 13.310962651376629 11.569059800056744 8.261023837945595
S 6.717418164321335 9.136324495937254 7.4436620276427155
S 12.037621932158384 15.924058122559888 11.831258852749585
S 10.551398813214883 5.589412083247694 9.888406182999264
S 6.801714986938409 7.832411275994204 9.05242169684385
S 6.031133269253474 11.181722823227506 11.942126909717196
S 6.962823070345876 15.15655706262252 8.443175284755952
S 11.288820603473054 7.797433959212438 12.899695616372991
S 14.696194891178504 5.418872940266618 11.540717034495044
S 16.041739676192282 10.521699497764727 9.770464576201004
S 10.308601293815421 14.793530433525158 7.941422740499075
S 6.028262117031717 9.009066374586002 12.075209029814124
S 11.770075354919088 3.984231169129188 10.811983986762327
S 11.447664334976805 13.809349716660323 11.919454316733566
S 8.69352327779312 14.348509736463072 9.183409880192452
S 5.239167919847781 8.279720974024602 10.348776286998495
S 8.77675465798974 11.311001332590914 11.95266089457725
S 12.954709831155657 4.917885413817524 12.24914608850858
S 8.890982343788348 7.02688414689781 14.680913515283066
S 8.792659778695228 11.18280961947319 14.060876128899986
S 12.116005443168742 12.891913158088157 13.463643239947482
S 16.68637812635648 9.277249464076156 11.094224975749816
S 5.610111185118054 11.882612318936689 13.68040815824492
S 11.842773755832171 8.374646419652322 14.630406246366434
S 9.557419063994772 13.180316647818147 14.555370546226056
S 9.094870307069247 14.423772423767348 13.167279708546074
S 10.110759679672622 7.83447685784631 15.908207676481357
