41
Energy = -162.04808999 eV
S 10.55508652585544 11.11066575442953 11.336535957748481
S 9.639111370260038 3.6608974668338083 9.55235290686042
S 13.374332243407531 9.988403066961665 9.936907519544626
S 7.69384583311486 11.956373615975373 9.526845184549725
S 9.380675283245653 9.440003272324262 4.542813124040065
S 7.688433580276736 4.09496544951056 5.0511476290869055
S 7.18458578755222 4.836583494863799 11.594284707958371
S 8.757830882611772 8.850257480824727 14.009888623849303
S 3.9097258536395065 4.354154064555461 8.287144094923017
S 11.623506815285053 5.7084684096723155 3.9133996124858244
S 8.905817939208518 6.990048212228948 13.55538124234926
S 11.67014137519203 4.425399970349058 10.201294664516592
S 6.899059602782528 13.731219217938516 8.914102772866833
S 7.7552963265198285 12.315563740779199 4.529948248999225
S 3.7740609017670663 10.445627840607205 6.446728533864092
S 8.294765262511374 10.508917885642715 5.705259271785921
S 13.890260031809735 10.0130803508453 7.921343222920014
S 11.579217573580559 10.957308319111853 5.813567903988997
S 3.506397982203774 6.4815262466100965 8.046781056079986
S 4.7971979702665335 10.02484745968654 8.023660605310397
S 11.219799285407731 6.665383610729226 12.841468460704549
S 9.130542593348439 12.4863283045534 11.065009738241397
S 8.013772494668196 6.6480439400777795 11.546702499323246
S 3.4046527255034515 10.14216995491292 9.754482397234092
S 12.625406251432885 4.589490925540094 8.54194885780974
S 12.358046353381713 7.300125373927206 3.178843151305813
S 11.350109276588897 6.61997961340802 10.897619796975658
S 6.940374073023682 4.000059971618276 6.942300474150133
S 10.211835963605454 11.718867595489401 6.9570565774535265
S 12.43367282764363 9.213383291423655 6.732582879449563
S 7.648807816322292 14.42887577855111 7.1188423747101695
S 5.71832472826845 7.674706978860906 2.2249586323894217
S 8.64329272791876 3.289172904476363 11.236388012852466
S 4.389836596561333 9.395557404673323 11.277108654720248
S 4.022447621452092 7.171003838681585 11.28694186354917
S 2.637550339038718 6.834267220996468 9.875024660667215
S 4.805480248695116 3.6973015503863187 6.652399330536208
S 5.8104570633570205 6.0279313292230885 3.2209117743848394
S 7.665375900567002 6.021320592737203 4.359164639013851
S 12.476999325941033 11.71057226359316 10.586532914723394
S 6.508031155550894 13.365310745757448 5.688489935443929
