41
Energy = -161.92653561 eV
S 6.735080107731341 13.523231010610377 12.78190683606943
S 8.968470563974458 13.90505575952426 13.9088168570103
S 13.828041320087507 10.24219849555683 14.911050155492564
S 12.460662235976372 15.38437043315569 11.306553713357767
S 7.536476501237765 14.762221666276035 11.149299103814055
S 6.907589472932406 11.65346300417936 12.402651535055162
S 8.317748991664873 8.204526031032652 15.309995366436764
S 12.096606809744026 9.433288858552865 15.210292788115982
S 14.116352224110027 14.73076222561523 10.525283595712843
S 9.575030106782545 12.077668115410564 13.638982598243395
S 14.165079200862392 10.504364993710423 12.806090928434907
S 6.9512436877436565 9.95082857886635 8.797152579483638
S 10.757115196977153 5.630838603050031 14.226722981654474
S 11.771117842445546 14.120416891276845 6.383779999231873
S 10.855739012125602 12.059876768475368 11.883367632132279
S 7.9383480266460404 7.412725095792494 13.58993833242464
S 14.089841127487393 14.654672697741427 8.461040607401364
S 11.967947654445082 6.65270023936458 13.059260690784667
S 6.04371174043674 14.825615864233237 9.747808466167035
S 15.987628091186716 9.52863543799359 12.41717024607983
S 6.6821329595307795 10.261608659723196 5.474957571489357
S 8.228085621658385 9.295450793386095 4.5620862240415905
S 12.363388468706164 5.832848252208456 8.286787896007
S 10.07032118986393 9.935089831103635 5.302698475472042
S 10.479407805199095 11.736477191271213 4.4115386158016126
S 4.005077748052068 11.122509526395273 7.576475541654003
S 6.133998597106837 9.145935450584702 7.231615263738942
S 11.176928875616937 5.31120544376175 9.769910962915306
S 13.684117893706038 11.382231764600208 7.371381003835673
S 10.44365088152103 8.966398905263468 10.690803606595667
S 12.37464744097975 8.02512099950624 8.135496032631742
S 5.09873373664647 11.706458310575316 9.037645950696707
S 11.802411992194408 3.3206796155416223 12.393322829923655
S 10.071843163954046 13.179873039086162 5.900757361407245
S 9.99243795436855 10.965775858146053 10.400175300244717
S 8.880182007571179 5.495063982337941 13.32637560600985
S 12.724419239697905 12.891449619419758 8.060688444626827
S 12.566373911300603 4.851381842021806 11.544256601673592
S 6.38483956968833 13.375743726168668 8.364497456697729
S 15.734509453091912 7.652060594463701 11.981777719037753
S 12.412874648266332 8.669388897335251 10.039799595714893
