41
Energy = -161.25481098 eV
S 8.314145306944347 3.0516532771086267 7.354402307350564
S 9.785124351773678 3.2818503621271358 10.692994277249884
S 10.266113283444739 5.810674991014002 5.485730150709837
S 11.71604239734339 5.184482803690531 7.383444539491341
S 7.362062121602992 4.500903688901355 6.461836004812877
S 7.227660188050222 4.384197039070759 12.774439188286687
S 9.552408390118922 4.961685879097521 11.606666318948763
S 8.927011392495016 6.412129480201466 10.074865182081776
S 14.008132459238794 7.9783784924251435 10.03469601660765
S 3.6441357314759517 6.760761615797056 6.456211132654243
S 6.922625709610513 5.361916153886395 14.383024221766805
S 11.104231092025746 7.413148046368957 4.878191710208854
S 13.063416908589305 7.113271165574357 11.615251078485828
S 5.707975237336219 4.92894618776295 11.222169343898125
S 8.371007937360432 6.309813226832317 6.553786883491053
S 13.050960086774872 6.598417701844419 7.174391761961258
S 12.694677924684704 8.267443211858378 8.460467732393097
S 9.319821430435182 8.209650662822808 10.736858792596559
S 11.899883022045556 11.360881737608379 6.035465055911187
S 3.9799124606393668 7.938009229797796 4.99554387137668
S 12.442628220273866 8.865685273303036 12.76714525686653
S 12.570568305677813 13.16011016971324 7.417691252054899
S 7.20572893443178 10.194863943900279 7.03520559026882
S 7.535649474781434 10.616246531321632 2.867839245712844
S 10.916208612278012 13.982936649041918 7.945947308287714
S 4.962508571494653 6.748094057075036 11.761700879129428
S 2.5454434363357525 9.73098739173424 7.077580000018284
S 9.15304975261553 10.192181725874223 7.536803379188995
S 7.383032493909716 9.133869723603615 11.893370917593405
S 12.069529470329503 11.798061556608204 10.239200128708285
S 11.34743157000415 8.27971943087734 14.239573255210717
S 2.632725932479805 8.024116110941021 7.926827205419063
S 9.965758665014523 11.517308858920089 5.9612712186517784
S 5.731361620184127 8.187304837034317 10.594978617226674
S 6.467975222563663 13.57968207166596 3.9793434695840113
S 5.950313506644119 11.52744706183284 3.488591846330292
S 6.207927316213486 11.709662800507811 8.10891413187467
S 10.526980704096545 12.90475399940563 10.038099750578176
S 7.2165475211454915 8.453752139602129 13.666791597478337
S 6.721654426333779 13.522834701611911 7.311579386418451
S 5.469589118487435 13.982126318920892 5.7010703004007475
