41
Energy = -160.62234226 eV
S 14.202669039642354 7.517623314715181 5.910716191000254
S 11.996398787374133 7.454050804731205 5.1950951655364666
S 11.03221994545597 8.582611786218402 6.458302770574906
S 11.226836552645132 10.670523483869886 5.696158909522238
S 9.71976821834025 11.66534055859618 6.445551646911229
S 14.171286181726778 8.343552636139375 7.651484654815621
S 7.517703691813995 7.215248233819074 8.32473087656934
S 9.560287704431968 4.618807797725405 8.097233187202804
S 6.190281956888816 12.866994840962786 7.67822088778223
S 14.049735411916998 4.979183049590436 7.8523244415361395
S 8.987586171982876 5.82331662006342 9.475648764562271
S 7.235921907214086 8.894968279865594 9.31740982965819
S 10.486109961880738 7.441945968359464 9.902160169168178
S 11.704229284472213 15.990230729491042 8.214976213493905
S 12.277570498162142 11.828908701912203 8.657478716201185
S 13.556805695299962 13.432118697969612 7.873234206728066
S 6.818090543563576 13.789316165084374 9.254564470319703
S 8.293721108828548 15.01842413876124 9.048114593530421
S 14.062933726315933 6.444041813491023 9.072499286385362
S 13.11530703083803 16.312088268915332 9.457506837190047
S 10.379051407677478 12.318887380744192 8.528671311070484
S 14.435341796912237 14.353768426179759 9.367032542628216
S 11.054555819033746 7.007885148920961 11.794993653131012
S 12.200705647057962 16.236588823218437 11.79041315428555
S 11.342698231768617 14.066243647800405 11.894308296746361
S 15.241915852046155 9.379988499709674 12.948165446080111
S 5.546967952419141 8.540809618701564 10.67238264986474
S 7.148500953214527 13.866288704945859 13.661069526326086
S 5.301481763730616 10.16480461321145 11.681516974165538
S 9.82737302648045 7.9184987084726695 13.19372606558956
S 13.565757647293255 10.269922286068129 12.66481348539535
S 14.089164915783243 12.449716180949695 12.98747787774755
S 7.383661760506138 6.210282708024731 15.861822086523524
S 8.829416445150148 4.976179528804368 15.867562029155502
S 12.350318843013078 13.398362758766726 13.481253225385043
S 13.641277722996705 16.308740728174108 13.039751482517056
S 6.905089875060318 11.007698560313704 14.839921898955977
S 7.788322793282298 14.050111749804978 15.444724151627735
S 10.386693927261478 9.920623011076358 13.39645608270686
S 12.134747140062311 10.003613123532123 14.398313871103735
S 7.618575660604096 12.03877250244725 16.279294970453993
