42
Energy = -166.03783108 eV
S 6.513232074129172 8.204138872833107 2.694216550325237
S 9.002764207584134 6.67641071297762 4.411329018125271
S 7.8071653526248195 11.488397341840535 4.484760736181494
S 8.682947866075525 7.6101058812255795 2.7662534882161087
S 5.755668306450972 7.261893153497984 4.305348080093311
S 11.686442936763825 8.406761868494806 6.920129018913616
S 5.263726044294442 4.611400076354935 7.146555066758344
S 5.804296841844524 12.545056681759261 5.111462705501134
S 10.12035667853188 13.25509603837125 6.110689902626154
S 6.189352730668083 8.300437679212958 6.009137495393582
S 6.819889781693395 3.56559792712856 7.528641233094243
S 11.963990564996234 5.118017697887549 6.524478103178889
S 5.93616220723715 12.640861396033774 7.029750931458696
S 11.004791857234625 6.645087649184678 7.725997340652429
S 13.548023404422242 8.825892587148992 7.589839360303303
S 4.485449030276624 9.649512498449917 6.23727874306407
S 11.374750558024603 12.92294147445677 7.602053373527652
S 8.652936433542708 14.032002646804145 9.263419345387083
S 5.1719330522286935 5.859526082681334 10.788884793870373
S 8.825887608090358 11.437291655565957 6.137643358203888
S 12.029772095887514 3.499249356413549 7.573631320305808
S 4.913714313855194 10.690014509525188 7.831100468166207
S 6.861945914604569 6.264502093934213 9.47882176283956
S 14.526699424679553 11.42023578341818 9.444200592713516
S 12.449655773392196 5.782781394412416 11.915303872197773
S 10.648722001906247 14.045407582340802 9.358750508467574
S 13.273547808902725 9.962522365485912 9.513154096681522
S 14.313500435273859 8.442448330493475 10.96282789892537
S 7.872468234583421 12.33131688353647 10.252401264093471
S 7.912380305548014 4.611577701286055 9.236195808657616
S 5.777967321613176 5.9638052074750085 12.660991734835488
S 5.1569911268178785 9.071183911920809 11.493980141931049
S 9.964780084081285 10.049822431627234 13.585541287305315
S 12.9014461133055 11.541821611930104 12.942443602455056
S 10.336801383104007 6.009708807511552 11.960180355163713
S 13.104696590372019 7.7282923108452275 12.366359785382576
S 8.54787557056567 13.081895604964814 13.487383855572991
S 7.089410561676131 12.996895016384563 12.02757316083609
S 5.693647709434145 8.195156403966767 13.107946556764231
S 11.842799603255097 10.75939452153507 14.366725473535128
S 9.633447474943335 5.290562963615356 13.61506953522613
S 8.599909663247967 11.266922333231332 14.49349532083278
