42
Energy = -166.34485511 eV
S 7.773007523486261 8.23643487762732 3.9094058078760345
S 8.256343065397823 9.831295782510361 5.36992408561783
S 7.456094923989697 11.470338037560104 4.654205781442805
S 14.628715617372306 7.962130282342978 5.46820742586969
S 5.30158578344311 11.421509137100651 5.419849761805818
S 13.568802650898025 6.2086457734278735 5.947627181817635
S 5.145459720859007 9.745788142346516 6.420651703729766
S 8.046905504716854 6.55457468388239 4.811517032618616
S 11.596043544465125 6.672328125744598 5.762163286460246
S 11.632759347903457 13.927677901465065 6.802277147018618
S 10.037281037629615 12.47974850139924 7.776578557584555
S 14.029415794091394 9.377488919040402 6.804057733023702
S 13.204234831311835 13.370791898940476 7.791601325444241
S 7.836630841406007 15.73263937777416 11.455288870411575
S 11.094890788464417 7.382614676537279 7.713589950153323
S 5.713076366886597 10.19411645912822 8.541581229665018
S 15.16696390200778 8.02140150711752 9.777325565227192
S 5.5796387170506145 7.215714300582667 9.994361898059351
S 7.210317056409822 9.103574377164126 9.067250716114572
S 9.70739712584783 6.214074807413522 8.513820615587953
S 15.301254096811741 9.55618512081443 8.488576553547132
S 12.431664072816 13.305851896277119 10.039282881046722
S 4.00368940380506 8.036520681042909 9.271171705661894
S 10.647273272887768 4.410149656901022 9.650942748365834
S 9.706785471304308 4.361849174225256 11.322225098634533
S 11.192454485259827 11.54843966112871 9.022680996314111
S 6.901070128622737 10.936695256834021 12.337929485284164
S 13.79781554804482 12.498852230851112 11.106935622424833
S 7.744587306095679 14.272202773751031 12.699985384283414
S 5.527519289850247 7.7712135983926816 12.131421487512728
S 9.733169020885018 13.267695249916926 12.56307900130336
S 6.3195577067072755 12.670183486992508 11.704289765818706
S 13.296747559835824 8.188737932803233 10.824436316152795
S 12.804927925985883 5.003740023247626 9.846641053847703
S 7.047908123291751 6.754626529674356 13.012810105354976
S 4.700476004911069 12.315616368084475 14.484252397231407
S 10.09015868061777 12.268606050117022 14.293223349295081
S 10.628403132313302 10.255709630698128 13.987573167675436
S 13.098500652379478 6.231005336424297 11.426720619315613
S 5.737838589881982 10.718177419578394 14.337428553844699
S 8.90483290338404 7.6280609623038504 12.812677250587017
S 9.313468947898146 8.792659858063425 14.550097248197448
