42
Energy = -166.81826217 eV
S 9.022156626450467 10.099162019050356 7.305341669139224
S 8.74362258921337 14.149606293948167 7.516510911837478
S 6.503003549492658 8.567417355529308 9.177000666900678
S 6.84776239351378 7.872989531770408 10.994189526475425
S 11.417286525346377 9.153008913465374 17.503128455231813
S 10.050571381570853 13.215406522049062 16.228570139914343
S 14.75210917179026 15.915657789522022 7.725435264327448
S 13.211563278618877 10.935097199300357 8.258657190554494
S 14.841660883135104 12.645468008006345 16.19141444219174
S 8.172604914351313 8.37891709259846 7.7734225507175205
S 11.339440928937645 9.673683473009813 11.12934606583217
S 11.622310893045414 15.65363310515005 6.570505183668603
S 11.854798256936748 13.639397065554858 17.11754055577814
S 10.148546987491743 16.647689073521885 10.464428970517165
S 11.359405057946853 15.94195787721646 12.009809367018788
S 6.842196889294051 9.701697492881376 12.32305779307087
S 8.29707671734569 15.76689531428545 10.465260773126536
S 16.13277031455194 10.473290378599577 13.86578193266847
S 10.738971122996679 13.84194124965598 7.043938430295818
S 15.412327985375963 8.641497677528468 12.230090095814024
S 12.329085527159307 14.28337543303407 11.367737046236824
S 13.314541871529853 13.94173908013472 15.653211110386353
S 16.376324041648473 14.908821111082666 10.468019590366332
S 6.278196915218082 11.201656462815224 11.277247997547972
S 14.573987891548802 10.763537773252251 15.529718966857153
S 11.70302644528005 7.316944354740539 16.617815914377328
S 15.2637504521783 14.26759419412642 9.01720108275112
S 11.491776540107738 6.998974296588582 13.275466961095354
S 11.618536272194172 7.843987473461116 7.750499719617497
S 11.272111130480814 12.71316496964352 12.498707537128263
S 10.063828544837383 11.025497009392542 10.645064831148185
S 16.314219419033748 11.977225079380796 12.708011245839337
S 11.35208450592713 9.658633108380874 7.239812943750037
S 9.939847569401758 11.29303179788233 15.463764678430186
S 12.758980194740536 7.542120353973696 14.84689169641446
S 10.298965301231517 8.517784813369028 12.706784330573159
S 8.47341758638869 13.908261393349427 9.541500596805726
S 12.554604258862417 11.338510949263165 12.893301385216251
S 15.788885008072285 9.64915182627832 10.604728608779544
S 14.448675434263217 9.501153382553953 8.783647318781732
S 12.80145461498583 16.387125178114644 8.116562460465175
S 9.570475614225552 9.937626263414232 16.9744387912331
