42
Energy = -163.18592019 eV
S 10.895079319990343 8.657079784644894 6.674218727718339
S 12.816472238544696 8.423929914259638 5.758290754534688
S 14.41772112168053 15.442301158598204 7.613801380883139
S 14.186728250751148 9.335984420909467 6.7866419500456345
S 8.305300985424648 10.984899986397217 7.5407357615647905
S 10.709964968361579 7.041891439446705 7.92073417475128
S 6.948386850994427 12.358831212354966 7.643303516488115
S 9.530097060033482 15.907427678719658 8.770324276029978
S 10.567785157990876 11.553451127199365 9.75085147674081
S 14.116046089214134 14.280034968485289 9.11284151814545
S 15.312698748594084 12.399597733748063 8.740911830911456
S 11.781844902465341 7.461472742517308 9.662726757381344
S 14.122627173820858 5.231491779187263 8.138055033949774
S 7.509932174975135 15.453442275013886 8.695516700017194
S 13.183121531591578 3.8972569505587416 9.119819317101223
S 15.393254553286356 15.023655559904485 10.878630674529923
S 7.099499193459068 13.59394536361609 9.419204042294856
S 6.96137221059756 6.223890767261737 10.505733892412565
S 6.843004548553758 8.105817248439408 11.186513506326513
S 14.821875664767392 7.584384627379025 12.158790502859967
S 9.770750944500891 17.220732723760875 10.38832964396762
S 7.942076834433695 12.34141091554404 13.151427324386875
S 15.250487690273808 11.543956986900245 10.555619048850033
S 8.882606963605241 5.38409512078787 11.21448581988349
S 13.515425897991054 10.457005223065904 10.720288679439328
S 10.479262144523918 8.354369745482975 10.96415262236609
S 14.7106876419263 8.253576007799493 13.977169478411373
S 12.062933966296258 12.015039022323094 10.896145796565833
S 5.623803335179269 8.25453020937438 12.844591405133958
S 6.000115862129963 12.269606899648956 13.85821416745141
S 14.37440573040916 15.163058109536108 12.593230369818496
S 10.839787117416725 16.36846485965733 11.86467701016647
S 9.395071041186636 15.5931129451527 13.305135271053672
S 12.849874599016688 9.271022807165842 14.306331344928132
S 14.869411422930089 13.705299724322096 13.965309053610465
S 9.783455684484345 6.802957869361424 12.260536577934788
S 7.448236869610625 13.362866643369053 14.880086249745942
S 6.899590058639109 8.154280975903369 14.59415896904326
S 12.999633320747805 12.711244617697359 14.40894600946825
S 8.546765695340214 9.163392207854708 14.38752010534736
S 10.4200258864066 15.202299351179667 14.902522399507117
S 13.321831620992175 10.955943368609542 15.392529931370166
