42
Energy = -164.98585022 eV
S 8.21983197795806 4.800117904870317 3.3373768877988215
S 5.9770686663479085 5.83509298119766 1.238265024530418
S 7.715399587317226 6.434017519746855 1.9691077037429388
S 8.943402960393723 10.643885883773246 2.5487743282980304
S 10.24708312029222 4.616170227965131 3.182356235972746
S 2.692881001136534 6.639797364195821 2.1001951707518884
S 4.035181547027981 10.94089348481814 3.356356158932826
S 4.583630454664775 7.0722030387562 2.456309290318639
S 11.199365333520374 4.67430835610265 5.04471955112677
S 8.280224870164412 8.349626953494782 5.000267608076359
S 5.6848485380968565 10.309434294219727 2.5736922175750747
S 7.701440151413317 1.7782747162574895 4.939689556882723
S 1.6160321200355834 8.446431616066963 5.325738293970804
S 8.606469700560897 11.310238750533879 6.959591535935629
S 4.393609094715336 2.254613232387058 4.566035319349478
S 5.534083044253527 1.0203312026937155 5.508078990466457
S 7.38238071871214 11.438663993267417 3.4402440362388917
S 2.3213991364766655 6.39571099255906 5.439343032011563
S 9.744200873943466 9.004514270061389 3.8832265017991388
S 1.7011075995594487 5.549591577476875 3.7531855656410937
S 8.996973967387918 1.1248596170023393 6.272249753096078
S 5.510236711356373 1.245769742973104 7.628366215232355
S 4.207674799868472 9.451551627853782 7.218734605892532
S 0.36441263227806736 6.225290501591155 8.911444379259002
S 4.781373030226125 3.3559932940311348 7.903567130875429
S 4.632839577835812 7.4526576263641395 8.153736328980031
S 9.132737317887308 2.770621068136482 7.734389603886262
S 8.559352656729997 9.402887861418288 7.109707412668111
S 2.8717590081324684 3.464410821838093 7.787638986814604
S 12.110634168660301 6.4182302852373585 5.64703509631022
S 10.735488281387523 2.5123631043805985 8.773014826515073
S 6.16252950051141 6.527088106453564 7.464649255168873
S 2.1793296120592176 9.202470111875948 7.129033324142733
S 5.250661454414898 3.0719481983761026 10.143283681982702
S 1.3603241000027353 5.827462517399517 10.517449009246981
S 5.4462943782770665 8.365418504989535 10.224810833324
S 7.03757956448348 3.8902223696439555 10.604800660148456
S 10.749556972071078 8.976339843844688 7.3730161035962425
S 11.223327460063032 7.031479310075673 7.4762700096317305
S 6.787013647481152 5.660888359343537 11.638729272906065
S 2.310487196186551 7.258500609341185 11.391452176036804
S 7.125791422522338 7.3656461138001434 10.39008628128054
