42
Energy = -166.12162015 eV
S 17.099975526064007 19.663293832308383 16.48911995154465
S 15.568106661618446 9.66489306379895 15.342801661239726
S 14.674590055212745 14.508685966806855 12.948259174094645
S 12.541373140759715 14.02885332951975 15.938417164464358
S 11.278483303596452 12.411008917313698 7.098871349898771
S 18.62424834703565 16.69281877639962 10.790161155235317
S 20.363684411460675 9.61346675161043 10.025766020572865
S 14.122982326224113 14.720213890181013 18.79363353564686
S 12.646199921967527 15.775797446222876 20.147895894247664
S 10.65135769409924 14.834516829400343 16.00424132454675
S 14.891191147625388 14.124673665346712 11.088958574804202
S 5.04104078315892 15.978817564081071 16.537602159490024
S 17.03702366081899 13.793603397082487 10.37415135551417
S 4.340043944032498 15.718289754975757 14.585654865156902
S 16.933035906798956 8.348350389095812 14.102008354582166
S 19.41957991424946 16.454648040003057 18.147550363241315
S 11.001063241956183 12.437254171239061 11.453729900578235
S 7.844347390908431 17.103115113232494 17.84856596826312
S 16.070332764703767 17.982539543385755 16.608813299194836
S 15.720713644773664 11.448202528223236 14.523322024447706
S 9.141171780151609 12.216636382507676 12.30278139221305
S 10.962571719713825 14.016324240042877 10.047279483546644
S 10.947227587684623 14.909102080084015 19.998712856210574
S 18.786695789695834 15.647148922004005 12.38024931621512
S 17.928889589071755 15.365563185338113 17.259693635218763
S 18.334606627129038 17.984993509247815 19.184174838607657
S 5.675232883101407 16.32777055512253 13.32415725001495
S 6.9322349951956355 16.799639380475373 16.17192690059703
S 8.6212237812071 13.75717446069864 13.57999953564088
S 17.50744618537646 9.460269911869629 12.613198837328497
S 12.98223578956274 12.268037239789344 7.959813871823027
S 9.86634244348695 13.532547490261717 8.463894973814458
S 17.24151946256412 16.455256802275564 15.66513205914091
S 9.231419148409943 13.401676148272484 15.533380150760145
S 17.442201942704013 15.382648044870477 9.301370261545767
S 19.52415551109026 10.533104625897057 13.301383636234641
S 13.050001668428223 13.321802078837914 17.86415737983901
S 14.666872024746496 11.597365735886166 11.237891162355968
S 19.889622554190638 11.151270164699476 11.075152014473751
S 14.06745940411127 11.621708097200008 13.082228661709438
S 19.25806956886452 12.149601829297007 14.294871691387945
S 18.572670268314784 19.670240147597493 18.178847330669694
