42
Energy = -167.20004123 eV
S 11.847435609305425 9.829880796613352 4.532077103904482
S 10.1836585954511 12.678932196982899 3.5524054849471582
S 10.056450520062311 10.59192902132667 4.004271173540129
S 9.262843848362214 13.662620944384084 5.0093963310190635
S 12.597878097458182 13.849797579102153 5.526116791520277
S 11.955364088752864 9.986249092483787 6.6715874246293385
S 10.944584644238299 14.311632008502098 6.3778454548895045
S 9.040216107813423 4.55002723580225 8.720934753980849
S 4.985787272652703 12.847951995230313 7.245137974513985
S 9.71747104838316 7.843224921780516 8.340940634224163
S 8.564346098580362 12.034916637382336 9.314134259015939
S 4.606512636393146 13.697564349305184 8.998702305702796
S 15.136719160643052 9.41648941828174 7.394710339664016
S 8.417288098614636 6.427231536850321 9.136429425991636
S 11.020612032995635 8.386149665029986 9.857635809406363
S 5.162424426924911 10.633892906038971 7.763817683867173
S 13.543429800008441 11.060908881517356 7.137114637603759
S 6.441654160256282 14.455062864937409 9.800292884997523
S 12.94084883082929 15.10512481716231 11.464691835231081
S 10.557286609760828 4.0007349597549515 10.130304887219623
S 10.290468929042587 11.62789985930727 10.292429014766316
S 14.533909452971892 13.837722652440615 11.800417176005327
S 8.654600405422876 3.809834623074804 12.91485256784338
S 14.287553335547926 7.745199700605373 7.02033818116872
S 10.156584071020335 4.866442159331747 11.90727027830867
S 7.348404290319572 12.97541961692996 10.814929011721986
S 10.08491669997224 9.711211242335493 11.114526267837869
S 12.133502295813155 15.77138712050858 13.266454647673532
S 4.741206563763477 10.415645106668713 9.6142372438547
S 10.56185321459476 14.614708386864717 13.827096519271318
S 6.947937936293072 4.9571761854250855 12.723817838554416
S 14.661754506670595 8.061794863682106 13.256240364279313
S 13.891347810861639 11.914438322999848 11.363455534473037
S 6.663300287429558 9.332323353973475 13.27207175549381
S 13.076857494391911 7.150142832460963 14.632699919686464
S 6.763570913108273 6.130194237847914 14.3879267835199
S 11.427817670952823 13.357441084726462 15.382302425472938
S 7.829909512653881 7.96486118544509 13.998716923226565
S 13.190110241524582 11.021372236313999 13.076784575062009
S 14.767981325237315 9.921414485207789 13.940255425021238
S 10.014555487504978 12.256226406594214 16.094973896997818
S 12.373177259928122 8.570953901298852 15.703787846404369
