43
Energy = -170.54401035 eV
S 7.631549945314909 8.155480657394847 6.370383447377599
S 9.631768212378036 11.937357360555325 4.8157135964418565
S 11.374875389111857 10.57931686674512 5.2660101356253595
S 8.154410869901763 10.73882278489008 4.321246707292014
S 12.69335541201495 15.807660608475143 7.979312395966741
S 10.739172290217954 8.763689025570057 4.980046671767064
S 7.2566583235375965 10.10209454730648 6.214036974977612
S 14.378480175141242 12.872258144945075 8.813855570367789
S 12.766716638301478 14.373542647847747 9.252365120871573
S 14.733465970446654 7.6214283232932685 6.795997129615156
S 9.757597046790192 8.019654289970124 7.052457776765346
S 11.227669602441367 11.103360319868106 8.968492514188046
S 10.124858014991199 6.145759609390532 7.2647021679370125
S 7.148388572861087 14.259541159997609 9.172474655595876
S 15.634850955023378 13.020050552436047 10.374324873568412
S 10.95985358378097 13.014784983221663 8.580521043997262
S 6.220643593638622 11.321639286198925 10.709269648205265
S 14.193081521487223 6.461694372232721 8.20788332223998
S 11.97945166158614 9.542975478648765 11.794007668771423
S 6.590910848680608 15.978669922702531 9.979041282194386
S 5.590894756752551 12.823448533211877 9.52247158138863
S 8.620466082704647 14.341704531959923 12.127261029432491
S 7.610289895226997 15.969076727831343 12.00645440206693
S 11.83281156041141 6.12561847492698 11.708299170083647
S 14.781166275487733 12.487701448944742 13.603403823865378
S 7.126973277148115 8.222807227304576 12.656334184952385
S 12.779537554754876 12.64333664737533 13.961359866000647
S 15.306161734618076 7.19763624173119 9.939911150959523
S 10.706548929074359 10.894632844991653 11.077059844648085
S 5.653453049804117 11.857488725302488 12.711448297460711
S 15.187790485391856 11.547137045834592 11.810480129851966
S 12.848931244381431 5.635546215353937 13.562128781124269
S 10.730445545883914 7.752414304551018 11.978659688056368
S 12.306246537864883 14.725174442851285 13.549300997981746
S 7.195796358678278 11.443326934487898 13.909877324892742
S 16.305812935784612 8.663361317782456 9.255676494346217
S 6.685718530712837 9.231516432171743 14.225301731316318
S 11.498074415321236 5.889302948196265 15.06012210102447
S 8.04676752858755 8.800917994487655 16.039913008474674
S 11.136948891382783 15.33672120691389 14.95840326734798
S 11.33129734291123 9.284535045836108 15.249120198760544
S 9.661785820734648 9.967626645553773 16.304116681667665
S 12.111807937519094 7.592672439493546 16.124238859315344
