43
Energy = -165.48117153 eV
S 7.4666601703631095 7.802839681769109 3.2205972929004085
S 7.414268925517263 4.6869920713895 4.847152777345961
S 6.346953367900184 6.398464505138925 4.065703610117227
S 7.765241947280079 9.824956868657658 4.20671445581956
S 6.076563646564839 10.504390938771463 4.9883019557222825
S 11.81368464606192 9.678086415246197 4.864866903851513
S 11.676604498467572 5.702907208242015 3.743748245956439
S 10.862317821245258 3.925455561297404 6.432302746855011
S 6.1941839203919615 3.872594199510828 6.31665916235802
S 6.520254448290594 10.513605094317946 7.121514654893292
S 10.230544793485109 7.696397474398876 6.2042453197679235
S 3.4224237451575292 6.5031548613793095 7.1454200889151736
S 10.218630796664229 12.737394803645389 5.852126815355429
S 6.816960659043852 7.305709634671797 7.645065632199811
S 7.249202184825915 3.191495601218015 7.876696969633054
S 10.81326608879555 8.585801461229941 7.804730966123236
S 11.838924031217116 5.901902201520182 5.6488830461406385
S 3.418526850235946 10.398316469212197 8.535438697513635
S 12.376890565904533 10.255701861734295 6.594015044559816
S 11.463563748641132 12.228015291075033 7.364572743135736
S 8.582617675083087 13.391574680568299 6.728617023338897
S 12.772692410438166 6.527973038663026 9.544229016130648
S 8.787702090534667 12.865897782698234 9.739163601808835
S 4.9500390662185785 11.541653200128978 7.971400481988592
S 5.346377100856379 7.893473617544044 9.402677686601233
S 8.226219845018004 6.545558174641369 8.806882669987898
S 7.330298288572848 4.6724201104596 9.740602956900322
S 11.146993995165522 3.5581618476449997 8.294937389526433
S 10.466287862398493 13.711113376451745 10.255317624630083
S 9.906961772049813 8.11876357159573 11.921989014655404
S 7.231598950625034 13.70688017565878 10.53823368147075
S 3.3550916542846316 9.93113272568907 11.054048417887008
S 13.139141999176262 9.287139494400869 11.512354103146896
S 5.504186842351018 7.349651408709742 11.610360492087706
S 3.7307144230955216 6.624117508342772 9.057894050820513
S 11.782230752146342 10.593764116187714 10.829620420526739
S 12.369303427736776 7.232544214997506 11.284575633468725
S 4.8377031353721005 10.596844411969082 12.085127731187962
S 9.01314807445597 11.307431025264478 13.160382579745226
S 6.341592491167418 8.935536664622616 12.403712253464501
S 9.372167912474104 7.067910096938496 13.42323974923718
S 8.733379435229601 4.02727029061578 10.89245170430004
S 10.595091762726813 10.306214085011643 12.770632411154914
