43
Energy = -170.69839851 eV
S 10.524202026435688 10.445925742946644 4.09865357304543
S 9.623760798552127 8.839268613522814 3.151296439738752
S 9.055474689713193 7.441319115559249 4.555742041372381
S 8.378288247746692 11.639538347682581 6.467309499203396
S 12.668652304914714 8.751928181586747 6.582515715257116
S 10.743191367647954 6.386454097937643 5.136266317948404
S 9.145348888776505 11.905811905154337 4.5592126056580815
S 11.317983205558665 7.180497166385308 6.942569695314242
S 3.610718767143631 9.198788706215119 6.692423800104967
S 14.488781925267826 8.06212945380316 7.159562718878511
S 10.237473553449362 14.121634388800226 7.676031537234403
S 3.9888714985537725 10.53800094503513 8.030068505669318
S 9.332345253655507 6.904794195468482 10.62415533617327
S 11.878650781275498 14.303531926914 6.563694084857673
S 7.558297200872996 5.449284453702097 10.184208712814508
S 9.845092132876442 12.05183866237989 7.845391591660413
S 6.992895310209841 15.272589503201624 9.299296220223816
S 12.918931954717493 7.590186466798484 10.005223790510549
S 13.537352253083533 14.439083569370068 8.101352772495616
S 13.344942221853627 5.52876110729672 10.335954685933189
S 6.066742105733588 11.313931528237308 10.486747721520372
S 14.563848014364158 8.47534842798157 9.24890743406323
S 8.154183292390824 15.48188044426235 10.819788340200295
S 14.671544420790287 13.744781704308087 13.931609407447693
S 12.743591710834545 14.546007664939365 9.83936555874141
S 5.725299630755265 9.844813364496778 9.135719864629671
S 6.350987997992511 5.338454693558347 11.75535366085802
S 11.098413341838654 11.008572987189801 11.964189605242364
S 11.00172789831243 4.611286378299607 12.488781902721152
S 9.863534417480949 6.268816358160901 12.683810972157122
S 4.786305068849719 6.76847404020197 11.551832782329699
S 4.923692319999866 10.993576244295674 12.206152788566737
S 14.58447689159321 8.73795016677127 13.367726328695092
S 13.75147368195134 12.39427521587634 12.935222441553922
S 8.715626204992072 8.713083489580757 10.858450505512725
S 13.004838006324334 5.221134202145639 12.316900571250322
S 8.027813209996523 14.203921463787736 12.253043347207143
S 11.534051077969117 12.697269613586153 12.799149591374661
S 5.88546542133705 9.538506523423736 13.30032822691827
S 4.678683118039341 7.845368057159251 13.278885381948609
S 13.62293077539085 10.05571650468614 14.366180246331718
S 11.332760390802264 9.935262109628999 14.373458195113171
S 11.064717473133202 11.554163120839217 15.371426334700216
