43
Energy = -170.99962425 eV
S 13.393100278089047 10.975448317640106 5.833118242284373
S 8.49661007542932 11.373563246089672 4.133262484779512
S 8.707152623676649 13.431382177012715 5.110560926871708
S 8.556962918930267 10.102959292922256 5.561575747885521
S 12.808788726874353 13.04659019502846 5.376306049616671
S 15.183085164972328 10.962015487042871 6.842145637807783
S 11.880957275189653 6.674801334168382 7.372668774384365
S 8.680009580659075 12.982934819265754 7.018378495189272
S 10.61093142946502 12.23991446320995 7.6716943055229585
S 6.447670071823798 9.356291598485745 8.60531105838512
S 13.240356364663741 14.180886727259784 6.90653706169355
S 14.871732791024831 10.55905934033857 8.844168425418491
S 6.5171198539116935 11.152668564300724 9.692285269525128
S 12.52777433480693 5.331124464622168 8.54835211007885
S 15.66975701324251 12.227566375089888 9.898103892805056
S 6.887651029063098 7.785213181487817 9.799729901740747
S 9.389185050650823 16.24605085801315 9.499500531214531
S 11.691559610023235 13.6509067087983 8.473131697841508
S 10.64665887097042 17.114060658954912 10.680538476581573
S 8.986842110141819 7.660198563385698 10.122905840547793
S 12.678574928902979 5.993539190992369 10.61239978886553
S 15.054767991908763 8.403922406633251 11.527458821204485
S 5.048933323504586 11.11831672819301 11.128683623311694
S 9.217650119454081 8.882397798446053 11.80516763549718
S 11.971639063254964 14.45609839990597 11.903307607453883
S 8.136412776820869 7.811872085924147 13.256762318016301
S 14.873315982578115 12.253664345196993 11.770252569136675
S 14.534170779854433 6.465967991522557 11.518453062312918
S 13.417112741054599 9.41836337152069 12.714347341285762
S 7.867937123870513 15.415677490754787 10.265835376515724
S 5.826942709417964 10.143473379719874 12.777144066592832
S 10.643150868763268 14.295500954983632 13.62624372743875
S 13.971798276464723 14.119342090722341 12.262841685481401
S 8.76471980701101 11.491710263586862 13.891996087123042
S 8.954960846508166 13.48487871634136 12.998436151203633
S 6.747654395568348 11.437511774621644 14.1490146406146
S 9.288304799828047 7.020623119088581 14.75992903807586
S 12.38043291745919 7.935732339726563 13.518466899489438
S 13.588984189056449 9.591510349725294 16.15449687086058
S 11.670076176092516 10.528572207668928 16.733919021665333
S 9.006965358548149 8.576900293789185 16.201920156569432
S 13.177025953728625 7.744174286022735 15.604288625062992
S 10.574691996764832 8.946742341820269 17.418488256071246
