43
Energy = -167.96940072 eV
S 8.050019903858395 10.524720339693358 4.661242227655916
S 10.909139367921211 8.630895927225573 4.557375651104904
S 10.301368958878816 10.274968050893804 5.335113307718748
S 6.91963751671245 11.087415826103468 6.192966300629425
S 10.167031898306362 13.629155308256488 7.545839011608385
S 7.408235536115694 6.740394258960154 6.8174831064619115
S 14.213826826678197 10.128798436377652 7.3462273959736795
S 5.652223518002473 7.5508310388109665 6.987227070897144
S 13.498088687266977 14.701461767274994 8.09173565753243
S 12.535422782074566 5.386414950264494 8.42657366074171
S 9.945594974921008 10.097027785733482 7.486902744284091
S 7.807388782833746 5.3289161358795045 8.346309974527815
S 7.040481552361084 13.16783404218193 6.404742185189427
S 11.283510074285887 11.627922099282783 8.16761964930645
S 8.240776730719956 13.534435302789738 8.073371315086307
S 14.833988681194873 9.40228628630096 9.000287733824539
S 12.271798963167635 6.9319498259639065 9.542097824347415
S 6.386921298440555 9.303614813247224 9.954644669167807
S 7.2140520304136855 12.284310418961207 11.426783071462337
S 8.362249767126569 6.4451996608397994 10.03831813405472
S 14.339936756476208 13.726679519217166 9.525447272547037
S 16.005476627215877 12.513997640053764 8.696639391788407
S 12.277464724663245 6.259738243174764 11.641114520056338
S 16.16817444749105 11.017279652716939 9.95747417167968
S 10.748039363014987 15.566805594420103 11.286547847650523
S 7.936617897451466 10.524028099235204 10.861286920063215
S 6.977294346005243 6.348134200341183 11.465250967431558
S 8.849870675685835 15.479436149885219 11.619772530775547
S 10.24362460396627 11.275079171778494 14.03310202073968
S 14.095243557480627 8.600987458288545 13.202775431427117
S 13.548162387383313 11.589504488174272 13.075068664990535
S 5.562687590026518 8.018830630585532 11.21810091559762
S 12.061293646884282 7.963024503822893 12.652539840387114
S 11.337125315254179 11.404379365554636 10.079765260950843
S 11.944639873414543 14.853143060193212 12.621596400299278
S 6.90700998370145 10.264240262355 14.107995310579414
S 7.016985572632463 12.142639548611724 13.662678604428825
S 9.162281207591066 9.330927788469092 14.363319405614769
S 14.058988917686408 8.966181139534003 15.111687666169233
S 13.589765733752282 11.362897542710947 14.96354036487482
S 10.981627199762109 13.198526864683085 16.657025629549167
S 11.133366543095033 11.424323557471004 15.925363137791097
S 9.304108485893948 8.68220655149028 16.1605903408423
