43
Energy = -169.22824004 eV
S 7.0161459117528135 11.856922995768773 4.981989891383262
S 10.49689803720079 7.112773193481905 5.889873058577407
S 8.590449206187788 13.205382920757394 4.811355086417325
S 12.477316078198452 11.447772240060594 5.835324955064669
S 7.346784260227568 10.574849840871002 6.534695476235062
S 7.79888951877637 4.955430329090689 6.283498379414328
S 13.671356956245823 13.193565069742062 6.356851323981155
S 13.594021986972145 9.895677741864757 6.082936728785851
S 5.916555420919101 11.401254782846173 7.993658644057803
S 9.379230077871552 6.307802055117207 7.223470029256986
S 8.348653416898795 14.692570385768834 6.228200688612373
S 5.055788752980924 6.831886728489541 6.074384151307044
S 9.673017217524073 14.187729171285545 7.744155345407225
S 10.693913332124364 4.678061218988328 8.134292824306115
S 6.036541308869405 5.551290444239315 7.162293687365792
S 12.446221746721701 14.731288661790133 5.854788738241743
S 9.685592095144266 3.920918477516321 9.654751923089371
S 9.469480252146726 10.83221055062561 11.31064726897125
S 14.43117908667056 12.369428763382974 9.982389624571518
S 14.694058979681925 10.351004334452295 10.075271231736417
S 10.753658543006035 9.959812218657213 9.875242023364883
S 5.757223745440533 9.153344511229356 9.176034407361053
S 10.205074281417529 5.391546749943054 11.310052172747374
S 15.94802065736538 13.30319106119465 10.913021204033413
S 13.568119553487984 9.638200384559687 11.889837505580596
S 7.890816065730137 5.350199718971706 12.0935059643365
S 11.34781790027061 15.369998689283168 7.507829826583876
S 11.852277062065005 8.585693535483895 10.831374201881191
S 6.660523357625491 12.423700897721375 9.429705654937887
S 7.835810302286176 14.516214036099148 12.76573399893865
S 15.099738888587483 13.818063986876925 12.933713174656132
S 11.168281465226526 4.611263617751073 12.758099460569408
S 6.116213921861674 9.947129907578269 10.922644771646354
S 8.04304763147283 9.470378392288117 11.789724359488144
S 14.525907091701322 8.180071784121724 12.692981900881666
S 8.251135208518278 4.755205866851141 13.93423702597698
S 8.92724103771932 13.506440633739345 13.958274320533931
S 8.298701549357578 6.3981952629873815 15.242878581622326
S 5.844204225809443 12.587170741637193 14.114368665788565
S 13.251308150803006 13.314746216951796 12.980828703042851
S 10.463104910594714 8.924892581964773 14.899404584416065
S 7.5115086246178935 12.131696943203856 14.911259753727844
S 10.336064059543231 7.042914232388771 15.332310558724743
