43
Energy = -167.35144453 eV
S 17.93820716412214 8.069013887383795 15.829673805874934
S 8.588685206914842 11.662987559422698 17.54974447008885
S 18.17687663472406 16.41030313216981 12.797000830160563
S 13.913014185921849 17.48685556030199 16.279261726694404
S 16.254381371391503 17.009177579891677 12.50729681051866
S 10.850629540211017 18.477148100080388 17.33329380961702
S 19.220764326815395 14.709190269591021 15.497591040103762
S 7.47252846523891 17.759483634482788 12.47359159193819
S 11.591549684995561 14.902893463672983 11.906230062684632
S 11.110260036312702 9.440516619427804 17.404200292706264
S 12.245379413123016 19.172011108712574 10.57406403196674
S 16.579238916105833 7.67555689930151 14.333001592540846
S 18.328703310663673 10.105386902956042 15.83211341999528
S 16.767615210345486 9.247876568447804 11.37282111999312
S 17.060683474469624 19.40784978323697 17.707143737308282
S 11.083642730659662 14.811768265686508 9.634258487444514
S 14.405637686736776 14.489037430629985 8.709887175447042
S 17.001294684526226 17.521370266584146 18.114426907535655
S 13.928996508881692 15.84026779306457 17.609799377299332
S 13.06019079643207 14.287981396727623 16.85755485013965
S 16.470529716463925 19.944033959929143 15.946655616399992
S 7.930211212349163 18.456678738005134 14.19535143009612
S 12.814478812630606 16.438644374759473 12.284514308615417
S 14.478054772751953 6.690243661067616 17.601908759530502
S 13.919318386473671 10.212594499903446 15.789221802552333
S 16.954365186843027 11.054488462434813 17.020953944865607
S 15.31649113019956 11.67419355094443 15.840642791211755
S 11.714178597454705 18.222160916148002 12.32041476703297
S 11.853879112280712 17.824555001493714 15.813278094454269
S 16.88323800909154 12.454352960489913 12.191187571448507
S 17.996564183630372 10.87608936497506 11.204248091747575
S 18.061907028704333 16.15785171208165 14.977436593094312
S 12.774572897080139 10.568044292965658 17.585979524369872
S 17.571120360610756 7.727477868718943 12.510714050842703
S 9.594996249331581 15.968505087907408 9.258491572289875
S 9.690329961720238 10.397363792326463 16.232940947255997
S 16.220425752853455 19.092139079218743 12.612479644670694
S 15.6173666377319 19.787166305507206 10.74091132365887
S 13.017063660350479 15.825782495586205 8.797601315006814
S 13.728634191303806 20.546323450010558 11.038145382460387
S 14.18925696051304 4.8248985409626455 17.62309505906921
S 9.61952078052141 13.205526535275792 18.102043609397363
S 16.725828563355115 13.950684842502222 10.960928403352035
