43
Energy = -167.01358117 eV
S 9.383252449582105 11.986531834899424 5.270798080394763
S 10.333810077725879 7.909159818575654 4.563255005788028
S 11.272855918413478 12.326657832514474 5.335233338827185
S 7.126434574244863 8.371200809754406 4.950126105794802
S 13.978946127947516 8.796763324560871 6.28780483827191
S 13.992921819155518 10.639545229179008 6.722503490284811
S 5.67008680498112 12.241111352625278 5.995640110069055
S 6.431126524682212 13.44953663705382 7.700875978637232
S 8.618722091314433 7.076397757433263 4.22748877269497
S 10.598532064604555 7.008603242972716 8.019685400401126
S 10.43643346641571 13.819079329511846 8.807079063266366
S 10.656313963164283 10.481166941042444 7.81012949813997
S 8.973878826012966 10.709742521182667 6.952831133790969
S 12.322689945749858 14.005386133953715 9.150749053153024
S 6.022515375982006 7.205574919903754 6.378431037886293
S 14.481603362585734 8.313939577128998 8.875151019850572
S 11.251548203617261 5.248777812598714 7.535368197166086
S 12.536471434532004 4.57462442059843 9.226492946722939
S 4.8264178006313285 10.724538737278063 6.974731458745711
S 14.466233416095982 10.203278333618496 9.059730864744052
S 5.734040373583961 12.34913586074762 9.243483811102243
S 12.488815131452222 9.794354004688943 12.880448515101362
S 10.391607227048107 12.272614003943927 11.777821694633358
S 7.127980399540661 5.877257176294939 7.333958047942759
S 8.944530235153849 9.426726524533557 10.587829871452243
S 9.247389024424571 13.600228241898112 10.561490646065065
S 11.902476932005467 7.424086737955482 10.960188264299113
S 8.836141609182864 3.5526672206844387 9.470976199283804
S 3.8694688724985165 11.761593402447636 8.53744289047266
S 7.5750055084673695 8.606466016009422 9.333910505916702
S 8.126376135430212 6.535478237788183 9.200282958337235
S 4.00731987899988 7.823166436816777 9.371247175639361
S 11.500835240084411 5.380452881308467 10.76427251966247
S 9.406528262311204 12.129024194862405 13.520043448807451
S 12.42846796143529 7.8623223600709835 13.019713232306996
S 4.717181663959661 6.669178977029151 10.71444957630512
S 7.711591977237056 10.947255350638613 13.155112697473193
S 7.198761461246951 3.6836620314294755 10.494868027432398
S 4.538946238115478 9.704457425153535 11.882653860564314
S 8.445865913113145 9.127645270826662 12.614623943193498
S 8.956797160661244 5.434858987300839 13.012855083201687
S 4.998312048452904 7.946274954032262 12.469258479006385
S 7.298541680362056 4.616295731155243 12.4783067099083
