43
Energy = -88.69285106 eV
S 7.87655299941649 9.780267298163372 6.375185329698375
S 9.841571595672663 9.139967641681872 6.5965571198926956
S 10.55473473052597 7.221150678734818 6.876088629636226
S 11.227379333178659 10.645515004609534 6.840847739522577
S 7.451868289901963 8.597721585200343 8.056778096570751
S 10.500438145468427 14.095157440436392 8.193877993613794
S 9.028534691874084 7.3056939394703875 8.35791334349169
S 8.030141826827064 11.865180584190195 7.01269020748689
S 13.991005775097245 8.271437286253583 8.088462638405879
S 12.992522064837525 10.148501529397054 7.8269048282769225
S 7.442222311481492 12.424699403769885 9.065634632142638
S 11.908091072819682 8.199031826225971 8.200329093952346
S 10.136953890832924 10.086496513119434 8.62812941078856
S 10.072220623111239 12.232006784911672 7.401618748132717
S 10.381879409593079 8.229779250031797 9.601142175968077
S 9.38375492523458 13.089008845252623 9.643218699729283
S 11.876460468224932 12.978119405555338 9.25359723240856
S 6.455383889401444 7.99975697522505 9.78355219061756
S 8.210545281339432 6.320757605526588 10.009703110631014
S 13.665609322558423 11.986521131144746 8.758534375045492
S 8.171041956550447 10.426576213790598 8.61384147803574
S 8.073918910146947 8.866214201489623 10.817571411793017
S 12.642311918725571 13.323206726177574 11.112170854266925
S 12.582653149226985 10.54879032240339 9.958965841149508
S 6.240770885397771 6.122363699210689 10.61756922651012
S 14.058053327448986 11.735592588729833 10.89512464022756
S 13.164395123886674 8.568763272350408 9.975180689962727
S 10.652111186976992 11.380627722923435 10.156051622388004
S 7.281332140157336 11.124353863209565 10.650791686558234
S 5.98482817523667 9.574099669731325 11.094151173340226
S 7.542541578924502 6.979907529844459 12.038507969249325
S 9.280511327147398 5.905759576358913 11.740804743984825
S 9.771963839659433 12.802275867187705 11.659848843111645
S 9.327047140208121 10.452398292858193 11.479559261976068
S 12.205908061220832 11.298064729511013 11.96123695190122
S 11.465370568979873 13.074622287596414 12.818431637555364
S 8.059892219302847 11.918844045989252 12.436503272069494
S 12.400328333043262 8.180137052491391 11.813002414366325
S 10.42035946686727 7.653279183555217 11.609358624946287
S 7.102304407664339 8.850381524600804 12.714388758495533
S 10.260385576413425 9.277695152726421 12.897840421539037
S 12.285770885529205 9.669436105266513 13.23204226971901
S 8.488032546084375 10.139543015293013 13.625993983037864
