43
Energy = -167.73461701 eV
S 10.651182825013777 6.82393969619891 12.112522899002029
S 11.792976857596752 15.211102963156534 8.00050808270127
S 7.674207848434173 14.10101147711238 9.656208002788732
S 10.492562446167563 6.8449863199582435 14.080496870953285
S 15.178542360784219 8.95997832543448 14.740112314368622
S 13.648285511145847 15.027586529300663 7.3372130169439345
S 11.121952419295416 11.569266161443752 10.257475052048017
S 11.284846806299639 8.748036763198675 7.399182382415119
S 8.213757662551567 10.910627099515215 8.549668042799583
S 10.929806040767406 16.074409057527685 14.759112287553197
S 14.744415629138407 10.925629757848755 15.16757379587929
S 7.718096390131598 9.519435674367259 14.9365896143602
S 8.384334591980638 11.25507076843048 14.479171622352503
S 12.301110823871925 7.3948862506606465 8.603266112111683
S 16.319460586502284 9.037489673705808 10.497021345506832
S 6.511203377867116 12.332197068781934 13.810413119477046
S 15.371931867334995 12.244671123786345 7.787940705879263
S 16.437934481221284 14.19571663138526 11.816080522601826
S 14.094527576650117 10.609341908593832 8.33875161546083
S 6.96430781915393 9.362606939742426 8.991133601789784
S 7.955327310627764 7.105240289961363 11.220123398914295
S 13.106157993528486 14.163315872338854 16.18526035370589
S 9.525383692292802 11.301655998506071 12.277885219052573
S 9.830678290981027 14.731158374798612 15.663293670965171
S 11.907017552024435 12.5148136419185 5.960830396640725
S 6.211889073597184 14.353849108105997 11.097749268308426
S 10.227284544594294 7.268134790337446 8.403497115090671
S 14.851408059716158 13.931558987187639 8.75113942603477
S 11.444951336066037 13.364311647939253 16.625857724963467
S 7.0635170063386665 12.63498074095953 8.353375875992594
S 15.495836180551514 9.126521597767846 8.589158866945104
S 12.50540687525629 16.511169928120164 11.842183793506978
S 12.508075355889686 11.389646695010223 11.636586108776905
S 16.194189772992043 12.100229100695234 14.34384015727483
S 7.131508460105952 8.883819611941696 11.094856907289257
S 6.936053122326557 14.153447620174134 13.03803839238516
S 15.479753523093397 7.573166900382463 11.682558670238283
S 11.245801741385938 11.055550924381352 13.349498711020418
S 11.485234970553742 8.232142178970387 15.033018414191098
S 10.653869022147529 13.55665889929829 6.969638023827342
S 14.130158325612902 8.401556171649885 13.025991084696498
S 11.364013895506194 15.242470335285068 12.732465990995756
S 15.106323775209187 13.437151145178655 12.980769288191864
