44
Energy = -168.46357102 eV
S 17.00552575312222 13.994482105156932 11.102812379192933
S 12.793098344241184 14.43707053672822 11.63957595424118
S 13.738585318504677 15.82545680566138 13.39739544920597
S 14.117486332384278 15.182645029057142 8.595861820192066
S 13.882628068481978 13.319450748614882 8.077959216540389
S 10.545688252758904 15.28726114298681 8.4282613230758
S 11.14572472179781 16.70962286105024 9.971978549170666
S 12.887768231554492 12.007863157404042 9.364599486505039
S 8.505791648252117 12.717980032266405 8.263265998622922
S 8.586961910633768 8.498624492118212 8.74601522043666
S 16.131631942205914 12.447637432481372 8.44775208687946
S 9.989082496061007 12.219639769547078 7.168256999188511
S 12.677428698982432 9.97581230367096 11.780147002131383
S 10.298524456590272 8.971092609281767 9.683867430295313
S 11.1244468142403 7.263204835319785 10.464444107199366
S 13.049316048498941 7.014125743920191 9.372714270085622
S 16.065660731480833 9.926934548437703 12.492287733937633
S 13.998652860891145 7.33947347385182 14.143097866547562
S 14.142607255681682 11.222114884921083 11.222785203532798
S 17.205616036498874 12.826863162913442 12.6486104058448
S 13.410072796791095 8.43489569542386 8.161254279490626
S 17.73327629497654 10.833737076019487 11.933160023441227
S 16.121844149423257 10.537430302389827 8.374173741444825
S 9.741863692353267 17.01122262672263 11.238470731519843
S 8.688705418828084 14.803467899280786 9.013557711234121
S 6.432959786465853 12.703883007796819 12.196633214957453
S 11.287184913229748 10.939155877706366 13.110358361421513
S 14.141379733488979 8.877590978961925 15.28881234418321
S 10.806318119143837 8.269939262349336 15.355491877678965
S 7.388686041288485 13.779136288882617 13.714253949689576
S 7.2168758836013 11.671554120693754 13.81097396714787
S 8.259310883159362 8.454122103898136 12.212671389130099
S 7.19783582625685 8.468255112610347 10.585374925653257
S 10.285347632337565 12.237204664236275 11.923416020999234
S 10.343299419335448 13.478332780055755 16.11900050814843
S 12.317623705753284 9.496053814344831 16.091031078044242
S 9.141487522022347 9.160997769342147 15.77909053841959
S 12.176828848251207 14.156606323954827 17.085017494793583
S 10.912690455439293 14.178647549414396 12.32495065734208
S 14.468467553874481 12.74023670380723 15.027564804234522
S 13.534786090361282 12.703374310760383 17.004005245075987
S 15.226278952796385 14.573037922809188 14.753117210506291
S 9.37295106948932 15.160875462149923 15.916282725460393
S 12.302167288469565 16.54335496687268 14.370116401284278
