44
Energy = -163.15037354 eV
S 4.459466578442773 8.100864437777332 2.516553319786371
S 5.263403025479573 3.6857514937093474 2.6866860752403894
S 6.1285847568800085 7.353713611522564 1.7117644600906883
S 1.4003445296615962 5.94636633945637 3.671236182306992
S 7.486154546382208 9.395296845295881 3.5475357549377966
S 10.511134223316185 5.960836375845631 3.3357378004031917
S 5.656940309968477 9.325230759345574 4.249824867955315
S 7.0757173369809285 4.2977313961722725 2.930217228839048
S 11.391776375711403 8.498710906871572 6.857959150619907
S 4.436723576224479 6.19048926018513 5.347549244379838
S 3.226331405568693 9.795925387859404 5.222569873593655
S 3.4932999729155116 3.1783347044884267 5.864637114426601
S 7.313280182797963 6.528941475813406 3.233239191047696
S 9.48865284613136 10.423327687090248 4.931943859628279
S 9.91405158016624 8.525234113252457 4.5470373510666215
S 6.46908476993003 11.47056603627447 5.676633561964375
S 10.703601915132811 5.183755849037175 5.080722435731457
S 2.447250920767451 6.685878113069574 5.144350101181229
S 6.516547318006161 2.757091589904164 5.97479331183708
S 8.096227563360122 4.111812337468329 5.359824985762894
S 7.33169808263747 8.032010083811624 7.3307558197768055
S 4.043190076016659 9.014806485427068 6.883570394148964
S 4.893381231211919 5.583526190593963 7.6924126441645475
S 9.017041997170235 6.849269873620756 7.381417243452283
S 11.5862554613318 6.354290442979391 8.872951337340448
S 9.713051738819939 3.7514832086503294 7.81509047542477
S 6.105014972855249 11.6442800950102 7.513963689584283
S 3.5438288027156224 3.8722665147750748 7.637392121136068
S 6.407215656855521 2.412742894389766 7.842205759934312
S 11.862898736157458 8.217743358979456 8.656962366161652
S 2.7481304657060237 7.275869242590647 10.359189611789267
S 8.198655794554238 5.0134566629694435 8.008093199861731
S 8.731428004222359 9.006010602316827 10.190597941593232
S 6.111659946402903 7.77430721398409 8.953981719285782
S 9.639412208036632 10.660119353170009 6.885208340608763
S 3.4386892726375526 9.701179323271926 8.627140651391278
S 10.293338426722968 4.653186308037582 10.859327680994202
S 5.277628900484084 4.689066168081055 9.60430100711064
S 9.616076671659876 10.610099937189364 10.256883270014036
S 8.403068203447232 4.460431446535239 10.661523500536571
S 6.583647380811431 8.98202789746253 10.565035270580035
S 7.660421615517182 6.145765296215748 11.995759794873553
S 9.131539987297831 7.395967532837051 12.244154662245432
S 4.259779758189076 6.559862271948255 11.346892752477512
