44
Energy = -170.08782356 eV
S 4.348158953396816 8.53376524230747 11.287746745026707
S 4.316994345822609 4.790988757662558 8.782558009923436
S 2.8075347612731822 9.073687990179403 10.032497081252092
S 3.980730132904859 9.236961049641847 5.947150684455645
S 3.7871005665663438 5.785205057040175 7.20042881431195
S 4.8274824613620995 10.263133307210758 12.187396622427025
S 6.882032910920375 4.954370121812792 12.15190491987363
S 6.50959122539265 4.942342820060593 8.822837250584017
S 7.6858595918061265 6.7933752723050596 12.149817105991227
S 4.18381430232175 10.373598865098247 8.976116389129652
S 6.982242789926229 8.5841435353696 8.89858755136209
S 7.221931714069075 3.8755709467686366 10.344084608458123
S 8.605738581940564 9.74858341488833 10.44064156543427
S 5.261095821774086 10.603479409957108 5.3071608882123575
S 6.792984372528779 7.259277230875524 4.9365745324890495
S 10.425805273432152 4.995717170682044 12.998166182422379
S 7.87270027747794 4.105400317695386 5.16479657081337
S 4.564034125808525 11.643119837722498 10.517563336026102
S 8.186003800839003 11.106297459605592 13.489023543604025
S 11.678966460984775 5.167818511289612 11.156663417461502
S 10.002591929235516 8.633705404023937 9.511715831490974
S 6.752353207514097 11.037813552998085 6.607052086365015
S 9.574411110432177 6.7174327940174 13.341421265961399
S 9.335622039015641 12.149630423249853 12.388790303557876
S 8.589962769487247 7.753262595383254 8.133869443669589
S 8.407177402497211 13.04520732552746 9.622225221805003
S 12.772454575459419 6.757603385773669 11.220775298123435
S 9.369778062799966 13.400079892128874 5.012582314195674
S 7.682247161013251 8.97944261562362 4.266068659033218
S 8.223857623279333 5.828756430181415 4.186342102835761
S 8.50281538754109 9.957001342418538 5.835962471953285
S 9.215170960474788 3.9774431478319676 6.794812871017011
S 12.006981913849122 9.830204022374721 12.43846880818421
S 10.854827150741112 10.713862017125981 11.189014172883882
S 12.172441858883458 7.177082219012783 7.352263480281032
S 13.235577321011444 9.927274323504456 8.752203643408789
S 9.40530942164141 12.388741882608606 8.079870402392586
S 12.703014367883705 9.272913924014821 7.018592123742663
S 10.19690010580373 13.958519464770001 6.706279334743804
S 11.194640322261801 7.165600160968024 4.164570664799867
S 10.921559514271774 12.095134949959988 4.010464145814203
S 12.156383114188074 6.116482717026147 5.4623854461919565
S 11.042351293391327 3.6976647170605212 6.089239920109651
S 12.500671455746401 12.10646294015688 5.10466244248776
