45
Energy = -173.94658827 eV
S 8.962397979028186 5.919179483711337 6.990741098685408
S 9.863033357398987 12.916447366460366 6.283185145813758
S 11.81090818988759 8.186504710020644 5.847020560347231
S 7.066737059641344 6.525528320607021 6.779989676558633
S 14.144662862182667 12.660261296658373 6.684384231580324
S 9.839388723105932 7.936111639140876 6.463957495947807
S 13.711454658664048 10.925041787817895 7.63409661278844
S 12.756516454311054 14.237265962468538 7.0887186341964785
S 12.140223457988476 10.139771625431916 6.28995578873612
S 8.980622876729607 13.339608209072837 7.945805946925851
S 6.688926514555261 6.302639552909199 10.162300022716943
S 8.612246034610958 6.374788666186578 10.77865431534023
S 6.2204289263471955 12.599386664268113 9.842614190665946
S 12.366889347666426 7.487855596797845 8.985788134629171
S 13.104136634770239 15.73196729298519 8.539674040481804
S 6.4779858398353865 7.552308064238592 8.584336420685343
S 12.283280136881858 10.720600202809653 10.50265882532408
S 10.44517093903228 10.968594549308204 9.570692004156893
S 14.41962154154829 7.531198142091834 9.195821391815375
S 14.690829616728777 12.243312880544943 10.24285545277028
S 10.051909738157683 15.639745467429547 9.320184520497385
S 12.013621694723774 15.401063557423509 10.226051323951653
S 7.710804646700209 11.428581908260876 9.016377563867984
S 8.620414675965552 15.87671195081215 10.634137840901774
S 12.22561752009809 13.551322686540663 13.506936635849925
S 11.778135546235092 7.043284615733633 11.007274487617964
S 15.483436175042266 12.757646280692505 11.996713084959275
S 6.850748710159291 13.593460627684752 11.460956702222793
S 14.612578820370775 8.176841124953537 11.149123216273663
S 15.707473139051618 11.132814215016799 13.217144945277447
S 13.578078100820402 6.509171546297532 11.803666469064844
S 10.933143754157912 14.912939246560775 14.110950136839378
S 9.445470645934734 11.143804782691115 11.368523529351638
S 6.754865883037721 8.521582483295076 12.518618689650841
S 8.828410802683756 7.963536953878841 12.537280167369518
S 7.035418901515172 11.854488808984756 13.359752629753254
S 11.268324941512967 10.659662526192216 12.405679509092796
S 11.793828971478726 8.058656949664194 14.576523941420525
S 6.230337263686023 10.09142093937967 13.70058082706067
S 13.861353359677574 11.08838419509894 14.459789276647381
S 9.223198070685966 13.797095062940597 15.027017243411294
S 13.585153632618052 12.944457305895533 15.118761990561929
S 10.186980656580984 10.563562709667927 15.1068069887866
S 10.15221135491851 12.319872935053414 16.075808732236613
S 10.056965363326421 7.245462626375783 14.45603307722016
