45
Energy = -143.48919077 eV
S 14.187709915891494 14.285503809291766 6.4706519634674295
S 12.779527141388707 9.974891283029468 7.200854819099389
S 8.403516062313662 12.72491910771049 7.641051449803341
S 16.3091005793545 12.310860358801778 7.5135785379887565
S 13.325541586096032 11.769340314917086 7.885615131444564
S 7.160303647132506 7.869256978535703 7.821447568000253
S 7.394528162443729 10.716877510869327 7.892178752679467
S 10.9963181581403 11.290762093107814 8.298811256855306
S 16.24598416948281 15.006909712241773 8.786277692019592
S 12.569888660794955 9.026839077780027 9.416066302514581
S 13.432011379067813 14.894861119859325 9.05399031473229
S 9.513182743191717 10.731356226557528 9.619383219192432
S 9.023845491939356 8.299076921539106 9.368973358732717
S 10.927258561355735 7.713765200994225 9.56729110258741
S 4.846741526352935 9.502749614316354 8.859549658573071
S 7.64121258221473 12.975275273160268 10.04300730844446
S 15.572439521119708 12.842767536808527 10.177336228529281
S 11.041753246718503 13.07338788456744 9.785964805139939
S 5.687480068716497 7.4050505421562525 10.08530740645135
S 14.150364866016782 8.841591896030362 10.531071496884168
S 6.5363839075357575 9.934041770590364 11.27811989794696
S 11.683125172678011 15.558448964238298 9.896088963246461
S 12.515708535659687 11.505461100642291 10.940877537361994
S 10.71870637626591 15.940933526355815 11.924043659519482
S 8.041260262418552 7.172890350190758 11.802664683159504
S 6.496714108171305 11.820425739224342 12.207433043390001
S 8.886077289518541 14.08321296179518 11.13229640126624
S 16.080617757228698 10.239867234195748 11.977887128178109
S 9.366496316363692 10.667347707123911 11.500998502766985
S 12.824178725258642 7.561275232181828 12.121999250879982
S 14.677689828409537 11.764082283103683 12.13937007010875
S 11.279583406544134 10.434613849912923 12.073541288216678
S 10.665440325068046 7.975944635962284 11.542126446107792
S 12.203594933164325 13.78976397210133 12.63089439728172
S 10.002345479180452 12.90953967722865 12.733665532808303
S 8.398048323429729 8.710103728550278 13.164307087851396
S 14.37692853964696 9.874389982130037 13.97431026084776
S 7.506374629515691 11.192753325266725 14.15915679900973
S 14.13876678440281 13.881218801681941 13.23656109256133
S 13.677052981656415 7.927790239260791 15.074993251475922
S 12.944005888665256 11.828057973968283 14.02726621473646
S 9.651010507710192 7.056888019213005 14.192719735283289
S 11.23268171146828 8.657695269931 14.773496944844588
S 10.825809551510588 10.998131006317724 15.281497358746595
S 9.16344376472835 12.359833362489894 15.29602925519552
