45
Energy = -138.89899526 eV
S 11.596317905821891 10.249592713015517 6.017398566383847
S 9.371644598487869 12.617112168307477 5.707902644952418
S 14.510198252795538 9.666763389352003 6.260877994899064
S 11.05876933264135 12.077547071211493 6.639399200125456
S 13.288536211069145 13.421616367602262 7.098079538074659
S 10.799008030494797 8.143040171777134 6.6101523556802775
S 8.509244882550421 10.643594248576553 7.260882287179005
S 7.299080819314594 7.998522020608492 8.27913734531171
S 9.370373453747534 9.068383834186237 7.947017587793166
S 13.8864169190414 11.39891342662527 7.799027019592121
S 12.829719820195004 8.534208113784487 7.89421461308106
S 8.483068836913967 13.746327782081813 7.915820175817696
S 6.447794578316502 12.153022514789917 8.01849649148854
S 9.995889791996037 11.576018609368118 8.802166595465993
S 11.753360941309834 13.547493701640366 8.970953298124293
S 7.331726660157461 9.49832041265376 9.81097673541115
S 9.73799073099417 14.70362026378416 9.452110971349343
S 8.094339878702936 6.873297528572914 9.847852179502162
S 10.379109653903575 8.508391274334782 9.50164310483668
S 12.136005236629636 10.269890544083346 9.39732522270769
S 13.797155894292155 7.820608106829744 9.513962942935104
S 14.845357012952753 11.569292232174131 9.893042068461797
S 14.569251629913467 9.6236965914671 11.307878802085025
S 9.146161802922155 10.690839347198333 10.63209379607039
S 12.67779723586232 12.471510215161366 10.6088434822228
S 6.623384565649671 11.696078927116538 9.854665687194693
S 7.656390476243054 6.531405391840033 12.602992755797763
S 10.412306389525884 5.851728084158187 9.61746032936074
S 9.735308989252996 7.386045133228694 12.0841411081088
S 9.739333541809582 13.332738682889094 11.152712038105802
S 10.944663952225982 10.31551608646884 11.110459877371724
S 12.400685038281507 7.496032447213438 10.994328058713382
S 6.507590719482975 8.486749936813537 11.610924091320252
S 5.78717664237631 12.282992006801225 12.07497345383158
S 12.872586266319688 9.161772617062203 12.531999331469638
S 11.536864899826877 12.507158414610103 12.464436265919907
S 8.189793550451407 12.35045116911944 12.38844756690385
S 11.29503109457895 5.51279089603172 11.965109324737334
S 6.228137883184689 10.530260984248898 12.986383522905962
S 10.197120881156717 9.153056040366994 13.053881041268074
S 11.192610807583419 11.419401455066353 14.289974756315473
S 8.241673647257711 8.460780727693042 13.745015123963803
S 9.062333895509271 11.251452689592353 14.01082157000299
S 12.031516805086968 9.150690694147972 14.727500661799485
S 7.2629789108092515 10.083084033982994 15.378327482995894
