45
Energy = -103.37891443 eV
S 9.972897299339694 15.546710674483684 10.431336715879485
S 9.762085323329227 7.012744939440701 11.108081996825273
S 14.120986949372524 11.67159802932013 12.582903533104501
S 9.299636642004485 13.376981119219394 7.548679519121166
S 10.637493479360291 11.48177390214857 13.533010726476894
S 11.261673270910824 13.323094653117076 8.264733141452023
S 6.9180460367347765 11.029513003796131 10.185375657409198
S 8.90253622700832 13.982880011373384 9.484595952006334
S 7.8126516940149315 13.456364559874793 12.727212231743108
S 10.764650614342173 8.093870643960804 14.081690016363778
S 7.7503652010539055 9.912531637559937 12.690050628588946
S 8.993662417389245 8.269156470510778 12.968202285016465
S 7.617189443224343 12.882747086722858 10.671562286761295
S 16.048054785623204 11.987326457048352 11.660898683402213
S 9.23112493855199 11.41404404746382 8.356907444742292
S 14.358987135012168 9.187956031546577 12.160204604672929
S 9.905826455524945 7.881118645616001 9.2312751884591
S 8.792823219903267 11.633777358071487 12.720368094933622
S 15.827362801288116 9.95787007349176 10.95545221936138
S 13.703645674043297 14.657924436667157 10.674327828599663
S 7.36491594157777 10.463452718824662 8.20373899939494
S 11.480659083222264 7.38452711244519 12.217025720568756
S 9.612034343432839 14.218412496773045 11.976425166598444
S 7.941152396196604 6.619711736841628 12.10775373012882
S 13.099400145520848 7.889197629612039 11.149864001695448
S 8.13564268605372 8.914289077444279 9.292760681642703
S 7.195192644351804 8.295016680510843 11.054552197596873
S 11.762656844300462 9.81983818744096 13.480283781508943
S 11.73110783917077 14.431920320027801 9.926833740316567
S 12.523780360544981 11.972966269453165 7.350100560456237
S 11.105868631445412 10.675754485562877 8.120402110418386
S 14.311569618810987 9.647908532459848 9.637960920406094
S 11.212345491497057 13.4169173749662 12.991148353295392
S 14.592364906531683 12.772301064484346 10.358025337542712
S 13.652382617180054 11.501829243566794 9.008628555494639
S 11.642222369969385 9.007900336029994 9.153754332383706
S 13.386468142687827 7.867223761878655 9.045318978434613
S 13.782051119298051 10.128938208820818 13.926321241325716
S 5.904793169449676 9.829521543772891 11.654373231007805
S 13.123960264443431 13.465678909672429 12.281655662822907
S 11.123677479816129 12.611007458922954 10.889584809275949
S 9.407655768411452 11.521741647983303 10.504610048251442
S 12.704146030336407 11.290364089761436 10.924447133507124
S 9.512088320440348 9.446077016487742 10.989076002508398
S 11.579922478289738 9.617278230871703 11.28824347958427
