45
Energy = -151.35603409 eV
S 11.203481457076968 7.784887648552518 5.281613796006841
S 9.274253059448293 9.682852181706593 5.307359702770459
S 7.524814433547615 8.247538387238354 5.856412200045036
S 9.212427199166363 12.449429188256802 5.916225413768099
S 5.566827257974187 9.942897472532671 5.9563162085656165
S 8.058380863948928 5.932069569473183 7.2506088797108585
S 10.43031939655091 6.814493991762899 7.131340702310799
S 12.196630168307445 10.006596353159651 6.881395686294039
S 6.786847035834911 11.803783960924934 7.0155471964805045
S 13.456551667357633 11.563066504557865 6.996335929248976
S 10.065291121035347 13.509398232154346 7.6691948973561885
S 9.794321811877593 10.45507433633902 8.084037349160715
S 9.316807086225301 8.4946372899038 8.44639345338021
S 12.418924968185184 14.149366806050221 7.942605069663219
S 12.537230019698315 5.720113238277632 7.963646359936423
S 5.7437811122284606 9.340670029718325 8.670705956877747
S 12.231589672544386 8.761539894082818 8.62384292996553
S 7.419200424568194 6.298389530468565 9.552975470770718
S 6.710136935712836 13.169069477741342 8.696283381059935
S 8.83327784380279 14.709829109289789 9.360028820575296
S 11.536364720371276 11.587575775767293 9.753954944747294
S 14.38111739995826 11.214746082852253 9.260398020314621
S 14.330012186987409 9.289900671409725 10.227199567981977
S 5.156762065050742 7.837112951274818 9.798770152935328
S 7.920996638591195 11.141887246481078 9.913036381365837
S 12.983152182806194 13.614384562220595 10.656445558779067
S 12.55740444765855 5.936244747560352 9.923590649786371
S 6.354535369412497 12.19987516693408 11.586710431941146
S 8.243148078840225 8.539998982443983 11.261053738427048
S 11.094236147074 8.846212317785618 10.808524062948756
S 9.432669672970833 13.938770761760287 11.346836747621875
S 14.026356695113918 7.284451230898669 11.906426037996987
S 8.294386533675679 5.326696899103607 11.301355588104121
S 5.958059521745433 9.147281414049335 11.73037714104743
S 9.957850903043987 11.181700370833715 11.097993053033614
S 10.063894187195373 5.736634630595001 11.816355079921507
S 6.096354436855288 10.949302996475824 13.170932519041331
S 11.858038555245326 13.415061508788705 12.322374717524799
S 7.881721111596869 7.55623035351497 13.210812588745906
S 9.809193961310157 12.837542161553689 13.837511467347193
S 8.843955798848846 10.754228076593439 13.49228385219997
S 11.07786188676825 8.073713334486921 13.845978566498095
S 13.344164471254137 8.378623331366306 14.140356944964257
S 12.804217061161875 9.47107188554391 12.339757508897385
S 9.26610762614323 8.958704532285887 14.701750468651298
