45
Energy = -179.29922599 eV
S 11.169425923580784 12.812600156441444 5.294922944046262
S 7.977474308458383 10.7111739310148 6.0414220611748535
S 12.850757285652993 12.234947413247868 6.042671497105671
S 8.99696073483153 9.1587393501375 5.087230063081159
S 8.369665025479293 14.119662901181801 8.201632892238468
S 10.707866340360951 8.723894274244469 6.174061018309051
S 10.194349956387377 11.093090237130907 10.082508339260572
S 6.039549084874428 10.301478840733246 6.526983718221926
S 10.903866564337688 6.682712234182071 6.486256928556605
S 6.404281191875373 14.235867060985505 8.74346850006849
S 13.73685346300112 13.764107108363213 7.179927466817945
S 9.6908839150218 14.687049310016295 9.701961264138975
S 9.04835857651068 5.024977482537128 8.729360373884328
S 10.851822918246258 6.042435883995358 8.443300011507782
S 5.829216736683195 9.701274015829892 8.528289369244503
S 15.238170811409356 8.384657294534126 10.885111568075422
S 15.396686503283535 13.145753762924073 7.931833621746492
S 12.044729396267252 11.500452679715893 10.49682450542183
S 15.07126230388904 10.138150470927807 10.031336732982794
S 10.082852750701516 16.71512251569379 9.636557482037189
S 13.233309022626923 10.37177071120009 9.067947558502729
S 5.983093335460861 12.771196847344543 10.205419569428496
S 14.487527681038687 13.773925000434453 12.13587859766001
S 8.002732258004654 5.917450367213015 10.256433473380842
S 9.875901874300286 14.106410536921777 13.455384592668265
S 6.900209996180414 11.012991905204784 9.702012880308091
S 11.374515662201835 4.463328172899689 13.10772390946406
S 15.271373933431038 7.489523085775421 13.99063125844851
S 8.916702006429155 17.655716555541385 11.05798941324901
S 9.987709953259737 9.061013136984746 11.52311882497607
S 13.411896443501703 15.338961907195436 11.905171758535236
S 14.174998920585878 13.015036178355132 14.247721679861503
S 8.22097438591245 4.68386377482901 11.925273570067558
S 11.704628929343306 9.092460103166411 12.321115293869722
S 8.892652488246865 15.890047543874465 13.866778676584156
S 9.844143371231715 17.44120224820539 12.895134880159587
S 12.747287331549623 5.836189787860554 12.617494689817677
S 8.617998046732058 9.787974804233315 13.527779601816913
S 13.774373406759116 6.401859606638949 14.526349568789746
S 9.495415157654545 5.44072268883501 13.331651100548806
S 10.982338594732148 13.593210047176955 15.10091563475692
S 12.94589534076071 14.368181995025704 15.038785969164174
S 10.475734731827439 8.001540839629078 15.735503769995333
S 12.415600471290505 7.842543841410194 15.982342893040943
S 10.14130065125078 9.948079175372708 14.71312826215058
