45
Energy = -164.1976601 eV
S 9.776630484543983 13.969762920892675 5.2250695969424905
S 8.487151228630783 14.658403614213228 6.689235972038085
S 8.763680344422335 9.854531746151745 6.350611651081564
S 8.560559829917041 11.84889658655291 6.70193423777649
S 9.99529331415746 15.678105422137477 7.6819624288431685
S 11.827089437958314 14.103951635971736 7.661277602669193
S 11.029278480462121 9.329970233526653 7.134790596196613
S 12.92345105403357 8.422943599159012 6.995510760054242
S 12.950673091736792 12.050240899385058 7.5794867833393536
S 8.907790886333776 14.411658619871147 9.622496047315957
S 14.765077630656123 11.284116907654886 8.15152190851558
S 7.890740576102655 9.899648284603213 8.219675096281872
S 14.411889862528621 9.33140846448548 8.419981973495608
S 11.730849244226695 6.078406812165481 8.973136148406677
S 7.470029909519389 8.059249382597518 9.269337390344187
S 11.101561187779687 9.089972335200608 10.389904352942846
S 10.309126853562924 7.109271096859088 9.634972415903425
S 11.268674101036979 12.40277209849182 9.125300387525158
S 15.208665882278504 7.702512182512161 10.69424155090957
S 7.875848154626173 15.492953875217268 10.804021856646624
S 13.475216703196526 6.870710633092875 11.218493552801956
S 14.65943391344903 12.679636175241212 10.938584621443326
S 6.474653096041864 11.21448736651333 10.358552034424092
S 10.836129600623954 13.952094328697665 11.205837414473253
S 9.717299562567097 10.516034486184175 10.563555190959805
S 7.555269766719341 8.072604767672164 11.282117940809965
S 11.726615516888732 12.580505993549789 12.42568354386373
S 7.381130966990381 12.364401385794075 11.700435712373102
S 12.718074910408397 11.135534226436507 11.661137327873186
S 9.266564474667994 7.188723151724957 12.472537590509482
S 14.983623192654663 9.771284948088807 12.613205284506302
S 14.507860648991285 13.487025312579203 12.751868162958182
S 7.941677911739543 8.003031148916829 13.811289632372965
S 7.390553862256641 11.488235491711015 13.573280346199892
S 13.239209212569008 15.146175935601862 13.29875729723013
S 11.794082628186459 8.972917983969186 13.340124864182597
S 12.555364021698097 7.180328736996276 13.101726572510884
S 15.053755481911837 10.636794641846702 14.36507558079973
S 9.114111919229583 10.239661178433272 13.574711779917289
S 9.747716734368751 11.969778522877283 15.30252175909579
S 12.449974033165635 14.395622076392119 14.963953528584
S 13.071193290147786 10.266369886745997 15.267543746292107
S 10.91296534564713 10.703932355998365 16.364423834656968
S 10.442514818543414 13.476969443971901 16.493872705212155
S 12.567729045036483 11.745145315531293 16.86302343093452
