45
Energy = -154.95493887 eV
S 10.089992592408624 12.679005146563044 5.163872078958002
S 12.365220306003641 10.933189460528109 6.478777830142723
S 8.611800134663442 11.544533075360132 6.371532448066512
S 7.903777924511841 8.9700685712702 6.7149846950945395
S 10.91532564631462 13.91914068936297 7.640911231303636
S 9.992544628949105 9.363086504514932 6.603555408187503
S 13.531338078520479 10.613333499342804 8.07387744756157
S 14.580047456842282 13.327243973870571 8.64581324616889
S 12.359579000248393 7.407713647571931 9.293943393356034
S 12.54037280397468 14.440268762460533 8.586088314257278
S 14.259524493058858 8.978729949144308 8.032880460760154
S 8.453824531784667 12.409834681734884 8.181670369511307
S 7.451544036374819 9.703084000515506 9.163374182865988
S 11.470662168033684 11.845968656708452 9.770663232325896
S 10.676875640168326 10.059507137055828 9.913631797342255
S 11.165853112842331 16.08640453053261 10.552073904692591
S 9.91870162247018 14.137130766077387 10.9752536547531
S 14.742962801508607 12.584496034122004 10.319372494764712
S 7.904864380618053 14.121371024999736 10.258950992343518
S 11.320360611081382 6.829365968870485 10.92820142934459
S 13.836867009923548 9.528908488946099 10.751143651329372
S 7.255713685705559 9.078543441588987 10.867990677974037
S 10.069517042998948 10.927666303257567 11.767298728136366
S 13.281444133175542 11.209517092070975 12.079348166940926
S 9.292058836647564 7.061397120060021 11.417699270851285
S 15.817886265260489 14.027887236299613 12.366956053360466
S 7.4181412021962965 12.637211757315523 11.590644901268172
S 12.524785317550071 15.37685585899183 11.792935731966214
S 11.34131592477579 8.925960009074023 12.449443302019061
S 14.2334574283836 7.845567552632402 11.990758913511467
S 11.366410021138769 12.86273944378939 12.550925728034288
S 7.856678039836488 9.521874736985 13.813024878024516
S 13.666935463892212 9.477841106485007 13.419083266937003
S 11.263413696980445 15.060123418962217 13.38871658926723
S 14.279684957184571 13.495659142275686 14.008759353826783
S 9.867866295476977 7.895329014418421 14.913898846944932
S 7.651223105949764 11.28591510900616 14.183154186327869
S 9.85627541511461 11.669081675808187 14.499713184745437
S 11.0819409860482 9.36395680959472 15.566115784158216
S 10.887445722772512 13.000426744099219 15.568960633044112
S 13.350904524199036 8.812300582689895 15.828361806499442
S 13.995193768069026 10.659899020477956 15.318615636300839
S 12.845832002155973 15.260754327065817 15.266231958633348
S 14.827877479782662 13.207660082909689 16.44312630429493
S 12.902304382964113 12.879792523151057 17.514008512364214
