46
Energy = -141.2198088 eV
S 12.840746931616318 6.9640672971983415 11.352918561981795
S 9.94529779137938 5.639411837340247 12.778592923718005
S 11.246256940972112 4.153780695732466 10.024604686762606
S 12.644043165047359 6.115881162334225 8.196393741919572
S 10.618801344028004 8.598715212568486 12.603749195056041
S 8.454791211394586 4.715332305884148 10.439276282869647
S 12.22380626271948 8.279547605590047 9.922981948303867
S 7.9836511366200416 6.9681729775407995 12.13080605138264
S 10.560287635065496 6.809645417420044 10.104106717475252
S 9.879338854014298 4.683642097533021 7.7908402033592115
S 10.60007579651191 7.1094335423313355 7.219872784254352
S 10.79464284300395 8.767879906554052 8.340519444115948
S 12.999618443537809 8.476494268031972 7.040707990291385
S 11.04069554366542 9.90801339220157 11.092756847795815
S 6.765246358146804 5.847169518163738 10.780703273384782
S 7.164244208150794 4.4837497783994635 8.078785992726454
S 8.583778862527149 9.511774120654756 12.88059489887044
S 8.813938035093194 5.927387972507971 5.881948256748919
S 6.263198531670273 8.310832742825795 11.945808238427373
S 10.70537744249451 8.18625676416572 5.192540790137033
S 8.366377581493532 6.182082022509211 8.08810298693803
S 12.967781285538047 10.515953761834014 9.201930476090299
S 8.94453468964235 11.450502157913629 11.28312925997039
S 8.923479319957396 9.59659353393853 10.397552295524447
S 6.159037541084518 8.573084831722024 8.932233370847655
S 4.3349548475675865 7.286291348085688 10.633254260853281
S 11.547053866284886 11.96578174570286 10.827799819471291
S 8.357648354431497 8.644628575300075 6.455147889104584
S 6.686162860511869 10.77740792053478 10.983876742902476
S 7.574134382570401 10.044328272014326 8.324951700160094
S 6.5778871612955685 7.059366547760265 6.000892619972231
S 5.279754836896973 5.728358363409552 8.048850764330483
S 4.634038775782082 10.170849971280965 10.379052793370548
S 12.663677238539977 12.123248837495158 7.607562211278457
S 11.96419187882785 10.649470925575281 6.045630960718278
S 9.53716694095516 12.186359126913644 8.577318642858698
S 5.233707326368084 11.293320225729119 8.1617583357014
S 4.074130932454609 8.552319288614953 7.406404471542343
S 8.808069344830622 13.614523173731362 10.918727659292104
S 6.410556677356413 9.3688536361202 5.707974847318236
S 10.76820674650671 14.302485949451848 8.615859870828578
S 8.879408788136384 10.513051143962556 5.420176283599377
S 6.597324131327039 12.383508767317558 9.532462807453411
S 9.918008778009424 12.468822118253412 5.7568503345779
S 7.148340692690665 11.757097986266423 6.2516175430709024
S 7.9804225203772265 13.903083729094798 7.5037944484327515
