46
Energy = -139.30165492 eV
S 7.804963022283897 9.229963413383075 3.8244246096657726
S 8.143821972366037 6.977184082263262 5.418027784376562
S 10.307177969400918 8.642804141782904 4.983854559209035
S 9.496914913361657 11.570614087283092 4.773741198783611
S 5.791080782819497 8.333786475665686 5.396182837214112
S 6.2899946190860385 10.92575144621115 5.361508952356904
S 10.53949918344933 6.454688706974324 5.353001528965423
S 12.440546428992167 8.105553445515525 5.975190854840575
S 6.187159806765819 6.143343682779838 6.1802071180292115
S 7.79207371504839 13.09972256020699 6.532378212310441
S 11.438158723734382 10.686621107275762 5.981342976446693
S 8.613786521078625 5.24389833517353 6.468041909892734
S 8.251743768653265 9.840850771062778 6.992631223439179
S 4.429437502507383 10.203835074074592 6.564724324491819
S 6.916190893052937 8.216046470546257 8.04128841427451
S 9.822146651912965 12.316287571234408 7.4319473078851
S 9.636839948801503 7.65619766266073 7.710544508454701
S 11.288228043628614 4.741754756419869 7.72471462320511
S 5.7341424092630815 11.859506050761627 8.290453248555378
S 12.348484278039143 7.0227044854575995 8.367133396387617
S 4.138689564145869 7.7268371930651725 7.626519501633657
S 13.118836529449615 9.254967903850998 8.342048096678448
S 6.720813465236098 3.8836619811050075 7.886141993854746
S 12.297392272374433 12.223074284415475 8.197291787271197
S 9.4776013506126 3.8884082234019375 9.032036674139459
S 4.559092621216881 5.609657392764163 8.675383170934511
S 10.064383168662058 9.872526744550584 8.742523443509176
S 7.901863241872771 12.965979604476315 9.508238407081155
S 7.603346333163945 10.529782509424402 9.190604625714315
S 7.767761676961516 6.509264633704599 9.174688330045658
S 4.747043542964418 10.120650093291129 9.70608961064987
S 12.645506388079859 10.338437638732687 10.921311349948352
S 11.703786553945706 7.999757581892993 10.501291609270767
S 5.0886714914900315 7.9178859159743125 10.527059282998065
S 7.295933083383224 3.170727054717921 10.594238340969802
S 8.575560380866861 8.393222095931664 9.970630686004506
S 10.603732219138019 6.307940297593857 10.010309947399305
S 5.838393205494525 5.287492590161529 11.31776322391015
S 9.990245742784792 12.436532413028345 10.437168681515546
S 7.947362814691524 11.742967807836648 11.385533018642887
S 5.981024335366275 9.893699005851072 11.365866881256641
S 10.48167632959843 9.963658875039194 11.945353872906328
S 7.127582494114577 7.229797482488842 12.225340309001433
S 8.962886888288843 5.435972107796335 11.942938985970372
S 10.149141360914221 7.129903439230849 12.470997648959514
S 8.306214086333613 9.263013098336796 13.29822322634527
