47
Energy = -171.84710789 eV
S 13.651691499350573 11.357369999607815 7.345445172085253
S 13.740973291263286 13.292914873561651 16.968657890182406
S 15.125029927717252 10.081849246076706 10.144318371802237
S 11.024669650734895 20.228103496922984 15.738550586513643
S 13.30853561322027 15.811222610041561 15.746921163980064
S 16.08245321472387 11.774165433795638 15.517750908510347
S 10.592457143384719 11.822796344868026 12.677957422044535
S 15.576146941993303 8.71444576438899 11.609926649373831
S 15.835240465438153 13.426472986191445 9.263691535810572
S 12.28938794167543 11.114365565137238 9.882551516996394
S 11.73069367758298 8.739233375358937 15.56592382902948
S 16.36932785756196 9.736348419209378 13.117586929007889
S 13.086750610334388 13.779332689339661 7.496638546689609
S 8.371766610803316 14.951645166473126 13.139959941870744
S 11.29815452100372 11.554887773247065 17.14166586689249
S 11.19738610602259 13.515769195106122 7.617131386306226
S 12.523715904764254 12.196201087258926 13.81529029541952
S 11.714005178886396 13.625373026829267 17.0286185858796
S 17.114225942658425 12.654242703329249 14.207331546358247
S 13.310802412374434 11.121618378621859 17.328127446716337
S 10.215939334244291 9.821377197046928 10.150362126869636
S 14.709378139355376 14.788088059913662 14.659249692025334
S 11.339668605461528 15.702376218158387 9.340220728851694
S 12.049612498277801 16.97015859854773 12.718738725277216
S 7.885877133986672 11.979971993855411 14.206175595084174
S 10.18951148105097 9.805689080861947 14.708653263444361
S 7.884388527857249 12.268365925860993 10.555631090972515
S 8.973386310710133 11.323596835282695 9.243625404556767
S 12.222463214492606 10.534125031207557 12.2466376064891
S 17.055333093330372 12.568473918197261 10.50343497151412
S 14.551866434331464 14.820413326822878 10.228971416812024
S 12.535069126191228 7.757749004375752 10.528642726445641
S 9.766194581719471 8.3641048793007 13.11773293615199
S 9.096173786506222 15.963508316965493 11.59527488416124
S 16.112876500789216 15.398705266971316 11.665335660448616
S 11.801751198753827 10.898339152868939 7.662167449042584
S 13.457467612705946 8.856455169861352 9.269107224757027
S 9.917129577952826 14.499189736586056 10.151884444345546
S 12.816474678773115 13.879933655863349 12.095732393877736
S 14.996317264151944 10.055704922918878 14.735134249540096
S 8.75220605376401 9.298901085796832 11.71558548163317
S 15.23687529945836 16.35371590516823 13.197542920383606
S 12.877280599006605 7.866127096433024 14.27035471131831
S 9.81610183014034 14.690098512153476 14.75862844561055
S 12.274292683486614 17.109446255573612 10.80192317413057
S 8.827929752579287 12.9571183146325 15.623503515548691
S 14.30693156391017 12.481582016171282 12.577795221898947
