47
Energy = -163.95397095 eV
S 8.907545344319887 6.972579823949031 2.8379628156989427
S 5.426247472717569 6.52576481888171 3.5359043270214157
S 6.915180925732748 9.773352904250622 3.718545988581639
S 9.46468781277729 8.833865107320657 3.086913040515548
S 9.98698142971313 5.851971560108562 4.293221049976775
S 8.031948542729339 4.095238122018133 4.337938702741293
S 7.6358699704464135 9.54852795630148 5.683887267496321
S 4.617393250516163 7.973984001296489 5.104551193655204
S 5.322653145483338 4.557522547196468 5.54576819041963
S 10.10869707415718 9.932439860193057 5.088522881884169
S 7.404507701776479 6.94460534876397 5.260122065038502
S 11.555871067666043 7.308288849433615 4.795605062209545
S 2.9865895125933024 8.73918145650459 5.968776855188986
S 9.877153920581033 7.470784304525766 6.420738080738428
S 7.377765462002501 11.925331284553181 5.633147112369045
S 11.893019964597883 9.683076559138497 8.111980920257741
S 8.24883934188618 3.4737162607849066 6.339332526544239
S 11.195223348074991 4.712344096233023 6.780537022874692
S 4.105227440215421 5.75656641129652 7.688545614023485
S 5.4650761336275115 11.023561202463943 5.098066682355827
S 6.23085479904227 3.400529328143679 7.008329666227405
S 6.8755050012059655 6.5912868512564415 7.064123883861097
S 9.916521326885006 11.84832321897034 6.194354087615166
S 9.094282138573943 8.738291572747244 7.805825322590196
S 9.312797347005857 12.226381797552472 8.226652920360564
S 12.113608799611043 7.590735316806901 7.407682628838221
S 4.3419008396118715 11.029126117177665 8.494612497249177
S 10.120498756166047 3.9440621441677894 8.343535273627142
S 7.274896989314291 11.879817664049797 8.11121798658328
S 7.710058548922288 4.435298979356405 9.69564519178231
S 5.9231227124124315 8.415174879395902 7.902980515850581
S 4.687847951922382 5.19579510592333 9.416112518357691
S 8.638015432251475 6.927805367334633 8.706814211467309
S 3.274826130048443 8.24999008018765 9.32901899153079
S 11.18372565791422 6.464085661250947 9.795012644590143
S 11.011736980721384 9.663657886600664 9.83402353041392
S 8.202116607301006 10.338109389843444 10.764636916218322
S 6.830920942265262 7.589358492059768 9.713957567915577
S 9.807059636463395 4.692313220255148 10.455165516669108
S 5.624676768315965 10.882677319560143 10.331555332116798
S 4.285233991081436 7.245180654628093 10.591973172208816
S 7.038857715190454 5.325555263499 11.554632757211213
S 9.885794154434812 7.472432522602119 11.215967888942227
S 7.912622912497519 9.340593167278646 12.39103876932299
S 8.717167388687084 6.729989074701189 12.94775307379844
S 4.934556767278563 9.791571260570713 12.128051168604596
S 6.613764031219059 6.978604376823926 13.32870775441356
