47
Energy = -179.77374836 eV
S 6.217934977658875 12.664585975678381 5.978929516585466
S 9.78607351664844 13.221142197081384 6.187689568540731
S 12.343250063818601 10.895085980790643 5.647693470717822
S 7.9236016842187675 8.169617484333981 7.17280014669761
S 5.068892276165613 13.25714694251988 7.527966859962373
S 5.3527381186668075 9.692628660699995 7.488850623610105
S 8.032129571416858 11.990831806424065 6.524676761329909
S 7.124277943930622 9.53526903526368 8.370767909275314
S 11.568879195643756 8.95168784964833 8.464315124815492
S 14.400713323207915 11.597881267355007 8.58881447760094
S 15.41100784678686 9.87013149872993 8.617579153208018
S 4.615301689685426 11.26805166446905 8.955486659312127
S 10.660171127299323 14.539896536295707 9.222160492559018
S 11.25874005273653 11.949662711372993 6.937316824851299
S 7.297025233778708 14.81838127510619 9.305585678422625
S 13.13545920239224 7.256757922556985 8.154151739135195
S 15.720688669200753 12.961256065882163 9.698603656775507
S 8.045275787482407 6.0539727397732985 9.161508592772293
S 5.955034479517788 11.471173665094327 10.359364878574464
S 12.264090670083888 15.629863394937892 9.056983654671715
S 13.118313166083732 5.8047855196065115 9.506620360756282
S 15.462822122500166 9.18052682924873 11.002951588941059
S 8.922366973017857 15.761398788166478 9.682550631267514
S 11.598680153139378 12.551157086443839 11.26508570105167
S 10.514738456464295 8.703358945290738 10.013745900836213
S 9.573254710891103 5.073385464466473 9.8626145900445
S 13.786676878788132 6.456325279114836 11.686711112840777
S 6.950679454895559 7.018728593703547 10.772341278611067
S 15.311842131055789 12.454727581930733 11.615797838568641
S 16.470442569471366 10.547368763389931 12.014489928709738
S 12.741210591652278 10.80555610284758 11.651940091239835
S 10.95333095518052 14.009724722827933 12.616253832415714
S 11.665387315238378 9.095205269454606 11.896808745999566
S 7.874418788641776 7.995256327405686 12.308020059407488
S 7.127340001087154 11.958762929803783 13.186460944324224
S 9.101966778943067 14.7615631853195 12.548427376941747
S 9.001131945297344 11.210276868436729 12.478558190648915
S 10.329297238183736 5.965504148645712 12.532383771951055
S 14.418471289327108 13.461600605763465 14.078635237903509
S 12.851911651884992 5.702925320288559 13.192325791514847
S 8.734288165870371 6.578674530484689 13.552490788716062
S 14.306073892798375 10.589807672274494 15.280658545494882
S 13.131407159773719 12.29968001150941 15.029201081718433
S 13.192106370541511 9.054096543361807 14.811922502951191
S 7.746948821983844 13.84250137563143 13.886209878047074
S 10.005954773574535 9.58344397842729 15.320508549211906
S 10.361373581565879 11.17235425033358 14.2187612586602
