47
Energy = -179.47651748 eV
S 4.0078453518668145 7.893845197089143 4.866690817267906
S 11.227831775789536 8.086379127560194 6.299382397614913
S 9.11408740175273 2.9912026032990036 6.762980289546824
S 8.39238252350743 8.275501585418967 2.19870945373014
S 3.649506019551767 6.93568654417294 3.191870276878297
S 7.51739496430949 4.4646153531468 2.1823995831833445
S 7.954042592208341 9.99473486702629 4.971515135994672
S 9.60050599411097 5.940843480442083 4.151620360149922
S 10.583343017713986 6.725815721960555 11.078772981000919
S 6.29762557933522 1.9981802814497915 8.1328924861565
S 9.007368682500571 2.1440344075693165 4.05421234509019
S 7.256382212039279 10.907152720602246 10.621963523987962
S 6.129550281153353 8.338045762321032 1.827836430919726
S 7.26164406418669 6.4233340014325115 11.722988979209807
S 2.402369543109351 6.153295658058057 7.914883196932381
S 5.7179202883848825 6.333611673331117 9.447937006459181
S 3.2436936097060487 3.449503586123144 6.411751175948744
S 6.46190213038599 4.440952226507232 5.731112226145551
S 9.841868403398562 10.566185370975347 7.799893229088902
S 3.3827924115474164 9.587242098402125 8.144960260020449
S 8.624794125560946 10.072682362414458 3.0142659635538838
S 3.8505881700213833 11.27808521055598 5.269565858851069
S 7.374645413611343 2.38826744550359 3.102111988133636
S 7.473266087681821 1.426470969130579 6.608270933741296
S 5.477529265369589 9.69772877819011 3.023311759779811
S 3.588527114812427 6.492120402595066 11.42829793133067
S 5.381584649142298 3.8944681198662403 7.273260552117135
S 11.062539817892986 6.01896199720609 6.860049137445223
S 7.59198822146711 5.7249113010883965 8.58989834629715
S 11.324455955526004 5.08406932913688 5.106159660750233
S 3.784495606950899 4.974975908747393 3.286583517308332
S 2.8849892582789827 5.307630827857343 5.927654766181917
S 6.061061717368114 11.930128009895718 7.673292860198042
S 6.623037095489327 9.398419831826153 7.7474109430085125
S 4.490617378460709 5.018397466450505 10.525619774877127
S 9.429913373975255 4.970171107553881 2.319007591266369
S 7.144545971462076 4.482836105380743 12.085115913096873
S 7.371555881311469 6.355599057532734 6.750734473813833
S 9.770268745580276 8.451614719566843 11.055218427268752
S 3.935583718886381 9.585901914677253 10.00528314168512
S 1.8841315550730362 8.02866377095291 7.568251923267616
S 6.527755786742129 9.316430267846869 9.774335756022175
S 5.467564647549369 12.226002790869389 5.819921179707309
S 9.905551636063592 10.762887666305248 5.864719227316207
S 10.368511099188163 2.4839429868925507 8.12084618825184
S 6.249734408460918 7.723173723698583 12.787272837691466
S 10.612585056442255 8.567174266298474 8.211045796639942
