47
Energy = -186.62248866 eV
S 15.060442278444414 9.354650962568629 8.268756115960503
S 15.402643574663838 12.311161566409584 6.5571325655238635
S 13.827182915936215 8.158908492926052 7.0878932533140695
S 11.480811353810038 8.432198592610424 10.573575871457393
S 10.305542371866476 10.08432061899955 10.935139993194912
S 7.354266233765723 11.766301967462866 8.724385345505576
S 6.586511253937059 9.967569795417676 8.780758567168617
S 10.954621403490005 7.704678662866729 8.714445544123354
S 11.892582933129685 8.846725242574655 7.260749179091978
S 4.51032570894125 11.323796639118642 12.194313127402996
S 5.850426518491658 15.276997655537825 11.030584128376965
S 5.737372201770847 13.166890305694988 8.387428823472238
S 5.506747683028826 9.59897787410873 12.59050810741467
S 7.91003409659696 7.692609655441651 11.387997249800414
S 9.894491375491848 11.564621708304827 17.403741938188883
S 6.27497526829594 8.527532987569414 10.806380956073575
S 9.989893271312619 14.887880071830308 10.431853160395274
S 11.317434340511952 11.662599983750887 9.979440930146234
S 11.038803540642132 15.8131818689618 8.917568164808511
S 6.859610066090878 13.953406196361842 12.272097287003717
S 11.061790302545658 17.901500074645156 9.38988402304557
S 6.517982441972836 14.894374708874084 9.100250230343331
S 5.4133880821882725 12.884544631621132 13.254806309205033
S 12.419366090848477 12.765439573490061 11.259071114158887
S 11.184786338717597 14.354120375944547 11.99164463154165
S 16.081003332869308 12.705749935374334 12.06061642302127
S 15.181614723442738 14.388371260812768 9.187057286293866
S 10.12803173042796 15.983454702360019 15.21576977427009
S 10.745047720597633 14.538526886969484 16.321956933324717
S 12.867020562575604 18.504582917433765 9.747408177883461
S 9.72344667909857 12.683284647214078 15.712252967944888
S 13.285365677935708 12.137284842566332 15.413985682683471
S 11.356442752971478 10.127773620503499 17.036946904810247
S 16.384260609644393 13.79835537882706 7.561202198828993
S 14.122736966065593 9.683096873494083 12.86704579591362
S 12.207786812044205 6.9695977624870045 15.37464511982552
S 17.996773399585898 12.031027300960037 12.336394146174154
S 13.191165521009124 11.038977570866942 17.21560255192445
S 16.252678981672307 14.462810866798243 10.912848179719061
S 16.23478564545288 10.443787850923268 6.9799375534995205
S 13.063816492643118 14.056045966360104 15.841688360311823
S 18.370615026248476 8.722045120303502 11.96543831832996
S 18.457061056198615 10.530975591812162 10.970483788038985
S 15.312699002598539 8.201198054109451 13.261856603485406
S 16.593713809325504 7.773203735028221 11.593986434614736
S 10.43099816596809 6.952193198454519 14.299200245967937
S 11.464885889259712 5.176648203249945 14.6272527322901
