48
Energy = -189.18825194 eV
S 11.95426367625668 9.30040452604553 5.311912547577221
S 13.054266035466497 8.422568051489261 4.013339925481234
S 9.698643378090193 8.695716333367999 5.1643358692239305
S 12.123967608989735 13.082192301957969 8.02721669840388
S 10.011639757752075 6.395356334986359 5.647100106486261
S 15.572119331205899 11.294980042203195 7.788730745843548
S 8.922672926589735 9.722976146388529 6.585639096546576
S 5.755101525589512 12.863230498798778 8.422669391645424
S 11.817397298463364 15.010556727327417 8.535035233072547
S 12.171062634456367 10.171744314431919 9.59472747767174
S 7.771304803200741 13.16837119213805 8.40980012919791
S 11.031155512508427 6.177969376909551 7.291220148565809
S 16.20616800519655 10.1262883627566 9.214655256032813
S 10.2086629141061 9.482739952901394 9.844000732192697
S 9.402318140740139 5.868058470519329 8.886689090381006
S 14.653685768610092 6.131144225512572 9.16720691933475
S 13.680144840993304 15.955422279666601 8.702879865191642
S 17.198918004550787 11.17893855549878 10.6901360229338
S 7.725604250426985 6.095118343880095 8.00549196174948
S 12.402525387592664 12.143365880149096 9.956323146709252
S 8.103593089128088 15.094570161313086 9.310046967921695
S 14.404169990757852 15.55440743286642 10.591817073160719
S 5.249865550333987 11.94290287010564 10.212498630444538
S 13.700404243237056 6.663591083012673 10.75291384708115
S 13.837625370441787 17.038467505808036 11.908311827127095
S 10.047053722146059 8.928766951036563 11.83470080965186
S 15.63908532232082 11.654178663503563 12.253096413275488
S 6.915267695088938 9.613167471315062 12.730057368758876
S 8.84385627710906 14.859699803268754 11.092073157035284
S 12.048181398059322 5.7566474417111735 11.170359776966125
S 11.88995617726933 13.396524832204516 13.6331823276228
S 8.834183081886463 10.299191712528538 12.809312420292772
S 4.367507808620648 13.372731157420544 11.440558251390575
S 15.62177567617863 9.534395240653245 13.089887379740917
S 16.449894926633554 12.918682760248448 13.440854343158726
S 11.98480980709986 16.574087174785983 12.778661672615854
S 9.823818779529061 7.0987888056270805 14.73713065380526
S 13.688489647657272 9.31455132440619 13.614136746090601
S 12.286533058597069 15.392976906588478 14.384282889255783
S 6.725431316552663 8.022565508470594 14.139977103825478
S 5.7735895111698055 14.379467063196227 12.507430780196614
S 11.492001185652892 12.412826181029645 15.344260252595392
S 13.39099118448544 9.664407185222965 15.66300720752519
S 7.087315028761982 8.710466316267437 15.95448974642502
S 9.2926074735067 8.15368735869873 16.238616860212723
S 7.777464088738856 13.783000682755738 15.051939590733129
S 13.342078135746117 11.671701635136388 16.044562041794315
S 6.199076794210173 13.084654995593883 14.190971638759965
