48
Energy = -189.87880749 eV
S 11.537787382024792 8.557439813660691 3.7629702507886162
S 6.1874124566540925 10.6402060646066 5.398963364096514
S 9.691366935469379 8.742772552557986 4.337578852035942
S 11.741811076774532 14.744869807593817 6.4829432258441795
S 14.40250104888473 12.693737597443576 6.768780578362049
S 10.037249337071755 5.409003339290256 6.156521791473281
S 10.754015576526074 13.824812030748369 7.976066024945259
S 7.746169699547164 11.07943902394173 6.514765845256702
S 11.137735711045048 7.246721771599004 6.8152116245686685
S 12.57659760025927 7.433372783383138 5.51244512261661
S 9.770994709525695 10.870417960515706 5.468199231835677
S 5.629258208623075 8.543347628296713 5.879818429151924
S 14.886091346631206 12.130113950968699 8.70098650621775
S 13.812202555705447 14.66906899030005 6.847487304576305
S 10.944412854246233 10.711898463098114 6.9785259037812635
S 8.428594705364725 5.231277811973298 7.200855187929975
S 10.28020243785207 15.25906114689704 9.535668529819777
S 7.850108134064879 11.405495888890758 10.755306154139738
S 5.9645448784599635 8.33023049317946 7.8261120704487155
S 9.265054634674161 10.043176018026344 10.243966336151763
S 13.217759768278226 9.38836089586261 9.763875430105037
S 4.15281766813522 9.179544850883323 8.753377848743584
S 13.235504117558795 11.46520136309262 9.771372633941693
S 14.473951059406762 15.432917235601312 10.155231837763218
S 10.351634102038728 7.1334981032182165 11.423252400952231
S 9.097742005321416 5.476134136671373 10.728002891253075
S 14.378893951791746 8.729447144428507 11.342739471947466
S 5.88268224750031 5.542969598206328 11.155990197394392
S 9.354477582129466 8.752388356360226 12.007143838878633
S 14.501071896771412 15.774709707852773 12.03866154244009
S 14.874837017403593 13.682607219880367 13.110192061485952
S 6.535009920616458 4.704616073300814 12.74245341213851
S 8.449463618466813 14.608668408727368 10.092387482900197
S 4.460780945726546 9.274888347399799 10.654822418450442
S 8.644787987910169 13.165149328261412 11.58900091622041
S 11.786202970294033 11.547714670313018 13.716393288772347
S 8.832898755957238 4.316042920487312 12.304422344833693
S 13.22261402980812 8.527761786278033 13.054465641469
S 12.34603487629788 15.26366177264345 12.838811502617572
S 6.491731146336803 6.385824256648365 14.260375605408797
S 13.385582252554329 10.263982232121846 14.150541323619578
S 9.517863783474088 6.504862262363303 15.618528968942746
S 14.541895096210089 14.08343285122996 14.980450308103189
S 7.316477343674244 11.491773894863845 14.91972950395171
S 8.888393624347529 10.38394120236247 15.165891137426827
S 7.7026696676769495 5.813437463329368 15.82444548150081
S 10.619790038977841 11.673342582231324 15.3708895438521
S 12.554232413093482 15.328569375572805 14.765289808009582
