48
Energy = -188.85325972 eV
S 11.359515565223985 7.399602010675274 4.554388682832882
S 11.675665566098301 9.270275737555663 4.363152593467764
S 5.93652668933116 10.97645314614439 6.038437954456693
S 11.3178926895168 14.237733500627666 5.862930848604238
S 12.251735053861946 12.484059354134121 5.979922605242277
S 7.789788429249264 11.421575184156248 6.48290438673502
S 9.195041286024914 7.079701031205978 7.532290090613247
S 8.062713347369817 13.441458235458137 5.6908657030502106
S 6.544766009950006 7.405658093933166 9.513018543228677
S 14.014232397189888 8.13542986795787 6.301671212550486
S 9.449330964069924 14.240963117278277 6.916792657260184
S 10.971347562255714 6.208901784065954 9.080983918672088
S 13.73537306426257 12.63130644461064 7.675130248037905
S 12.93920236267724 6.6409979814074696 5.810831140475033
S 15.995418500248764 9.69588396965694 9.074904089462247
S 7.744717187314237 6.014642159913791 8.248106304317734
S 4.643161870106271 11.978161001995666 7.5979496438795096
S 9.95275834155255 4.979405584848552 10.130872376659992
S 11.413493757400289 9.604452290280939 8.858512343537614
S 4.756425681209537 6.702544921884994 9.6423384666183
S 11.0906223513436 15.263142279388262 10.091120168528102
S 13.734969304571637 14.431090683700063 8.371744078799066
S 7.987156525133922 10.556363332062647 10.471128778280455
S 5.902576311617573 12.7239521565038 8.923179558318264
S 14.52828580553058 12.13111667282676 12.792278446307284
S 12.827182326142953 13.351240173685342 12.671735897016466
S 6.131946007324387 11.319893835760698 10.529588568330642
S 8.76677360726468 7.371728148194445 12.75493706280807
S 7.889881213573939 15.284362875840774 10.958946110427794
S 14.740602209419572 7.008264165525417 10.58800883158508
S 9.325024782112779 11.94532436202296 11.577603490575424
S 9.587561012591802 16.19777362978696 10.8698488857489
S 6.769518584370996 8.400525077420369 13.232805076629344
S 11.280794201017162 8.230789326160936 10.207393496080352
S 15.917377892833557 8.764008373896612 10.757314821205078
S 7.487601077307946 12.84512762016017 13.423727111169052
S 12.631643775787806 14.3014964418068 14.465686643983437
S 9.469673700948983 7.031473074901148 14.584317001389406
S 14.677243576045372 6.065746318267619 12.26209234274746
S 10.233978169820508 10.920706169093437 12.92645718648522
S 6.667985197635135 8.526763881646254 15.139144821739915
S 11.650971806874425 12.986912494026562 15.800782434311119
S 8.491786826734147 11.897454954517444 14.778910788966778
S 10.50146148586041 8.71907716447698 15.383870693413767
S 14.441159568048858 10.788069451018927 14.302761762926337
S 13.509272553217919 8.951206694306507 13.702695637011608
S 9.674205054639735 13.362001301731501 15.907501656332276
S 12.5073728249015 8.248918001064808 15.342148916768085
