48
Energy = -190.38685046 eV
S 11.08378720351131 10.224036527320488 5.661023487914053
S 12.503974320594203 10.051318664427013 4.163827309403023
S 14.387293722996416 10.266753833088014 5.04508258429969
S 12.116261896991848 14.365364177610571 5.49936978080293
S 10.192318218301457 8.371422844339667 5.797739902560642
S 11.403825603417804 7.009829980866712 6.79026471218863
S 14.881180324048639 8.629584758697359 6.115934383121835
S 11.259750306331581 14.191765575546503 7.212315684210503
S 7.688960384692538 15.144038255393642 8.227353555866216
S 7.46689366343799 13.207235180486874 8.755397333267023
S 12.552535106908879 12.746922588155567 8.227607768972101
S 15.046955088889051 8.517909392874477 9.574529766976449
S 11.90271550180096 16.243142914694413 8.696438802793612
S 14.219229347587142 9.450492644562894 8.056117354301955
S 13.617014082617978 15.82568414744263 9.4491135286516
S 5.691789788850431 13.020618079619569 9.89841933348343
S 10.79982151893099 6.686776211798204 8.726544722252616
S 13.694738001256287 6.956638400892351 10.299688337839582
S 8.60762782900477 16.338351309077268 9.730792734958357
S 7.809888066246779 7.750269124536257 11.405407573338431
S 10.412214611915653 15.626321284935992 10.233459216503958
S 11.86016354048792 7.807930763603042 10.128374435688077
S 11.611658434475917 12.079083911399694 9.86548268429984
S 6.191173909312909 11.930308942662355 11.53947591775153
S 16.66950214768413 13.057050611151022 11.987725882975464
S 12.672867749144578 12.951324909235623 11.535848581359858
S 8.798095627934131 13.379616670701024 12.996803426312969
S 12.652578424889372 6.672264911219707 14.235927948392886
S 12.737502358604067 11.347032957630752 12.76413509923998
S 12.267183171456393 17.170555012047288 13.633485294915975
S 9.644050778984496 8.128426879769075 14.184495030828982
S 9.449608954274511 11.392355650231373 13.54113498184506
S 6.795081603827658 13.139893924825017 13.15330503682877
S 8.772580377199555 6.736977619759823 12.73108632489888
S 10.716856358453997 17.077117711295752 14.778496736523167
S 15.08610566409119 9.04475541703429 14.988078299879302
S 7.100692228764157 11.22877140161779 16.559539151889616
S 16.775916308203122 13.070611755492976 13.912844482924925
S 14.2297512622752 7.166506018608151 15.41314492282401
S 14.97150701693878 14.02275089557529 14.686465054788789
S 11.298390424445287 11.646148543163974 14.293098013007938
S 10.805875077408983 6.90472731429711 15.276807762843225
S 15.139555197051306 10.061879188909979 16.77829695062363
S 10.336000919636147 15.406749072144153 15.665683186117285
S 10.118270704491973 11.680171543103725 17.84150684957856
S 14.926063150913215 13.390133778320513 16.60998892955937
S 8.309820031356367 12.312379643069677 17.59637062014941
S 13.798746772275974 11.644371839679195 16.810343303159918
