48
Energy = -181.28804752 eV
S 6.6408668093964645 7.788423702723966 1.9010089836290702
S 5.629247738014307 10.202499768042687 4.14257784921049
S 9.524812305784856 7.101524787730107 3.3511914789346284
S 9.263893009640656 9.205093530974434 3.5654517507331707
S 6.622664660512031 4.844662737069595 3.326951488699192
S 3.899915435858478 7.282805972246314 3.912420126520031
S 12.390688846902227 7.791164124149904 3.7718595507594594
S 9.724809845754413 3.5520633770563403 4.035861669613165
S 7.3531554741703955 7.1260975219714195 3.602719080447732
S 5.8035985082260755 2.839096961186957 6.325301350076622
S 7.15934941351197 11.327083163473768 4.557022711266477
S 12.099089645556317 5.233234882926711 5.747000765608493
S 5.647875602216956 7.62846682207354 6.92532248849258
S 4.935808589395619 10.73113698910403 6.2979555492436505
S 11.298843997231971 7.447097480758512 5.502199426217051
S 10.066044064101266 9.931675449438506 5.2863621282887605
S 8.919049859222875 3.712862008684958 5.786425638066084
S 7.50605694206308 1.8847449239661973 6.07246958617928
S 2.8202860638648617 6.007108222627797 4.920770346960251
S 7.931227839868263 10.55872480671344 6.471390051944129
S 5.301377411782264 4.31761429175007 4.647293934077363
S 12.635996128450541 8.394976567972884 7.276676176804629
S 2.9664124505197025 9.744850423623882 6.138533480787556
S 10.257738253384197 3.20604976248215 7.49342777202138
S 7.3584848165649275 3.790553926708336 9.380135203065729
S 2.350252619427552 6.6006065878393345 6.812299054257364
S 11.810984763482592 10.01738079412887 7.965228025463389
S 5.912097713601595 5.037081687041979 8.644764143044092
S 9.970362053991998 8.947798523760932 9.465661519545716
S 7.17283864562006 6.342753480471452 7.606869122308335
S 3.0449244064712575 3.659359771725994 8.864306070910876
S 6.525586390538658 10.707115093182832 9.19374243504621
S 8.715662472955994 11.965813539962804 7.563976300204435
S 4.037029055334335 7.160964848049524 7.999900597588515
S 10.70813159193702 4.840087664921955 8.514977549340985
S 12.604561783755871 5.250516472618316 7.629986758433749
S 4.567487915262499 10.987543069681568 8.672595444591776
S 9.279528120553673 10.132391059222876 10.810481891965479
S 2.2614047842697325 9.747840796613321 7.92351836686811
S 10.817971027958485 7.189921563420769 10.474344453607193
S 8.176900416899835 4.705602681522734 11.102561698379409
S 5.663275672235113 7.449204318286942 10.942397007061317
S 2.8403636101272127 5.15373994647917 10.072506747365095
S 8.879305803130045 6.6704580721359985 11.068840119136766
S 4.657744827319957 5.490256101066954 11.285509748453904
S 6.514600370115023 9.980378204223005 11.089247501438019
S 4.260789448862122 8.748336896077992 11.894735929320397
S 2.5445110828078135 8.63884491076174 11.036829216674642
