48
Energy = -184.62905813 eV
S 13.662442530474127 17.30915906423569 13.420201630697347
S 9.735399906073722 12.982752626087393 17.263708268977165
S 8.34921807838269 14.830200129969134 12.951777243260624
S 11.213964681790642 15.795914116265426 17.11383834174145
S 12.958050263154435 12.561064531548077 14.31366634970147
S 10.280712607259293 14.571587070632932 15.815516542163351
S 13.755135701572119 9.436477706170521 16.850093611838588
S 15.921953997385188 9.931736023347595 10.229353500944518
S 14.420438540835214 15.512001147511302 15.992835863724828
S 13.583043839017517 15.881739149307075 8.789503290840731
S 17.307353184230593 12.839730030335327 15.988172793908147
S 9.696386701210756 9.954708315739902 15.63162483813322
S 10.256415643619677 15.094200061922743 9.201543730348062
S 9.349686554768475 13.40196431655726 10.1448866625807
S 13.78093989788156 13.831388894385853 12.06343900029381
S 12.31138206201257 11.15932677005906 13.141431770162708
S 16.73682126503986 9.480387817060706 12.28976884588692
S 16.863254208029954 11.534980975176362 9.571744582608227
S 10.380732139686092 12.15331074788118 13.309266011183757
S 13.088569957549726 22.109779979039224 12.436104769778858
S 17.918907239525513 10.854602371646655 12.899465968812443
S 16.171316370276998 11.617578051265806 16.96241307846052
S 8.607025610645987 9.524601411593382 14.040135025911168
S 11.782395437359721 9.38387275469949 8.691131238037467
S 10.391605186134026 17.268131575278975 13.888392270531773
S 13.028474851140167 14.60948954035459 7.493176837224576
S 12.415034239542441 10.75202203265991 17.385848410261993
S 13.168613385497263 15.237376474563412 17.586025218181256
S 17.10758145898735 14.565394894026973 12.518118783337092
S 10.493730605007265 10.205084176391196 10.152556217210675
S 8.523862733415056 11.610894636614592 16.516605254317962
S 16.919733731270075 16.50048060851437 13.351152222076207
S 13.264960573237492 10.525541292513836 8.183411536231668
S 15.202298045511432 10.249458506859977 15.586290653942882
S 9.343091579211315 11.629347432671961 9.13953631641823
S 15.711968268289787 15.069275263794857 9.530251248477168
S 13.492363069242902 7.62534718186384 11.528668457306676
S 14.401981398829523 7.606530587328698 13.199196798986902
S 14.124629276357712 17.514527225049452 15.35425575811338
S 11.243264309810227 7.54938774563774 12.709854093236665
S 11.586598911273084 15.979849028700292 10.34428580687919
S 8.741740059318843 16.73012683301158 13.005505641022113
S 15.850511325753095 13.366666062729646 8.593309077738624
S 12.1071996454314 7.520832809579277 14.399487656941943
S 15.599418256480533 13.436234404697295 13.2131470935379
S 13.319627802794034 12.33511734813526 10.926314378506838
S 15.576080819378445 17.62013534107643 12.360615836176066
S 8.82903288300642 11.198024830168608 12.623686448675315
