48
Energy = -188.68640825 eV
S 10.241242868340748 12.310187515461388 5.723260189927586
S 8.16829759266571 10.336332660323123 4.570489406703907
S 8.703281134256738 8.341757907361714 5.3106094828387125
S 10.549264274128927 8.275436807496208 6.0671445131747435
S 8.842493773449247 12.486387744602226 7.013723381169969
S 7.0352570713250735 11.191153829642051 5.911164511854392
S 7.841491080434159 14.464538129030256 6.778837308036383
S 13.479918101213496 11.486630319316523 6.743232761625851
S 16.639578041216303 10.382321744582786 7.208796893705197
S 4.644025151342737 11.196855419961986 9.276260412282973
S 5.251304716319072 14.506166916106034 8.908899742793956
S 6.061062831289696 8.217672433285443 9.40660637058244
S 7.289826529201246 14.938342265581058 8.655582219820754
S 8.815929689149856 12.334941530020927 11.886721497246864
S 10.326780096307532 8.699809250688114 8.187710359614663
S 14.064609300182461 14.496873353922087 9.75560711335288
S 12.198818970907753 9.164079299215203 8.797679256724674
S 15.300101545871414 12.199666254730076 7.059111673808371
S 15.551377144922823 8.828867418017914 6.946346526902971
S 12.518937385827389 11.200561251458328 8.623872651460603
S 5.000685801921682 12.951821845367174 10.247989743913674
S 6.509915784606843 10.093189925984207 9.466161806071371
S 17.34319941549876 14.27201167042584 10.256302236558694
S 15.646613716662861 8.267079427284203 11.81347239382595
S 16.095811479369093 12.888991671354157 10.59836456821356
S 8.409219033231883 10.739196657519521 12.877422592794622
S 15.302026247988715 15.900599532420937 9.464403300158994
S 10.30053967061213 16.12661912202227 12.467061500217312
S 14.802861415177116 14.397911799697239 12.374710864840464
S 15.993919133394797 15.844720674385528 12.09625514413111
S 11.377041868676656 12.19654084773895 12.627672258282438
S 12.185031264085254 6.16293475291103 11.152465614912511
S 15.851507755615657 6.983279382656704 13.208852001852454
S 8.890650564306856 6.412288570603472 11.10815642335112
S 14.85673867912847 9.816949625216825 14.391734560448647
S 10.47050635044616 5.339265351094953 10.828994609870481
S 7.630089551640041 11.524084095328176 14.839572061800622
S 11.728757494155492 15.434673907644926 13.59298093193917
S 11.331714681414713 13.553060553031262 14.371398746728316
S 11.196430952194294 10.44131183489616 13.36579888183825
S 11.366718933321337 7.2987623676626 16.332702089465155
S 15.296658164695524 8.073108520669386 15.018063690640666
S 6.744216950735934 6.884541083535579 14.48908040814943
S 10.062736657094348 7.243619370931979 14.898460060656937
S 6.539433574470985 10.114918897607106 15.636157997387702
S 9.656558453902274 10.231749057063842 16.915389681930023
S 8.063640680896786 9.218487785079228 17.183116799833297
S 8.111807104452176 6.818328297113017 15.834231434609194
