48
Energy = -186.72830087 eV
S 11.2383343823782 15.792391263591169 13.683265077636117
S 7.242222145738419 15.871929027253683 14.68657205182836
S 8.892435148465717 16.210727267156525 10.995132292612636
S 6.798660460312062 13.89671541463086 14.253697319234048
S 6.679335817180234 13.179985960100312 6.380766322010136
S 11.683541080363156 14.550211784324759 10.113300269304629
S 12.210562533338788 17.594873854795537 11.151346168960732
S 10.822382643642005 17.633990350199838 12.837316331924237
S 10.146625942664553 15.614383908063807 15.283482864762705
S 13.341993256869387 14.442873025299434 11.142782870029194
S 13.854190665944515 16.638135686862945 11.629503292196592
S 16.250786573619646 16.19291945487273 14.585442938390637
S 16.45664498634256 14.82020240540483 13.040200312957
S 17.0188231571191 12.966593230215189 7.916451193013938
S 15.178485035907562 12.322612214834875 6.70822731734595
S 13.148388308287238 10.6037758983617 16.6860490610005
S 11.678989514227599 10.731910170868469 13.63377791062801
S 9.770052428939163 9.488895567262228 16.3054694683084
S 13.21758154160884 9.880022922565669 14.91433968779026
S 15.46046571694406 14.272748865028456 14.777940332674207
S 9.872194928209792 14.646593905616827 11.511785240330155
S 5.2683560181121845 15.303096584559867 14.157723714259715
S 6.220117206898046 10.534511404469194 9.810859354202892
S 7.366324679762043 11.43706398306693 6.016459419410212
S 6.951667417442256 10.299585661903755 13.104926470850282
S 7.8761759887422835 11.810884153300973 9.156804049121627
S 9.652439108941023 7.125041504166452 9.24644544952356
S 9.841314546580602 4.538040104908731 12.945446875219117
S 7.038564402476449 9.350504805760844 11.211224941278582
S 7.08598784235179 13.52680046766264 8.665245828680463
S 9.42813975249809 7.89187532920734 5.8590735669048275
S 10.932822710119966 8.89270908904027 6.472664521902957
S 11.2491864019203 5.900861608044333 9.220596199045987
S 9.92933607256136 9.545518014374158 14.404171397929517
S 10.62982735685164 9.159893531411072 9.093332248396258
S 13.928443726076909 11.613305311854747 7.976228608160272
S 12.704791391531687 7.507574005215938 6.779871744740962
S 12.374804758074854 9.10907564074842 9.87187978261714
S 11.786680812797806 5.766727176613108 7.187682768170503
S 15.846543858018551 9.410696018751475 10.940941444378488
S 16.553937745444117 12.483946406158953 9.765669447075254
S 10.315167438748883 5.28142559201959 14.634574024139178
S 14.875583034856351 11.034235094437891 13.739293430746766
S 12.915356186652096 4.747257307025133 12.804712140827089
S 12.497556192431983 5.429871624725808 14.536223138587921
S 16.125751482040194 9.64464688830402 13.033112744634
S 17.330625238105352 10.485942852301127 10.100059939338736
S 8.714378065987539 11.218993958531174 13.430504131045465
