48
Energy = -190.37358473 eV
S 9.430354098565914 13.239649699231983 5.316050400300573
S 10.255297542299013 11.270505907870506 5.371985778087464
S 6.832956412179965 7.480496968240086 5.810291256078396
S 7.400675485459754 6.31947359526473 7.399665185933386
S 14.794841711072444 9.206269379147878 6.314250015674994
S 6.835739631473705 9.480962516564468 6.204842927265344
S 6.090633817076003 13.454400234664918 5.817837366014075
S 9.51603187658509 5.739463621399591 7.273910016392704
S 10.679875784186141 14.506603828175836 6.212951939903653
S 14.413329302272418 11.189733129834183 6.5255023157297645
S 4.378236736557846 11.406162020110491 7.600092300688833
S 13.786616107172017 7.9249027039066435 7.664941230343089
S 5.329033609192851 9.565419737768464 7.718392570943071
S 9.5976512831142 9.3998924781421 8.295891900575667
S 10.876225339431477 10.752924826609362 7.226553568485866
S 6.340123626732652 14.107855861941417 7.58702865094615
S 8.409142028882636 13.47912563680518 8.507617623237117
S 15.254341587776665 13.423624377453866 8.89737308280594
S 9.680413055537201 14.937650949411248 8.168272943071775
S 10.08488681941868 5.055367694612551 9.059824188275815
S 16.04863639245059 12.075016087214932 7.560001408753163
S 4.574712112711565 6.523162543060914 10.000732252538267
S 11.846543648385733 10.262722554188972 10.404210868589654
S 15.040289224646099 7.187486051184674 9.092008616835214
S 14.677766535106963 8.190066719802577 10.897872209454805
S 11.111699920845751 6.62635685479208 10.028151866790685
S 17.021098955802795 10.646772378241733 11.13286755928483
S 5.097019491500774 12.644628079935009 8.975580334140771
S 14.341699502876073 12.44918556064542 10.468479437704248
S 10.212288009947697 10.882056716942948 11.18110177668602
S 9.302629167058162 15.698461121590878 12.450711431525317
S 8.563262384873601 10.37370112394641 9.672457978401368
S 16.442473956356714 8.739404894302792 11.730135847365801
S 5.9676291931828445 9.041605723619993 11.644173589384035
S 5.755927643082259 7.117380056107208 11.375812937515576
S 15.761829254889577 12.036621591111674 11.948760288259706
S 6.721441097814705 13.617556475019098 12.760241636407681
S 8.64886996445027 4.349505255859449 14.515377434794399
S 10.015912787844176 7.205376020506707 11.679765476671308
S 12.358154741838485 8.386287385309652 13.625204788273013
S 8.647961179349759 14.184524471793724 13.435218454248213
S 9.355374060293522 9.799379794303086 14.26536752371134
S 7.636806093970819 5.954236088637581 14.8829168377561
S 11.29329496149829 9.832331409428742 14.823649140621958
S 6.059227713901628 12.12113759464562 13.764513555358613
S 8.315014120210357 9.05560179303456 15.949890357320935
S 11.205663239604998 6.758364602709201 13.346657968485108
S 8.827034124839063 7.137251219229957 16.251528496688938
