49
Energy = -192.35201767 eV
S 11.356130207104698 8.551445374729518 11.701242560168941
S 15.467772447793722 12.433463972393286 11.000406954594652
S 12.329208448252073 14.067239831995453 17.722979799522193
S 11.892222095097003 11.730943668865805 17.785397621824956
S 9.308363956193167 11.433045193843023 15.621283325585665
S 10.950577136731765 18.673217961622537 16.1688217807551
S 10.163056120211204 19.139287498759305 10.704181064150475
S 9.85326159046682 16.272061612979424 9.078064256322074
S 19.415405227156874 9.983624199271915 16.53648601705164
S 14.586894244538303 14.79752568939314 8.851104492110478
S 19.63862488473851 19.115747539755528 21.800158655500113
S 15.964717936645819 12.340286520165293 17.582668990682407
S 17.407949359449603 12.15839279164168 10.291145296174895
S 17.215598906075297 12.488766281323453 15.963320800869171
S 12.03571653421365 21.551235294778525 16.96493210072502
S 20.85428594135304 14.689269222583837 10.306322034957045
S 19.13002527240752 14.447849581384263 19.963536290996295
S 10.880375698212875 15.12679043165132 10.455020821901877
S 17.94400590631483 18.202873224441145 21.753738175022562
S 16.98413230987005 13.868868519978337 20.362627674610383
S 11.54062060581032 18.577971234924565 18.19002452711166
S 12.560099742073895 19.98249133635931 15.837636650156817
S 18.728720499897197 12.617124228649729 11.813502273650817
S 9.625795751625297 13.571537382570988 11.130739111028639
S 15.417227383158052 22.041922935029856 13.239828574441287
S 19.13563695926957 12.087113471504788 16.584507358891596
S 19.196189443849313 14.603328154174912 11.692194999147647
S 15.02654677752998 14.417958120122671 10.939621308271839
S 22.540494376267457 10.734339494003377 16.958373493072667
S 12.793927581068205 7.752280950800573 13.134221596589637
S 12.267454553905152 10.026847643443672 10.909622126516632
S 11.37238466715698 13.538149660439743 14.000182222640897
S 10.587397641082804 14.833325788617396 17.863759892714803
S 11.250751177151034 20.472122378345063 18.76673472256886
S 19.262333454156387 15.045905413869098 18.148829274894695
S 9.798427886254022 19.6534067834333 12.53313469703285
S 20.249710911944472 9.485886571573834 14.811841272259187
S 10.96931462556007 11.314980650504111 14.655979335830388
S 9.97128530965014 11.714058738544585 17.87926424658257
S 16.045005295503127 14.180718246760446 18.641685022777388
S 22.47359806642476 15.22247304237181 11.218111737471657
S 8.727841198184118 17.644002361974056 10.090075253116195
S 8.405924868387713 14.263149878263755 12.53560809911556
S 9.710292502771829 14.432195926024539 14.398369898687477
S 22.45483746141754 9.911292081775176 15.236221541704786
S 15.476699973930202 16.42410804445781 8.310365864443979
S 16.354804890498723 19.227079611400217 21.391259882008377
S 14.312276374486688 8.889791798415851 12.949357414281872
S 16.726970863444183 23.176668602689663 14.020682112708554
