49
Energy = -194.74797036 eV
S 15.300930120128175 11.741027125940555 6.644944060490955
S 10.557389645276166 7.069438269598044 9.912128334476705
S 7.9803193795944685 11.451936241295996 4.950545119837959
S 9.601929998515594 10.555872991049686 5.9929231537787695
S 6.541381453637011 10.17555020290758 4.715803405140506
S 14.527496682968625 10.418812764400103 8.181763310099898
S 9.149961904043446 5.454310035249083 9.102716630223572
S 13.850620578169309 12.941077120778383 6.132126854813326
S 14.687859946084084 15.142798384476293 7.571270713528432
S 11.289238733799618 6.250696134248543 11.554952260015504
S 13.109089471230197 16.957907332180937 9.758113000911672
S 7.609901160939716 13.779005080005557 7.829556504411043
S 9.122441566317612 4.034310398937766 10.433689483875911
S 16.023369143212047 10.279276427251766 9.544015217159036
S 9.820705091608712 11.59892856900155 7.808682534892687
S 8.677971162131584 10.83073496602467 9.208053584474701
S 5.239159392716068 11.337861651398997 8.13991961224216
S 6.233987925215904 5.642539068972154 11.29018376586344
S 14.75663473231261 15.819424754772385 9.62569801635127
S 11.442223171376925 15.697355187096063 10.250020372430324
S 14.492325357389424 11.921216253708192 12.094901968991831
S 16.623080374959365 14.302972101578492 7.501507498554442
S 12.038824371286143 14.401139284341467 11.666935139285922
S 6.92896201656691 12.562886075408805 9.138587433766826
S 4.385082078886337 10.306572931386372 9.517373528455456
S 9.94202304444641 9.611079074868588 12.879393063948072
S 7.755840014547525 4.613887968679623 12.084575851569255
S 15.948282860659788 12.05441712241356 10.6588000398135
S 6.311521890023623 15.565072398390894 15.233790320892703
S 6.105059752340632 15.389130343887384 13.339774957094857
S 6.783768506964458 7.669327642200816 11.158914351101362
S 13.088636646315578 5.219668541520524 11.108091905414332
S 14.577529590085382 6.340021377118082 12.025971221281637
S 11.847928254870821 15.354516653679266 13.585219368264774
S 13.59989594615466 15.99901001536512 14.195336644563397
S 10.010719430858124 11.326096478360698 14.030840456465732
S 8.636370192703826 12.668190017263578 13.304220322411421
S 15.41132030397835 11.560490070716458 13.96597643190265
S 6.796399041028858 8.463034191806916 13.047077622496234
S 17.626992692432427 14.668489530654034 9.115196141353469
S 8.72637580983388 8.21779423407636 13.787711411070827
S 16.134631081363278 13.278467543448999 14.610098834062887
S 6.95503439444468 13.529102223496714 16.033846904102283
S 12.842555661725028 12.894221593303202 15.41862176791715
S 14.968467973756109 5.487174694680395 13.80356182514719
S 14.212292780899958 14.18207877060429 15.685081541353314
S 13.114372037152485 8.22652976470892 14.593487061989448
S 6.856688432363094 12.401955678790802 14.4035517009157
S 13.676533085437029 6.526719600707027 15.284573633546652
