49
Energy = -193.47321322 eV
S 11.75468656262576 7.722261313527764 4.3835902652073795
S 13.044490769437646 11.60621822781774 4.215976518216427
S 14.00817042392345 10.484363470917577 5.450734803464844
S 7.159201442461954 11.839244602967035 5.86933365622394
S 15.721898686151325 11.667530969593155 6.159462917446979
S 7.208748687499946 9.931887313556638 5.865897370779357
S 12.016870868041783 15.597045548659553 6.285132459973599
S 10.433493175396011 7.221440821752711 5.700882731147815
S 10.319588060092968 12.669731322419523 8.075999050348704
S 13.207101275915894 14.083628999952024 7.3905391903219355
S 16.626061344031175 10.495241869938058 7.474820241767731
S 12.780682396976967 7.3461670599123865 8.179735816687637
S 8.937118707344553 14.452437948237426 7.313914991099976
S 10.10891742113464 5.32844728945422 11.042266018110244
S 7.208527662033088 9.410698958807501 7.994141304560144
S 10.558450290734132 16.054449193567024 7.524805134242909
S 10.911526158009293 7.977781200271048 7.671918746077449
S 16.852844441858075 12.696991256536801 9.90881322649984
S 11.89146364484511 13.63691997983976 8.888971584045859
S 15.557873343478127 10.83705341434865 9.496250319973763
S 9.335745216317822 7.259209250654508 10.907977516657036
S 7.624564924029068 14.997762729202497 8.597526092775313
S 7.174507272739469 11.104861402316766 8.868773195188892
S 12.672124559976112 5.417440983863262 8.955458976059946
S 11.483680352397032 15.327977424984688 13.025743012453548
S 9.474289967225161 13.187534541849113 11.673525858663071
S 15.921426413586781 13.597927265177576 11.41065244861315
S 9.514229924198277 15.033223876287499 12.160207727265984
S 16.028826825114244 9.383503400581294 10.649245887480669
S 12.320491798468703 13.616089707996679 12.926950122260735
S 10.705541523811066 10.127052878791565 13.64570314396087
S 8.473384795313343 7.808358093173865 12.698358778084952
S 12.156341546250257 5.537544570602148 10.951122700580738
S 5.12211987972126 10.399330643216219 13.10218876454921
S 16.79933305669529 12.696273728775553 13.21902660541273
S 9.842880053743297 8.290630767022282 14.153086136353851
S 12.682353292721677 9.637148906230172 13.338454501660173
S 10.370942874519384 10.196527767869883 17.480896642396228
S 8.154358792167812 12.996376809306346 15.196767093130733
S 4.816462944880173 11.303635983233434 14.77336598411103
S 10.6638038167879 12.266498585023518 16.938855007143484
S 16.034050994723493 13.585176496002997 14.747046051859693
S 13.188357217916638 8.634402704328302 16.46079253095378
S 13.736977121398423 10.071812019040589 15.0672958741763
S 6.440586373486954 10.714029067066155 16.189278061434617
S 7.674956194225912 13.730163512716754 16.87986714386549
S 9.670372499461138 13.370386212617678 18.208751625745002
S 12.257080953702298 9.645943860604667 18.018479495886425
S 6.22039005250026 11.871532649457077 17.729313275149845
