49
Energy = -191.21903685 eV
S 10.839225443995634 10.073495060533949 4.32042044813364
S 9.060325972505304 10.177619446122403 5.037035278137707
S 11.907924316321516 8.520333738843274 5.452756767950109
S 13.751919129740918 8.546327741017837 4.840183467680693
S 12.193336260008001 12.067174555968933 5.746837137640142
S 10.457402381753095 4.951677631216665 7.0180948952727125
S 10.056243209209144 16.01254383499053 7.662382689868749
S 13.87609581594083 11.402689075860334 6.377783006207891
S 5.652682180515731 12.487781682484927 7.991330791983311
S 7.836095280383559 6.446896930514903 8.550880718856853
S 10.665732333024327 11.851760821498472 7.347375247584107
S 7.159301584884006 13.499187318044303 8.806441537815244
S 5.943272223745281 6.1802093508293545 9.388447041997722
S 11.618895247596644 10.777104637573684 8.781954972987394
S 4.793567248607069 7.892435702330422 9.3790675540128
S 11.33954716952468 15.913391147504395 9.063385962930333
S 15.61145220146509 8.33458250301641 10.284890775859967
S 7.927840031778523 12.34732113067249 10.422571969018675
S 11.578326598912314 5.910523709942424 8.273164796877872
S 16.15460186626055 13.2190013016452 8.122654755325382
S 14.783415297031473 14.113775104353412 9.125073737345474
S 9.013600568519438 7.167467495324231 10.037237497479056
S 4.433258510759922 14.946604093881307 9.998022501060223
S 15.08727418544036 7.885503346614685 8.475843525938343
S 14.034054535962593 7.920920654563969 11.647106250450406
S 12.296954130231166 4.896308846138743 9.75871484147094
S 8.49824842049327 16.94380171857207 10.188312807180939
S 10.251698853187998 16.565165976350716 10.83584354243719
S 3.8338105033967578 13.46292237834548 8.95321672790896
S 5.419797558044818 9.197879381857975 10.826441197749595
S 14.238012758399588 6.103176798350158 13.379904637095228
S 9.319110463471729 5.461193472337258 11.338008043144653
S 11.938620332301127 12.045542747542253 10.349483415100801
S 14.070261917616063 12.613399059950753 10.788512743522139
S 10.534190574443588 6.163372981589344 12.713144396601674
S 6.663201678686785 12.506682629022643 12.006553060421467
S 8.505701103542158 8.830555238518464 13.453362161154065
S 14.659038935527128 9.498425801696351 12.910235885426532
S 7.235426906935306 14.144585539818546 13.204114432107653
S 14.452604147444937 8.81829181682902 14.827607146978938
S 13.735771079969977 13.669495654141752 12.370551291298275
S 5.315781951106654 8.011545966884107 12.590530143455323
S 9.153092156991553 6.849013883336262 14.496899681142013
S 15.565187410790141 7.055459526548827 14.528671552831389
S 6.566538761481269 8.98161993200328 13.90707324644184
S 10.246510760067336 13.233026888350748 14.321179062438283
S 11.088389338580743 12.251129924397281 15.75357829443282
S 8.140169060390788 13.388922684683227 14.844512839743752
S 7.59377126414305 5.759432798516522 14.59988518263104
