49
Energy = -192.27406204 eV
S 12.048896833955746 6.3272548859438 6.536454207492255
S 8.703621120252853 10.888351480876963 4.013583260534872
S 9.759567299526482 9.587393317841334 4.919825904682888
S 13.42360194832596 13.091028139377624 5.764328744146783
S 6.864105041044086 10.987460960344135 5.198452989625307
S 15.387311485052617 8.865563470521057 7.511651552129765
S 14.445332176028574 12.116378039571712 7.066264296627692
S 10.435945142363812 15.188413558354506 7.317159357327584
S 13.96509623838289 10.003145565886859 6.6352693312520685
S 6.965401287064573 14.435917873182527 7.910479651103027
S 10.645105523709057 5.655258347795104 7.654292149015378
S 9.147667192671957 13.222015792896299 7.751231800926312
S 7.1630341308027985 9.722404463943834 6.593785119570881
S 9.422893552505304 7.373202206194057 8.621951825714131
S 14.50993504251443 7.7460217574549155 9.076613005071366
S 10.657783236638297 9.003393212128207 8.488916441521901
S 13.481176755956348 12.699073179136658 9.501607066863048
S 11.329052861899491 15.375212913422233 9.070295237371344
S 14.563841950493847 8.761190372181902 10.814308402584516
S 11.691506796956835 4.727019375261895 9.427757315439072
S 6.861271821613203 14.455502935745699 9.846181743021619
S 5.966178626599091 8.332387248698181 10.321694104154194
S 10.309077737184257 6.409077044451943 11.849711999485423
S 13.323732843184214 14.792000221155503 8.968915546226041
S 10.253147481853686 4.577332742032714 10.827842250086054
S 16.52761355434098 8.195435126220561 11.608928138402018
S 12.63039735668507 11.084071895886732 14.677384876939456
S 7.733721936095983 16.40279281580113 10.485369723322131
S 14.987123581292877 12.50223630159991 10.683945546669552
S 9.471661956710006 12.827283138081295 9.577353286363323
S 11.391004636378161 9.554987512429875 10.213923317037905
S 6.449714626948855 6.998939795299823 11.590898954393285
S 16.674077360996296 8.84664120246593 13.41744396707179
S 12.547466448214339 15.668343291963936 13.281316159830464
S 6.707672205188275 11.003162180019439 13.952512185800492
S 11.46929348271478 6.157014168527954 13.534010809535602
S 11.322591474610444 14.219027158076885 13.056224456030426
S 6.525644632859774 12.842742696944585 13.489945484151004
S 9.776956598044316 8.05479209630756 15.618082870794838
S 13.748006055293969 12.4911701967608 15.708189206353808
S 7.254721579028997 16.67316386006064 12.335681644836828
S 12.51345417377789 16.28423109582793 15.479051258569811
S 12.902546175095685 9.247727115556748 15.58882647982299
S 10.209720662956212 6.081597948527173 15.17594895945775
S 11.291792966290615 8.80814887862225 16.80799395447947
S 7.43933121473173 13.898788160663084 15.171672123446058
S 12.653121558821606 13.394531330429611 17.17150429786883
S 11.39084687855942 14.864023645923645 16.287568358031056
S 7.996450311900108 12.496364837719756 16.336866192934014
