49
Energy = -196.51602527 eV
S 16.691623566660187 11.392869277566765 5.817543790749041
S 14.862770647160346 10.12653408953106 5.066579726164052
S 17.051060049087752 7.710580266049409 7.52990131241422
S 14.83942952821846 7.344949019669594 7.096006244195704
S 8.691124492944276 9.68870746119555 8.202941792865799
S 15.953728697817963 12.29298183694766 7.38231462426045
S 15.04261756657431 14.180767271545276 6.6836990971746415
S 9.912338091451181 10.818723869999197 7.263126903450199
S 13.535483495308164 10.412436079749236 6.435161486523682
S 5.518453921546949 12.04411101903525 8.717177383471265
S 8.764896213476886 12.15351995041865 5.707934299709855
S 5.89091751669795 10.783959214362556 10.297292907911334
S 17.13938561066398 9.15735369094532 8.850731139331394
S 7.703236653121376 15.170632744181404 6.914043423992591
S 9.522621188661343 5.466524589095823 11.653162254229132
S 13.84794626971597 8.736483003857494 8.008645423607073
S 9.26434792433066 14.053277113830765 6.072751369670746
S 10.87358759794556 6.9323375006020855 11.093051784073415
S 15.43011108913158 15.444494266131045 8.169687360132915
S 10.598945605447039 12.48265297341957 8.789179457963144
S 5.625350845327 14.049869500701357 9.223725900990095
S 4.0065090803885886 10.46421163007628 11.168224982621355
S 17.068952399972165 8.26497417438848 10.844919076935309
S 9.323741606746761 12.067059332029134 10.26901870953094
S 10.162438470698358 10.668203441001458 11.482246996915475
S 7.530817115337521 14.800257923392289 8.94542643497074
S 13.71946647119421 15.161371717953873 9.520191217556544
S 12.366740831310732 7.060049501330814 12.553530768379986
S 12.162443919648377 8.718909107160602 13.69286956828372
S 7.670604297580774 6.249174543079083 12.111692367670404
S 8.96514812285451 12.619817518766153 14.24677623317795
S 14.040971457649967 16.2091587974402 11.105197457734345
S 16.59609185510179 10.902909707097008 12.724945499542821
S 9.287862329820506 14.50813463108837 14.050058925130141
S 4.0220767520494345 11.062249465165436 13.122957826205022
S 15.581534676244106 9.17937680795218 11.818807949552973
S 11.590923953503392 13.677616763882726 12.382468970431908
S 15.273754751676426 11.97205306703212 13.631359401501442
S 7.609981332981745 6.613842604372979 14.144483061462408
S 11.134164163223675 11.949696308526542 13.048796134703773
S 7.66072150300449 8.693177940238611 14.32203794628045
S 11.155965911969869 7.993682234317601 15.49546222872508
S 4.229639546154897 9.294328058850445 14.216059369171557
S 10.477053170914102 15.138392837560286 15.822555767700647
S 11.669576724866847 9.211436916485717 16.979277078912908
S 5.962454065689257 9.270725007372246 15.330415273900215
S 11.766792586075946 13.634869231731393 16.131465851697357
S 10.129837746760934 10.743379264391026 17.113802877131743
S 11.061305475254475 12.414723618446672 17.737841231256137
