49
Energy = -187.35137791 eV
S 9.583167588025066 7.7256341288115715 5.008179931347711
S 13.997174233192522 11.805982751239323 6.47406545104466
S 9.505548392534132 9.635019640832985 5.375682302594172
S 11.012093232738497 10.263812041692175 6.684171307415021
S 12.989056702869496 13.999865152496948 6.702476185626544
S 6.349746797530709 7.045056214529316 6.698814544289991
S 15.417644047092406 10.902113460545525 7.585615717890659
S 7.347080279457191 12.041830848725775 8.12507643661594
S 10.024387044257935 6.406271804499363 8.07189916766628
S 12.087334341263238 7.7352115367954575 8.778898854672768
S 11.055656999308168 14.074784823819126 6.824893646729867
S 14.896778923781522 8.79405334420092 8.140342843260347
S 7.619534447203062 14.022422856348234 7.855398006695727
S 4.967826928125243 7.284997821780784 8.35028187225498
S 5.318233905610547 11.802631586469511 8.661038734156472
S 14.435268707536721 15.117429276249778 9.736043101677764
S 7.440927966186418 5.484796291850357 6.87891179757524
S 10.257997580190303 4.973814276058978 9.39305575641541
S 12.351131941090044 11.802377790315147 9.606212288984098
S 9.993178893719104 10.732702603815488 8.695171686393106
S 15.15155178842664 13.154844467546148 10.334402384691758
S 6.786121939303142 8.698645712547512 10.998318552222988
S 9.65354567004062 9.3135817083571 9.877343860247136
S 6.096204958146421 7.00561088287834 10.040152261405494
S 9.071346403366906 5.525442933899928 11.00457117923542
S 7.145768060390212 14.772419736596179 9.869909801518487
S 10.722038228710785 13.023307600159125 11.432169151813513
S 11.042337576179996 14.945100079595745 10.08644525689398
S 12.730734590985245 15.667332832894733 10.823578715410848
S 12.84228591997874 10.100199333302799 10.274001716455063
S 12.854426781394507 6.7832823335773575 10.225466439135046
S 15.771502068733419 8.206730392532206 9.764583624722965
S 10.659822725596303 6.548258310674684 12.375907396108232
S 5.52241797335335 12.110387063267735 10.774681328970075
S 5.621999811039678 8.5558607114906 12.821120601494547
S 7.316846312672758 13.09389462600328 10.936554005861309
S 9.045584713105015 9.482801541145413 13.161506911360815
S 15.806534173940673 13.075460206357597 12.170131100884417
S 12.354005945900127 13.042754586284934 12.579470040726797
S 14.841746526578618 9.239355417589174 12.26193277320438
S 11.715229416497856 5.198365981493111 13.277111793788542
S 5.3749285241380145 10.48630831308527 13.53034414142967
S 8.9468947070192 7.61005958593182 13.737935528966728
S 13.380300262785397 8.22545779601122 13.022456242893332
S 9.584349666374273 13.50883347705003 14.184841338584638
S 6.5648075678030455 10.921905714191844 14.998731442833895
S 11.466769050674452 13.687471012870162 14.549886965417304
S 9.959185830850252 10.724562483337449 14.90132129243323
S 9.498642180309595 9.818655234258634 16.516592843990068
