49
Energy = -192.70609564 eV
S 13.461892668876429 6.8132448041671365 12.356000318238488
S 10.230241404285792 2.735891470048211 11.136044585252694
S 8.947500385827345 15.12428015073489 8.405276501467435
S 11.50004866906358 4.67007515352582 8.686462450803623
S 11.49490349569905 6.809480630097545 11.873083163772037
S 9.247337275621883 4.322448904139703 12.058595852669546
S 13.552731231419813 14.238428235632018 11.781812150273666
S 6.354575685330433 13.543465238128347 11.66297725241495
S 5.3813648521230055 12.997021668706413 8.727686959818618
S 9.17391355408486 8.055500808984862 8.391985676824472
S 8.889687125129308 7.3241452159900176 4.825967554127176
S 11.617010250653257 10.428320929663753 10.417250824687926
S 14.495568234058863 12.396680236038824 12.500900207121008
S 15.113416032043887 12.306599435612446 8.551949963388768
S 5.674246374548438 6.8853214179858195 12.018484458205236
S 15.540289751792532 6.153767136284578 9.776034487335576
S 10.773562663927505 9.001944100599093 7.579453600652865
S 7.57904671820194 11.822805191138329 4.5922637764835335
S 4.091992862099213 8.35544284328768 9.622855858898241
S 4.039462940851896 9.38392449836955 11.225043883695822
S 13.29296675166721 11.769904784288423 13.840181945154587
S 8.385867858532523 15.902421073310853 10.182254297379275
S 7.766905717104659 8.236868305546471 14.853780203124733
S 10.82847016870595 11.970689190567198 9.531107297035197
S 9.485263977872842 11.738858211530241 4.855503804797042
S 5.770211340016565 16.2411562721212 7.901795889608777
S 4.374671849573917 14.535402261209237 9.188080186492774
S 14.582864661446788 5.171468762958373 7.767437605667104
S 6.18919857438425 6.626086726263945 6.5753093919372745
S 10.387580916256445 13.317384055816166 5.4966208312333364
S 8.948280867222143 11.235099157739512 14.876016261355248
S 13.359312140288655 3.6712924983241493 8.694507359617077
S 14.661710134563748 5.352195048601998 11.356516352637447
S 10.222210362270548 3.1579123256129327 9.09444137088822
S 4.952379459379807 14.891049721928807 11.529093061371917
S 10.277667242119948 9.971866914071883 15.390107835729145
S 13.521001802362656 6.4528541813855735 6.798889206530281
S 14.325399128185271 10.453404695533333 5.935374616960554
S 10.570980245730834 5.403912757449367 13.164120635323645
S 5.246965901911685 6.580310828850974 10.18530401451207
S 6.998755443908598 7.573897922510305 5.0996796083407405
S 8.620188164050202 11.316912709873737 9.125916706793154
S 8.302844762593825 14.485768884018071 11.651881454346478
S 12.316764580740507 8.993942762414333 8.905987543137407
S 8.488235866660284 9.532523352937671 9.884211828378309
S 7.045061918772183 14.97576055098735 7.21432789479584
S 7.179488531097139 10.014029600630238 14.497884760241476
S 11.9673568157422 14.369407040122258 12.830994501334333
S 14.232274515367052 12.148484795302108 6.842215883311546
