5
Energy = -18.85409019 eV
S 9.127311883422717 8.312423685719198 8.631024572373164
S 7.8783982779853226 6.559940502810849 8.423231569230918
S 7.5461246827126605 5.875020467486897 10.194190193852736
S 8.846349501778423 9.361536520899318 6.831733280814436
S 7.683910566127893 10.894471844666317 7.089138789322767
