5
Energy = -18.75500861 eV
S 9.851594277418823 9.137556101817264 8.0607425330967
S 8.232099707032678 9.279179648191072 9.08962995958465
S 8.1031203348641 6.042119508659856 6.316681841841129
S 6.493146960853488 6.633404395873547 7.1890065618201024
S 6.537629352098312 8.155937392071616 8.614660648454361
