5
Energy = -17.88568123 eV
S 10.05891596793417 9.665923031351554 14.461469132710763
S 11.492055537454588 9.506372867029304 7.564801276002294
S 10.229582741703393 11.458013882356749 13.423257201891134
S 9.997283071473385 9.838060562569519 6.438994749483117
S 9.178413816746572 9.871163441499709 12.589646832373548
