5
Energy = -19.07427303 eV
S 8.712745154613092 7.86371147733913 4.969994245464233
S 7.709684527985179 6.072878720785636 7.698253680105878
S 7.590917248801337 7.846813778671908 6.529259740009829
S 5.766483935727873 5.964428696058857 6.847274955291795
S 4.313396901268391 6.059188441393193 8.0888763915124
