50
Energy = -197.59302436 eV
S 7.507024286370086 9.093524010798795 2.79556035646245
S 9.065249374200341 4.921844125657882 3.2964521351270615
S 9.436638271480671 8.924013886310398 3.456863120742736
S 10.421124342880624 10.720016802105368 2.9600092331055783
S 11.470532104056867 11.369106681274273 4.6007128316346275
S 4.261210688059506 6.199333225615476 4.618836236196109
S 3.909963001272273 4.342616369673719 4.332570290236157
S 5.638995829103067 11.65212465030952 3.83832514842557
S 7.873853446108406 4.046313905158564 4.538717489759472
S 6.160474308123739 9.69486113586597 4.269661860688131
S 13.502592682367082 5.36609813359882 4.774822077180329
S 11.960272474368052 4.256481165730391 5.501598459067751
S 10.264166063387146 12.426588683017597 5.873988872214316
S 2.8219594280143965 11.16103108372766 6.499532108715944
S 2.078682616569711 5.551682448581232 8.045507105911614
S 13.25913901973628 7.424301467619404 5.125013237122092
S 14.441381311405364 7.9787630980541735 6.66414240964513
S 4.139180814109279 4.933629181066632 7.630294703304086
S 8.579667754658894 2.6419743391527275 5.661237687115664
S 5.504874012495654 13.606419400477874 6.653708969601402
S 3.1122733952380184 9.396469714662333 5.80427999433438
S 3.9452751226908687 3.3839148514984645 6.457786575730121
S 6.696534201136907 12.894929257833704 5.102482337983786
S 9.88734297481913 2.5743987802905384 8.797124096012563
S 12.589708324308448 3.6176268919536025 7.435689021659795
S 12.938758831017907 8.249613665841732 8.316746323572806
S 5.586681931226359 3.3620678711005403 11.008344152454839
S 3.6828667484301 11.401917677852694 8.675832478823219
S 2.281099775597304 7.40184088127867 8.82243400502689
S 9.829033924123175 10.98696250230774 7.421605079248329
S 13.664509336540872 8.089894038596485 10.08463495486327
S 10.265413847868537 11.828630445860318 9.14407096284783
S 8.364271066148076 8.197378138947476 9.682978286570899
S 2.4399019919090685 12.652519324398183 9.441310497061563
S 5.684794451792047 12.424595540787493 8.287833377091683
S 13.047503363992742 10.572629015954217 7.794853830617399
S 1.9844208446231089 7.375565731853689 10.900450017581786
S 7.46076483262558 10.618609312279725 11.649519323495742
S 6.88381239054421 3.8743166953470745 9.57141722956767
S 3.72756203262335 7.512133618444852 11.969329347864226
S 8.692330060352742 7.408689218309213 11.40469603041406
S 10.696688585874584 6.747941230527285 11.5796277540402
S 11.254859598638934 4.301625819267363 8.759569426377901
S 5.783565876270623 4.810915300613857 12.568543052504179
S 5.5475782947716 10.94142580984094 11.665780524829623
S 12.516349183980545 11.496998671732106 9.407571521932518
S 8.675961873632845 2.8392712152245365 10.329101156279174
S 3.9919106218231684 5.669627147915856 12.960104512889128
S 8.187571306465022 9.657319647349734 13.180443373235383
S 11.016956549914742 6.132731356080942 13.371569590582519
