51
Energy = -203.13151582 eV
S 8.373878736007457 6.327941490554605 13.09716340667632
S 7.4753199063577735 10.841273774494228 6.323011650735768
S 11.644347683074907 15.584682485777536 9.919004495943453
S 12.715962263147576 10.605496842433471 3.3863649263231697
S 15.05195340767882 11.20661069697036 9.913425289753777
S 6.507094612876835 11.144072216803952 14.094796605968465
S 5.478593661536519 8.747187549466224 11.847942715127473
S 12.831919995110704 8.939543462299794 8.688200661130324
S 9.51778485073732 11.388142582936483 10.181540111411508
S 12.813033171730254 7.241013010299709 11.660146398168271
S 8.361906331750355 14.614958134471225 9.53488580870921
S 12.40443244577875 10.834581210757053 8.415214557178334
S 6.217563204076989 5.137184919420873 8.504290137934255
S 9.687881440583922 7.566469087901787 7.932651749917685
S 12.045791503132547 14.558646235617973 13.170422039283862
S 6.564095009313758 5.304052865017142 12.765413206508455
S 11.990816306698042 5.088852383691779 7.875164980990887
S 5.153838877645998 14.882185244053 10.534514026458105
S 8.099802375922119 12.432848254333017 5.1345219592628695
S 10.108166565446515 12.813191407304746 5.367526013444322
S 14.520719338324144 8.60529696511038 5.1537463515237345
S 10.597420488587598 14.668759015086708 6.324479970531226
S 7.719003285744659 4.484156033715896 9.740932203938064
S 11.91791023942161 14.44535580042312 7.800591852794642
S 11.294879770137145 11.783347286283222 14.93047439332902
S 4.4687573285660545 12.95568209889171 10.03090473214164
S 11.93209153004491 4.457932288285603 9.92662149359339
S 8.510010219795904 12.650677618657529 8.884458411282356
S 13.717976915282003 11.557273949561294 4.703276424685426
S 4.094363129535565 11.87949044089324 11.677207414409272
S 13.499137272016892 15.584142036225353 10.382595223795503
S 13.450186619362956 5.288929638155594 10.92417715354803
S 7.09114978587638 14.723369926443372 11.170863988980207
S 8.157955421679684 12.21114501914432 14.00703799918243
S 5.983289595779972 10.599189587856124 11.876339707752248
S 13.286440335355033 8.519644521164743 3.708042335764787
S 7.339726452145212 7.4295856796688255 16.001854482843196
S 5.8977677850882015 3.5196553901876455 7.119637252797411
S 9.990221886073845 8.70715001944683 6.231518949347251
S 9.781795276648023 10.757824503081583 14.067954103241345
S 10.066616446412375 5.583119830046329 7.4213786792964855
S 11.55214249234564 11.658586225215933 10.176478508519518
S 8.135599773822793 9.105160114298117 5.4148170056456735
S 9.500532961028984 5.3673219706227675 14.418934454370659
S 6.988548851806859 3.717435469162692 11.517620003797067
S 10.560930026785284 14.708917283357906 11.857191031395727
S 12.55919934372248 12.543754028650039 13.459064857243316
S 14.999163022019395 9.30630105272321 9.715190359854143
S 14.47452867436804 8.297929421109078 11.773315287098601
S 8.764597323999109 6.217156696587784 16.401923481885834
S 6.667672129893882 3.9712923056157825 5.399650388511043
