52
Energy = -201.70499827 eV
S 10.181299210303457 8.46716271102098 8.148157524780322
S 11.688820049067578 15.034180287229757 17.705661429296583
S 8.712930139133164 10.071782859514549 17.578225360826224
S 15.761642570279054 10.363311938846598 11.596162242092559
S 11.700074712086685 8.311492144255936 17.775603783786007
S 13.53956711279455 8.453624175472312 7.8780373503806045
S 14.659978117468969 13.217721665550533 18.088614367372276
S 11.923074323149239 11.829118021610903 8.853641805210007
S 13.312040784558329 10.628319514960722 5.105938659148038
S 16.948247869961662 12.192809048961903 11.590654782491518
S 15.415569158124896 11.606903439502693 7.770338303926367
S 15.015538014017569 13.385078276765654 6.965357676788432
S 8.71212591272732 13.46688561424963 17.08487196577429
S 15.342443382554174 14.662427993872873 13.098397521774055
S 6.207519459133158 12.117346149359765 11.554653128264475
S 12.13568682354255 6.459430956043934 11.233303836201186
S 12.845044297894807 10.77693577063197 13.520762498857435
S 11.486094295314203 10.318675970109195 10.244923490490933
S 8.367284127013745 10.018127807496883 11.862875704119578
S 10.838514939951535 11.061975681952932 14.030995183041034
S 13.327842211080894 8.728226030536208 16.538752183274525
S 14.743049787198123 9.821708722776101 17.569240283351387
S 7.205994588077871 8.724221575333313 13.012961893206501
S 11.780514502930355 14.87271494125703 6.418765398612332
S 13.569940241832457 14.401907527249145 7.960185237023043
S 11.7935715517636 7.881813817013309 7.079911511115437
S 8.487616111402252 14.290227494455198 12.748938340086283
S 10.192867774754271 13.61114157652031 12.089885557383575
S 15.21313636649386 11.686621450780141 16.798997698020443
S 13.615171314888778 14.67774173597028 17.05429137258311
S 9.837572042841431 10.444934992910163 5.231700195442428
S 14.583686133435036 9.895688642553928 6.311675928579486
S 8.324049604000846 11.805854141861799 8.098744519600983
S 12.31994536680992 16.161647325234412 13.086602514718862
S 8.862526011036659 9.93722858769404 6.779752367087115
S 11.077797892099195 15.782876324623095 11.256406663691008
S 8.879871836218713 7.988290331488626 12.013241055471466
S 12.33755319940778 12.151154847187657 15.001267200131332
S 14.289346660839872 16.34278450218059 12.615198468119466
S 15.793924026192363 13.77179169100788 11.166295370448063
S 9.88106319561409 14.756107530987729 7.80471841464041
S 8.60927442139104 13.454913067392578 6.966451074069817
S 10.2649963486034 14.5571652441797 16.255922111387832
S 9.918916585042235 8.59788913268586 16.78402737822603
S 11.9614965639028 7.929359135769883 12.701866043578423
S 8.380083955764787 11.622201217022427 16.219583760840525
S 15.6569864341699 9.620851915198877 13.41062542915849
S 13.856053392176836 7.403246069527554 12.001180604256643
S 6.9527340831951125 13.881953640447556 11.211943523121086
S 11.648520751525123 13.568209597482776 5.048530829436625
S 9.53492837369586 16.908638785688314 11.443463521614126
S 12.759178961744684 11.887272301001993 10.768058430201767
