53
Energy = -210.21606557 eV
S 14.247406753375028 7.1788621687403555 7.295158776891897
S 13.370741898130646 4.39861193759545 9.137993195995206
S 7.137394614896388 10.777539548076001 15.823897254071493
S 7.153561361050375 10.362306187696925 5.669063605786338
S 9.407547881107606 9.184224312757092 12.743030203237838
S 11.623666425927635 12.74048193522871 15.491036952205631
S 17.0670572643126 8.22280901435155 8.7269483467156
S 16.355235542616477 6.949546031667341 7.3017642148607855
S 6.424316550266779 5.6962687685663 11.26250812692279
S 3.898227595819991 9.942034384546822 10.312027197908924
S 11.246186823144443 14.959842900737254 11.924357250480947
S 6.499272864228918 15.523241434910135 9.545897836490143
S 13.815143508545999 11.889068117177676 10.83777406677869
S 16.308005505270945 10.444332547764784 14.074450278312884
S 13.709055223594499 8.977072324910731 12.44785866112681
S 9.321778906554934 8.688331048982473 10.648810318794254
S 13.391646634703266 10.955853948529409 12.612162023306112
S 11.831668092691563 5.151139516215401 13.135830353872073
S 13.627974874704018 5.081440116690592 13.816079096866517
S 10.547978110433874 16.05341455251517 8.34589390233441
S 9.836901638200128 12.50781814246974 14.80198350555475
S 16.11514178033743 11.207878126151632 7.543758122765405
S 4.813539693065663 11.00621247914931 8.953947621920001
S 8.600872946144094 11.998026234376924 16.522352844685297
S 12.732851078492908 15.525426380734489 10.8299568080256
S 8.223382706185063 8.851988488139776 4.687496733057586
S 5.412233286444536 6.973581163705895 10.236321065994032
S 5.8239094672803535 7.442904201573383 6.18257817668467
S 11.36826625467308 11.062615531068479 8.015874905861091
S 11.172633674798423 15.516018098521283 6.435636027760228
S 6.55045801281207 14.865014462521899 7.733066727216655
S 5.311660752502678 9.562852544703837 5.7243556545633165
S 7.8195373160880495 7.582467933997767 6.317134811012954
S 8.609955270598308 10.40190243547576 9.842349472630982
S 5.114223773898526 14.247570500735934 13.404957224032318
S 10.905159042287957 6.778473072274267 14.429364827304171
S 15.953080925918051 12.092287502850526 10.831412861524464
S 10.24203804069707 11.70302040329826 9.622641647390818
S 4.863930599517402 12.2388828170254 13.75806857654713
S 5.206440839762874 8.777000784406704 11.438337246282138
S 9.105138491309768 7.437024502695216 13.765312893064918
S 7.1836853138507735 13.88796066631536 10.798513264974803
S 12.08155710793617 16.955692738328572 9.349913579548483
S 11.634897249864924 6.326942206186377 11.223596436297
S 12.22429638816902 13.75827518285617 6.338672582922439
S 16.317230865699617 12.747456122445172 8.962263294388265
S 5.322894567667789 11.793516680957591 15.724281066826135
S 17.70454926958587 9.920192580271918 7.699616588196538
S 7.055258631233098 14.581342296332314 12.693639746036466
S 13.519308767896325 5.271425580776943 7.263697293581792
S 15.725168844809007 8.738322712808522 13.436910662168392
S 11.465701160796478 4.839833585759141 9.87026113677525
S 10.91167486296318 12.13520857504282 6.32072204993891
