54
Energy = -214.75519343 eV
S 13.346393804152042 9.492204645692688 4.707012013626656
S 14.129811361358627 10.662291463487543 3.387098089406172
S 9.930274839739832 12.427954776174866 4.510159478968668
S 8.396702144306895 8.449801279460297 5.366278753875032
S 8.129096084092284 11.835805750405562 5.406335318864664
S 8.236874784077632 10.146393467931077 6.556189796809819
S 14.498257230639354 12.482130037707622 3.896032786342948
S 11.422808445240236 12.949777895620633 5.775647820774194
S 10.309780548180159 7.699947742766352 5.6911081282844505
S 13.271101703480563 8.662981969515913 8.354572176011605
S 10.440259266957108 10.617085488461784 9.339946736738867
S 4.676272485603196 11.398636341230315 10.193289231918811
S 4.863351565783688 9.62276023066976 9.234037211397457
S 10.939936241470312 14.850330545922043 6.644629756717175
S 13.697586032116405 7.300701187038377 9.666803953115643
S 15.471065956659576 13.201930097543725 7.463304975742635
S 5.955388309316608 12.84446139180521 9.315293872436428
S 12.355357744722847 10.705109017173367 9.365540481499728
S 17.089755580540327 13.111668086137929 8.770192356969748
S 14.539879634744784 15.065085912350078 7.612865532554839
S 10.13223228583319 6.209219294609398 7.070132825979219
S 11.271888634027679 14.5025257000475 8.593837626855708
S 6.333517737893557 8.358517282062985 10.111757643880718
S 13.058958560928343 10.394988553986789 11.449284822447261
S 13.19434526029461 15.335751819406099 9.097516765335746
S 11.82560208508779 6.071831721224941 9.95494589797095
S 10.370565289261863 7.03823090393812 9.03805112152919
S 7.4004489611910165 13.378435858915731 10.616793539859895
S 8.86559010778326 16.853668813004766 12.378296946834652
S 16.783964279303486 11.434072089820361 9.92244600862955
S 16.085674981810673 11.868127263185876 11.809467876424524
S 5.66377485005793 7.6903801838404355 11.857926988546037
S 14.01912284692907 12.149787559623391 11.758694414945317
S 7.974751265465175 10.13451674036518 12.301233736380834
S 13.454632399562987 6.551071224111188 14.435865318807384
S 6.384231899098539 14.896910713039095 11.807231785746172
S 8.590001266593775 15.967315908716305 14.046262482734141
S 12.94157714235485 14.060652294999821 15.437304362912462
S 11.925759915637265 7.870237748392814 14.770221103902625
S 14.708933812199842 13.947619868181276 16.709009121231286
S 15.113949839761368 6.779382041086859 15.40526865046833
S 6.766637301098594 9.0605896662479 13.320867969427068
S 15.98140295985292 12.760644109678095 15.815598201066612
S 6.763441003083444 14.553408514227291 13.697221752166087
S 12.76203469736948 10.014662335191812 14.869116478718295
S 11.485015829892944 14.7412450585989 16.67745013571922
S 12.258716340197196 10.784776170831195 16.567732054645663
S 10.711333084615266 7.917571855322033 16.85786241943065
S 9.039032556395055 8.955448896279934 16.508542127794854
S 8.908236792094215 12.468230002243683 17.137681089079663
S 10.633366503556068 13.374468945605585 17.982601631289473
S 15.58545647213589 10.60628933308392 16.614065128948
S 14.130636947720689 10.799727102612131 17.873101918007446
S 8.804520588782733 10.571945361476724 17.87957984128226
