54
Energy = -216.34901074 eV
S 11.937895169596594 9.022401956837168 4.989577625097329
S 14.693383687878462 10.05749749308516 6.6510775944933505
S 10.69312439724635 7.66682350318319 5.682568010746308
S 12.022812361946844 5.813864594813033 5.948010425686244
S 9.893518930178983 12.280982235147508 6.959126659691531
S 6.347491441130784 7.6502708078306725 7.286592411140367
S 13.777689874916772 6.329994357853635 5.391606959759367
S 8.37514869340483 13.203026459994181 7.777159546746206
S 15.138742231109324 11.97448399630543 5.693703994241372
S 12.689703445218026 10.078830677687268 6.736826391602294
S 11.388693733979132 13.939226655776311 6.458693774858701
S 4.447979076575841 11.533047769845993 6.981302011216047
S 6.933480983500112 13.713779487393369 6.216332746070193
S 10.446370631234785 15.60010298355706 6.9700415143088845
S 8.051589758209746 6.952354236193882 10.128140702317129
S 5.079572072914886 10.441026409644577 8.595488866928005
S 6.629060211837984 6.265453411739505 9.043665204374431
S 16.584461022211606 12.8237677572397 6.644169673109687
S 6.5635203488382325 12.412208713926896 12.310208284313225
S 8.567094297060398 12.85807103942584 12.18124826608979
S 5.180823948264006 13.480909218557713 7.196783006389104
S 15.98979139557019 7.196897118051894 10.663147695641454
S 13.386631242426702 10.195994094583623 10.30072232145006
S 6.844714841449245 9.45789612185661 7.971584257160994
S 8.898239423427334 14.889855498949505 12.05760120600288
S 17.460289601480575 7.967248192888423 11.942821718037996
S 10.534205903904915 15.930188446976977 9.067075724916299
S 17.270886242752358 10.00093951232165 11.864550465834476
S 13.449352550449774 11.316129654470132 11.901273787535022
S 11.142416822570613 9.227030299219834 10.75664064123491
S 11.587450915306038 7.047575628806377 10.961609144137668
S 5.917013242292434 12.801971148230038 14.272888035550288
S 12.242757639017443 16.98624163917785 9.439990530714766
S 13.734628076575937 15.648927439093843 10.049892837991234
S 9.089928683434982 15.590138550912151 14.009650347407343
S 4.79551046844731 7.3332111505282285 10.937631434311012
S 14.690802733276225 5.977374869262435 11.657382789751347
S 10.796879126866104 10.007500749002599 12.471807474086011
S 6.321806128949261 7.983694578044228 11.89235265478902
S 16.29428807000332 10.736525959064288 13.555129777595367
S 6.897222740100375 11.709938172914432 15.655532781097328
S 10.692221653711847 14.660316542245598 14.898480360429451
S 12.941394658985718 6.841979055062191 12.444859925976846
S 14.331328154055768 16.16043918086452 11.952123785893598
S 14.329630709575044 10.183499218085787 13.467647993504743
S 14.1532277547033 7.6058792189195925 16.429160397957713
S 6.914926971446078 6.536543501555166 13.471835261056297
S 13.762860210493976 14.841505843743333 13.449861530183016
S 12.448480211121826 15.748969569186185 14.773367273712145
S 8.21794358162008 7.6728773788201945 14.495565470505872
S 5.876490343885287 9.83096428857161 15.809051445533866
S 7.266918059490969 8.436585039274213 16.231843902715095
S 12.808159968215357 8.671793676165636 17.308076037599257
S 13.247666787839826 10.483466127811152 17.774738551206493
