54
Energy = -215.38081513 eV
S 11.021634758894118 9.450018162081703 4.392309356348043
S 12.660660099642582 11.2434723376087 3.7713329706484497
S 8.48293004661703 14.759416232611377 6.211097993620056
S 9.179549404522856 10.719041876342965 4.802137001357619
S 13.889330973387665 10.878619148684843 5.237733311275157
S 10.211389242338399 13.579064261325193 6.152381251974724
S 11.814484159073585 8.868586495127918 6.026542562285719
S 8.445578165566237 15.736607221597618 7.972087467946944
S 13.257926141333634 11.939676936815188 6.994929340214423
S 4.593532365978496 11.055738079484986 9.454972717034874
S 16.136900345643596 7.3534676629380735 8.325626754485393
S 7.534969776001937 14.298185608349813 9.320901001178044
S 9.511180622962646 11.638343133059873 6.543172621435151
S 12.559196376894315 15.954827315194208 9.6475420478027
S 9.54025743614833 4.760525164827543 10.122180320298558
S 14.18066490074187 7.2706215557811475 8.872230953618821
S 13.692482600887189 9.067012924374476 9.68407826015636
S 5.79419984504009 10.993201181722474 10.958190295906466
S 17.130693502710326 7.274311836736212 10.323837804339515
S 10.496288088526347 11.621338419858949 12.06387214219101
S 7.682615868132498 4.8964025208542905 10.526548788405572
S 14.295893454887965 13.685929916850455 7.162238428139727
S 16.049583587548852 13.359036084777374 8.246129314501607
S 12.982383337809926 14.646161640543912 11.194426288820472
S 11.05412846488818 11.613838818202167 14.108959778736777
S 7.082680342310821 15.330472394129698 10.977770540285137
S 12.206940135064688 17.803538222257917 10.506741882397383
S 4.692025147748837 10.054337836822342 12.635299739112313
S 10.532328355862909 4.39970118568048 12.256727198784727
S 14.608458190142665 8.870184959941437 11.709866298071084
S 15.040664611502715 14.472815051306334 11.291683375057197
S 15.517625565165057 7.058042580215431 11.535703919218598
S 15.53600170628143 12.810683939432698 10.162606479287845
S 10.162783296150897 18.082611883890312 10.52148613354833
S 9.4380365512405 11.378339441323083 15.258488984101131
S 15.386757411544796 7.687114449457586 15.382176292557537
S 8.97733418702052 4.466517616196679 13.399126338137933
S 10.446209469013489 8.254996503470899 11.680246980231972
S 15.987778594202732 13.736793942183713 15.444511148940844
S 16.063914115019013 11.572022503057212 14.834799501831972
S 9.319254739246709 9.97398093746419 11.746410696779984
S 8.828161365917483 15.445858923578161 12.172073476999168
S 15.151291283083848 8.11322004506586 17.23674108313524
S 9.313684551271866 17.440788345400538 12.294196547384665
S 8.606842653541106 13.443303856901279 15.756019267505934
S 14.311568306013681 10.853899991167847 15.5253192854815
S 14.420891104151936 14.049677448600251 16.50198338486037
S 8.735961285630664 6.633181247189757 14.06271912806115
S 5.932568511717999 10.128948560758747 14.177926586852388
S 10.472210048852414 7.497888843278411 13.65377057546012
S 5.466289600271045 12.098504139918036 15.056401791921667
S 6.703231459840888 12.35875494052214 16.565179350121255
S 14.506685438438625 10.25774858275833 17.442964811113967
S 9.512545923089197 14.221804607795175 17.25477794555278
