54
Energy = -214.61756907 eV
S 14.359968646406442 15.566680433824288 5.364444415120814
S 10.005073882263886 11.968772103222019 5.2721304504257
S 8.08816517860401 14.965781428420211 6.4538173243274555
S 11.679338780214271 12.72950693144525 4.664829555653811
S 9.370397604659791 16.25366547534932 5.881525600562643
S 13.182873284882742 11.310819119978166 5.378860544934619
S 15.072591045156699 15.102967564185157 7.082803048244654
S 14.226261699697227 8.302635247574091 7.427006286898982
S 9.646217951824095 8.255643123081011 8.337596986743664
S 9.833781839692007 13.322463009499954 7.388168777513878
S 9.493481365411604 17.642319352780166 7.8619982102555115
S 15.00886538158531 12.225471384882253 5.31651414023421
S 11.359057630633925 14.419595213429014 7.136347922964944
S 15.365022674514918 6.812896826383596 7.872441861112517
S 13.901519850755186 9.885320033060989 10.708817792493882
S 10.410247176652993 7.065225470559056 7.051826633927101
S 15.524717242658712 12.909414500040725 7.1427437241945135
S 8.274281037922657 7.040307254589483 9.690500633902502
S 9.82019015385898 4.044302163025072 9.532562885554118
S 15.05542329532156 10.600731649078154 12.252468145540536
S 8.26779918355408 16.744685834554094 9.009707710416686
S 8.254333683689207 5.253830273055645 8.819288063017634
S 4.299941461274547 14.522269033757809 11.57067363969476
S 14.814284421127795 5.649562720901065 9.307897528607535
S 4.497820451761235 12.70511068857555 10.696548901043702
S 9.414948925726101 11.535038804805092 10.89218657364196
S 9.449404930183592 13.610256904572994 11.236398173699037
S 13.04567952132086 16.084867169478965 10.470522717348056
S 6.414248739021574 10.100691112514367 11.468847897250766
S 4.847658184266134 11.221425833355488 12.166053863833376
S 9.01580758421817 2.883732667955183 11.035354228234565
S 6.239446793831265 15.257893834428073 11.957466730964471
S 12.713313443110419 14.260770641423187 10.963033630102382
S 6.1672647684075645 13.914696677352822 15.074105324950487
S 13.992087153524361 12.052610454036827 13.314958588112429
S 17.748659132727937 8.476971419213342 15.723804097109063
S 13.359621244825215 6.940401390644247 12.180657137505662
S 7.937406901875814 12.92730540190964 15.126298455838537
S 12.427208647619015 8.63055247736755 11.461457315607959
S 6.278736921811958 15.676634078325147 13.962181191927366
S 9.68384385095981 3.517364763744314 12.878640727539596
S 10.990519672399149 14.048049749365603 12.446933120893874
S 14.311129051284496 13.86337862526987 12.496479475254311
S 16.82152765194532 10.13332787874551 16.043884327460887
S 8.25396884775781 10.596836226326353 12.309978898463326
S 13.471843311293206 7.226841224217584 14.238844387582716
S 8.975893576866182 13.664472665949948 16.884136159225623
S 13.97746337971297 11.426457891825592 17.206800710574292
S 14.912933970828671 9.771665983957437 16.895845136526695
S 8.325009249951423 4.862736652115805 13.689590461492038
S 9.147721025481248 6.743842781008341 13.473744369797103
S 10.215063119059584 7.130480048906763 15.208057941324498
S 10.400078262105541 12.400778922928525 17.20986254205052
S 11.994370610852906 6.084454280095746 15.106868429393224
