54
Energy = -216.7819137 eV
S 8.954686680303386 4.443099792565684 6.921574412927955
S 10.449389698482271 9.538014570382693 8.842136644743883
S 12.749607490758915 11.979239477249065 14.961073608616665
S 8.070064576775978 15.41627819101577 12.268735668832319
S 4.958857972849873 8.172787297375443 8.73438255634046
S 4.4154234909494 10.931785790594393 10.775818389693136
S 15.3947729542381 6.772980820977407 14.297754644550842
S 10.16903497723522 6.600036560456701 13.806518562563571
S 11.035904534640727 16.256455739434276 8.016314373364164
S 15.714797553736018 8.176737636848769 7.698014869293367
S 15.4538810360117 11.34326734538308 7.63124583231863
S 8.212745859144814 12.101210182137805 15.215796230460253
S 5.449240488867841 13.890053732555694 6.30177983066792
S 16.63208658093824 10.085691831019119 8.46632690120094
S 3.6397359193299095 9.192070325547878 9.929091928009768
S 12.203251942526368 14.369830871375505 5.44940844354801
S 12.35247170609133 12.333838123798735 5.736002692333996
S 8.16513909727546 12.098752807419963 13.098862364615549
S 9.673726450315824 3.55104773163295 8.703207063177292
S 11.378836905342535 5.969416580018197 12.167464534064571
S 11.836156563406965 5.261494379470284 5.440815417171396
S 14.441461742445526 11.23389839912659 10.748321043823882
S 10.264066795462453 6.2397411549684065 10.503797417782105
S 5.063272477756171 8.848731954269018 14.549975615863868
S 12.938344768650081 9.79594802470114 11.081925936760031
S 6.325213768589335 11.654522170285963 15.889093497200307
S 10.016740569731292 6.075400519246796 6.544706706375912
S 16.81242531321968 6.5543531047449415 8.161101484741996
S 6.946814361733808 13.511373238594587 12.412447459617152
S 6.215788574894112 7.310236564468692 13.814528072884093
S 9.336757251111283 8.368720184690797 13.276363994564262
S 13.336179337972558 13.528968221676209 14.031000600994455
S 3.6186086886106406 13.514457105131044 7.1514913293297555
S 7.521421928713709 7.906511113610587 12.337125626421214
S 10.48011156016817 11.548773796530554 6.121049269153491
S 10.000377773589015 14.988502528536964 12.317405895553632
S 16.174991802300248 10.27346398373646 10.780955428298721
S 10.2252864837476 11.476634732063037 8.1804000365818
S 3.862574790340218 13.950374933327247 9.196500839082757
S 15.786979577824527 5.361575118828319 9.578578060929551
S 6.801337871777777 12.386061223924326 6.5888088413950685
S 9.74101095620846 14.863507895718524 8.891741833762444
S 12.678907402566706 15.29653587452621 7.2540872610394675
S 12.410986170033668 9.037147307607329 9.232623921131486
S 6.022462303668458 9.64335295943837 16.22165627814294
S 8.895959039667114 4.66178904639066 10.225644826466397
S 11.676513690922462 3.3550320505257645 5.404791016967759
S 15.149465861045352 6.954294503477016 12.393056909309891
S 16.561757620160225 5.5945270044068 11.427073001209816
S 6.467180849809013 9.104065994643381 5.936996122129053
S 6.375880871100792 10.953028569889726 5.092737492941719
S 10.537231694844987 13.953285069780428 10.512081103747478
S 3.0576240996593635 12.429420854509166 10.285795343829918
S 4.645095109053167 8.44031859596633 6.692456350071392
