54
Energy = -214.30705315 eV
S 14.441507653022597 7.2982455513060795 9.750120093844156
S 10.497042031839475 14.493509867871188 5.331117270589921
S 11.455128262778583 5.646918624845513 5.932617722959286
S 6.540173474683746 11.204514092405296 4.768972254827466
S 2.49732665492606 7.4299166848762415 8.26215075075921
S 10.04551950307109 8.96868922304326 3.1062182783032553
S 5.050579472467575 4.713295492290075 10.80956147672314
S 8.060123272137345 13.682437696251963 11.955333798910447
S 10.58539245342887 3.881502088377362 9.995860063470051
S 1.952475247707661 10.63583811265693 7.657346924548289
S 4.972184264361036 6.208241079898953 13.8518863267879
S 3.9358140348262904 7.577688953871145 9.759168494435837
S 12.497405424129482 14.344944518224843 4.764230583425968
S 4.161681958398052 13.016532825609895 8.518322902794242
S 10.576362428213017 15.427909671822356 7.1222191715228345
S 9.134101629254518 2.4147981787775326 9.747460023020395
S 8.194771581771395 4.619991434363888 5.60891842852692
S 9.665534345778136 5.388994695466949 11.055661825634484
S 10.369511582104144 8.865366307676961 14.366804399649949
S 6.315094297522736 9.25398073122059 13.044828718628924
S 10.341349601595551 10.868113603131686 6.505989324934358
S 3.007078046251453 8.958953541941101 6.973948031781203
S 7.173173575705727 3.5407004250184673 7.2003575431877325
S 7.180973424074239 9.621228241988929 14.938771603470382
S 8.611426183497732 2.2018179378521165 7.778917709167012
S 10.139341258940846 10.805174888164535 10.042615078994855
S 8.497343237630343 8.148289782230576 15.24713180846425
S 13.153427456411073 11.331922067781415 11.580986777444844
S 11.90886931203943 6.670921340098824 7.570990235492154
S 14.000915069726664 5.971797384754819 8.334346839516918
S 9.831405721569228 9.104663489931193 7.139269044902359
S 11.53023780565249 7.337629454939341 14.976473212679156
S 11.449181271738016 13.710590687631644 9.98290639240867
S 6.1708422985270115 5.2628220630761 12.472724853420484
S 10.732685507391913 6.949490236451656 2.8728293961242954
S 15.330891167883715 9.032370765417618 8.529574184504634
S 7.520136019121209 11.472054145936566 6.80618214316467
S 6.873830086830333 5.5848558336063086 4.599953311868634
S 4.576411023151476 8.167787604383898 13.247970739129313
S 8.074184498153285 9.01240543290596 2.768360559505356
S 10.00231304785116 14.102342117722744 8.62798913509643
S 6.743548564077433 9.258289786333588 4.446778772537984
S 15.511923947687498 8.353979536487419 6.793391482738464
S 4.825168203063574 14.03045130805327 10.136471739964142
S 7.131361465668938 14.044418941617637 10.2762570437436
S 11.843498744061936 5.968186095054621 13.421684787373229
S 5.350320627899478 6.117722920297327 9.366344042778515
S 12.212779844753975 6.655965497915899 4.171592514318196
S 2.769246526082335 11.49246681553947 9.293938953690676
S 12.256133178392233 11.552378112216795 9.914823087747125
S 7.358266139697956 9.762002880058297 7.67684084767056
S 10.06373572498632 4.9668720233088655 13.030684124983383
S 10.278278802197612 8.959328708575992 9.405231540648039
S 13.328177780814737 12.634875234266538 5.1850583627336135
