54
Energy = -211.25411794 eV
S 10.622547762523737 6.621480741440259 15.114008709637153
S 12.5632227005583 17.326935728325058 9.883695343463245
S 14.61870123997387 4.040719115553912 12.547672700088054
S 13.847681596569016 14.484437190788592 10.929540567046613
S 13.748299948521895 6.926439810216202 11.076709348856683
S 14.64115188886887 11.525191009411957 6.282150155088429
S 17.234639326408512 12.914777518905439 7.732681825070108
S 12.134283642863924 9.087244393931435 4.793672217700559
S 12.145690252671798 6.013865995856167 11.672842420291376
S 6.72347269960363 14.975273368688004 14.737782850900707
S 6.1993375532974415 7.669924451941663 8.381087638153973
S 16.448523225714254 12.078731394883908 5.873585610448488
S 11.88609498984872 5.438587317667769 8.324028850880763
S 15.486775266704791 12.789361263460245 8.766265321871678
S 8.302409687557972 9.66931318625118 15.200958873160719
S 6.80445029373901 7.029110101825362 12.824941568755479
S 9.148026739043717 9.00801506919093 16.975566374104034
S 7.9951211797982955 13.635683529268299 5.3425970219413434
S 16.567966872991956 10.695412011572646 13.95432736146392
S 8.418141734748795 12.262532221517736 10.44515399837849
S 5.582224848248199 10.430859994752415 6.6521539318406475
S 12.4714137615295 13.131361705893818 14.296544079377629
S 9.397479295002622 6.972400958542125 16.794856909637716
S 5.978455977351507 13.42628417131802 13.576324221772643
S 6.250370481968539 10.120119536053009 11.724689139069454
S 7.570865256648825 14.230329298449611 10.664998373357788
S 12.099027202678812 9.798975394516624 8.108624924350016
S 10.536143808166996 17.128407621779242 10.675510351925817
S 11.932806125941898 11.306294150291755 9.312843124903928
S 12.707393245210143 9.286551196705236 14.595257445275484
S 10.380896858242819 6.796874984266501 7.655745608893118
S 6.843798625962717 11.059638167952603 10.005314045895423
S 8.599732798040664 14.455277054134463 15.367954633055788
S 12.515990138227856 7.206475584953318 15.399755109387115
S 11.170527930786758 9.59332070540548 13.33395128570382
S 12.29199633559732 14.005380838053858 15.984087562301664
S 9.730975783880872 13.763324908093349 6.683641684723244
S 4.916871412995488 8.929942428880091 7.66922056637862
S 10.18920419139102 15.616480141709504 6.599544256885623
S 5.784113468152764 14.06022858032073 11.600876420325314
S 9.77254914608422 10.797077482457581 14.348842688727569
S 10.444870241467838 8.441760304640587 8.805954621458847
S 7.76344992724975 15.433075917914008 4.764173369824899
S 16.939299184340044 13.645533576624484 11.768026187729346
S 12.928610025205787 15.40493511242572 9.350115036740847
S 17.018541308395545 8.839812061348477 13.900822605664208
S 10.020810439427349 15.366142948278897 14.096267908741396
S 15.469211633341464 5.578633164709141 11.786263347368758
S 7.360980854839133 8.284440036906263 11.479735696168165
S 10.818005412643606 13.973257615154607 12.92675901863478
S 11.228238090912136 10.297718309331666 5.981089565274516
S 11.395878826280173 4.636730657866549 10.084893281438777
S 15.997323249334942 14.414850417109621 10.288308518666787
S 10.112052206890752 18.65452681883308 11.757691816058404
