54
Energy = -211.38302518 eV
S 9.883371668113185 14.690957310421775 4.488843132740828
S 16.041940567780717 6.317624576752233 9.216741932459861
S 7.526299477512879 12.272088278255897 4.202024909539105
S 10.76367306231138 14.279512168997123 10.06326872573247
S 6.74476363193012 5.447329613083317 10.462997582124109
S 13.72994764845497 12.589739621902176 12.6987319878154
S 8.096172573105514 7.739834693064665 6.333135707700724
S 2.8830070443431355 10.694975912031602 8.712345742797043
S 10.484889301829982 15.975350816874013 8.837926876174567
S 4.921418191761049 8.896459771954536 6.750241840509962
S 5.223240928004391 6.602167017681232 10.209563637780093
S 6.978080815257822 12.324630630320716 15.015239228330787
S 14.221408307535324 8.160353306273805 16.63348905382902
S 13.626538663453125 9.235354054414959 4.945473483505995
S 13.981766019821672 14.447253962098623 10.575148440552839
S 7.896278220561136 14.590793712718465 7.157842124969249
S 14.09180340080823 9.209883869131577 15.04534177196483
S 6.093848954863188 10.98717405709951 13.27493461135063
S 11.694832108266356 7.74531579540618 8.78477418591395
S 13.872713167214986 11.01332073203819 11.542949995554503
S 12.152232852212787 8.497259747037615 13.992705404174623
S 8.43021583966618 11.28186330284575 15.72047574489024
S 13.953941190176591 5.88365599588347 6.654946079751072
S 10.563585902326517 5.235859596531541 12.217088164115038
S 7.670738876752836 10.789433821264545 7.76701497695197
S 9.75946055625948 6.74811755713061 17.993461919120836
S 13.75732271650729 12.996081660877252 9.365645037401972
S 8.510847112480775 11.281712623057985 11.007896297723567
S 12.049970231025101 4.6058123475657196 9.187254368026275
S 7.238247040590876 5.43400159515805 12.581194867401454
S 4.173838488604493 10.686654669361822 6.963061893644318
S 13.148345525113195 10.098913723703685 6.969715418930999
S 15.378858059381887 5.794693522614292 12.471620064198362
S 8.149470789209378 15.338887706200307 5.205848604249038
S 11.772828378379447 5.816931062214867 7.7237418019442945
S 2.7940878948798002 12.729678651010895 9.174581662016845
S 15.113724543024924 12.836825559977315 14.04716110512734
S 10.327583969199814 8.042060270206397 16.688229491930443
S 11.505675603017167 12.835506564427467 8.924863538628422
S 8.455761337632646 16.041305129692088 8.5039210142995
S 14.81255936947646 6.766730520790068 10.896606110446811
S 9.340953411116558 12.620568572187262 3.7010543651021375
S 8.94026581501453 4.233360772638095 12.629987036754285
S 10.268491947243028 12.29566727856967 14.55571872238991
S 8.72793112353091 9.469743913504892 11.754842052835109
S 6.931213846093562 11.34143412913691 9.562429894088098
S 7.128889336033219 8.65304669523314 7.72509052288404
S 11.38121341114721 9.247262848922073 7.432871412638072
S 14.986537794277274 4.932683835558386 8.037186058204357
S 7.081331105274921 9.333626074740984 13.35279192444255
S 12.236552718390675 8.01035954765094 4.454263229457946
S 11.584913134474162 7.030258980513239 15.16841408057152
S 9.406272199899696 13.720540031645633 13.628322919394295
S 4.075347692948854 13.276995790385115 10.535012097426051
