54
Energy = -212.88764487 eV
S 7.198898672982627 11.81605806211684 5.573407897065662
S 14.252633827727623 11.664490118449107 7.550392003997555
S 11.518097403716268 10.04720573597293 4.8276086495559785
S 10.942150950953422 17.305063775819136 7.39591483175558
S 9.018748314286235 12.29412278770426 4.694988944439286
S 10.1768164639385 8.541439232426837 4.467279365018097
S 10.554093920093843 11.58515531739627 5.871227287333006
S 15.72234010816439 13.058687480971846 8.579716408495713
S 9.810894247564445 7.40991147527432 6.1644545474866
S 11.832529436017843 15.728949268756999 8.053382877013286
S 7.148573052186459 14.813432275681937 8.40595722505256
S 6.611833462856581 9.939473701825516 4.955220107573621
S 15.346886385764561 10.023010329681352 7.225875992645371
S 13.939991807821697 3.5734384268744277 7.916589613092993
S 8.57861971107008 8.600430983312862 7.338165065119572
S 6.667438242386444 8.665033430164359 6.612291071043778
S 8.056608874704166 14.87152080000333 10.105608390459599
S 11.725524042112529 10.610379588480042 10.222097212760763
S 4.955795109551712 7.435939619808286 10.462372851717046
S 13.193321755722964 14.924711006514324 6.942640037412237
S 12.482221920299814 12.240507800920561 11.304407722883433
S 9.305300869485926 2.733552907383761 11.254846084832494
S 13.467837475814157 5.095583901527554 8.995363769295132
S 17.423986504689058 12.191071305031533 8.654094040432858
S 5.257379751018524 11.927578064685894 9.143626133299193
S 14.953352503775152 8.54172131398631 8.653859757836003
S 5.342028137803686 10.242291797189226 10.489364039901051
S 10.504709764765082 17.593078196597045 11.38443025655854
S 9.948729514611271 4.506015273724267 11.64361903914588
S 8.805870790529644 9.640253491641793 11.772520765734239
S 14.240832916613643 5.237944553468944 10.761833299049043
S 3.6084000607906814 10.664387614586921 9.492006054523882
S 5.929913620121644 6.759738336216323 11.971602095783995
S 10.865718885338602 9.288196755729182 11.506351266370775
S 16.43654632889915 8.634408292049883 10.106977360680391
S 13.651649718494784 11.515406101726668 12.83403072865459
S 7.676413491108323 16.549480484300812 12.936250670083837
S 11.519776215350536 4.355710295031342 13.143271756064166
S 15.592137193737724 11.115519268097016 12.285646186734693
S 7.74859403364974 16.897208350707523 11.043158274299369
S 15.656516949778078 9.043031765894382 11.947579586325178
S 8.39408981051197 10.314637105423015 13.641489953448316
S 10.273528992928027 16.99375079594557 13.194134455796064
S 5.251231417865744 8.054397773223956 13.642457064236506
S 10.921567860929171 14.875961919838263 13.018734087649479
S 8.012791874556006 12.415429669790791 13.465154028266959
S 4.010308227112596 9.253485141989692 12.800150420957825
S 11.968665331817743 6.301709383118393 13.444717505524372
S 10.657873417958049 7.053086907417471 14.93204385219478
S 13.698990464571107 8.789336163471159 18.455903952575458
S 8.74236747307412 13.33496220777836 15.081799533916644
S 10.794909332605295 13.948270433627803 14.777037676245774
S 12.711788612641328 8.756519545946627 16.803142594088637
S 11.564483120782482 6.8996220383491735 16.725513981223784
