54
Energy = -211.99149727 eV
S 10.17548652345991 5.157800474999683 13.44730696991796
S 12.093083348645422 14.631884388887263 14.060963401432016
S 5.642106557850958 12.098202381714826 9.01370829107277
S 5.305329646491245 12.8428842319653 10.926058164784873
S 11.546832246138282 4.852946948755931 10.431223013465177
S 3.6923184080119635 12.211451134576249 9.765071237336194
S 14.444818261428356 6.300990568475894 9.117174697120157
S 8.38009230316903 15.623367612523685 9.658043124100178
S 15.512917505536471 12.462218888357988 8.076802280211876
S 7.907940321174072 16.076503456351144 12.938345653710243
S 15.18071291001206 11.420660473777788 6.062053394518603
S 12.956793399350467 8.886201234743249 5.7031918477921515
S 10.067914232111386 13.533765631301744 13.01653020610543
S 11.91256538263964 9.667263672198427 14.35534012936277
S 9.084476210937902 10.897204906136446 16.940662327872044
S 7.3508921086863195 9.048658434668948 14.812055344630581
S 13.148126655205937 11.90087579487163 10.340959218520476
S 9.823000078256701 11.329104455040003 10.320793632381426
S 12.524032159575363 16.222868612006287 13.085651375024543
S 10.946381071424591 15.148249539486738 15.990873083802652
S 10.971277496325547 11.200258194847944 4.2823441569643
S 14.090093580175282 9.719910452656828 13.686964122534583
S 11.985564913136868 4.686113803731894 12.918590155462134
S 8.490340055034231 7.047463478765477 6.2959834228807035
S 8.455629437020027 14.11112342357907 13.922982649060604
S 11.64402719940775 10.609987534229038 9.685212760754913
S 15.142775423006174 6.440286350653786 13.449132507127516
S 7.625391416008965 6.748823899767325 7.9995821148795585
S 8.901683123701 12.368560068623731 8.779894609371873
S 10.750641857765558 8.553197919928097 13.154021745490953
S 13.77357768266235 13.160058293437245 8.809338993136441
S 14.71961037170589 11.259397084266697 14.670588781263314
S 11.063487446631827 9.837070436377413 5.791106582701662
S 16.94125476968121 11.064496273327059 5.415418975818621
S 6.636107940614561 9.965560253712995 13.126742829552589
S 5.001207248745625 8.274472923180815 9.420361281669729
S 4.72565566132497 9.271417001897019 12.641153848386693
S 9.616743770443357 14.33345555329078 8.703936811969214
S 15.25871781858184 8.05072178986535 14.636493631786754
S 4.970742664171253 7.640420167661652 11.403735328906475
S 13.01001867746488 17.393393954376656 9.099703916449393
S 14.205277068884845 9.632762221861253 7.0907962681529
S 14.639367354543433 17.500909114040407 10.068440492477752
S 9.694959391538635 5.322734889869947 10.482730101248459
S 16.499754776594216 6.636772845141757 11.85172604831823
S 15.50627671223179 7.620833030511148 10.346004381460533
S 11.262038144683112 13.181057578148074 5.1610205803190015
S 10.803549367190348 13.523377672749158 17.024942589204564
S 9.257307837362434 16.304550788371465 11.514253954011291
S 6.894808378086419 8.670039347791805 8.777708211880809
S 12.398726305466138 14.266759291533313 4.022901827610189
S 10.045787876316632 7.030486560889181 14.405947908003787
S 12.475863544649686 6.621052622858127 9.453296112716414
S 7.249649680374487 10.452775494229751 16.438783061006916
