55
Energy = -219.42356491 eV
S 7.823105755524262 9.245478712861644 5.2056875703525805
S 12.151923249143596 10.501314305207382 5.045135015395258
S 10.751263128838964 11.864674759113171 5.278494633340651
S 5.895787946149646 14.009940162388693 6.290531102638957
S 12.999593380645464 15.526133707113253 5.777222263726804
S 6.569963232163481 12.186276800920623 5.666937534845127
S 8.622416368049954 7.982614629422985 6.463595484072733
S 13.967715128751301 10.966109941861395 6.178996050240403
S 14.97599070135136 12.389186891801513 5.304836316410508
S 13.980091699224069 7.76776232259932 8.51493680046089
S 9.60382267945426 6.474237875223941 5.744784913301532
S 7.1850574193341945 14.684692611445552 7.705543827462461
S 5.989331260608373 10.912605221285046 7.395951071801144
S 9.571960609906911 11.244958593477216 7.104459457559341
S 14.520289978813013 14.150725903446247 6.969197842373043
S 11.329135425042454 15.162737397808007 6.766817946437999
S 10.295108834479556 9.605420939846873 7.771341914293445
S 13.244092542925667 9.488294225644337 10.186690199435025
S 15.722838834300598 7.413083180949045 9.19411228121811
S 12.582723704656171 6.0174784710443685 9.07566399673517
S 6.555713736266637 7.3798050246225655 8.986533869362935
S 5.10632835490305 12.308048290753563 8.60532761297787
S 10.96322710898168 16.70221817675999 8.192579661633463
S 8.911150516573143 5.41302277990795 9.772340170450756
S 14.988160335558605 9.659797230119548 11.04439347388759
S 6.586981447724448 13.413204728542654 9.443830507436726
S 13.458787293384303 13.226881519647602 8.241228806219064
S 9.174525851481246 6.407188612047627 11.830176798292065
S 13.37916391220559 5.179309793203462 10.669004540861675
S 5.656667172323368 5.715822309737482 9.242860081680844
S 15.281109688919589 8.238903163192212 12.622835697273379
S 5.108378971284977 7.916732919667081 12.846273667768955
S 4.836742163260355 9.991313145118527 13.079947388886314
S 7.3575155079384436 4.252448750774374 9.906841964486661
S 6.542942873791027 10.860816490404627 12.563814112670055
S 11.613716677881236 16.175766749742856 10.058074362655232
S 10.685859519958917 13.052806287081506 10.725884345481713
S 10.130514562762519 15.038758888008694 10.960743450584813
S 10.798781585800361 4.771184344464411 12.766719852847848
S 12.37547915476409 5.8858336442348245 12.507422416284781
S 5.356092027510924 7.2463112102908145 14.768881359393157
S 10.336097617113015 7.8981855219108015 11.562197957077267
S 13.743287027249321 14.488123187063893 13.695598855947882
S 11.514235909734651 12.380080930908704 12.485170927019814
S 15.22036218651786 9.226197020335773 14.413375775324551
S 14.211446064217519 13.886893112460411 15.600699432005587
S 8.060857792187209 11.026164116309879 14.424484557619024
S 7.284559207031774 7.792902163278515 15.355166801130412
S 8.016286426421098 12.75515459580361 15.262165703143596
S 13.54420835642973 12.805596434857794 12.500963165108658
S 12.375740206828475 13.346029919406384 16.478866107710306
S 13.464627931386623 8.716820794702878 15.432045016839238
S 7.143668686775442 9.725099174539046 15.951732857805728
S 12.01717008713637 10.152938422360391 15.363311067352523
S 12.44861368675588 11.40112542270015 17.028782941099692
