55
Energy = -218.21070401 eV
S 9.03968411644997 8.81065799971719 4.865287415215366
S 11.061509246942814 8.893825242055186 4.636667524253822
S 11.850926199012731 16.419461482924405 6.841065494546701
S 10.80469319257621 14.857563741358133 5.85439481297846
S 14.217904713280786 9.966125908068191 6.697717767114654
S 11.855653198283713 7.079499126799047 5.165357802678541
S 9.550064954805205 5.110820668545126 9.26783794050711
S 8.732239197268637 9.425221062884097 6.930383378117451
S 8.758073497885634 15.124131973242882 6.3346594652035275
S 11.305161608634048 12.210040503899078 8.509421729804286
S 15.49144983688558 8.649382795436853 7.204519875485964
S 12.854009925040808 15.746192347235226 8.374051985163424
S 12.370334698755824 7.341731436463094 7.241377862358916
S 9.881215813127936 13.305561601889544 9.592101398522802
S 10.80674202550024 14.393624411645778 11.007039832374986
S 14.174184877913389 6.642960452126846 7.5040338209994255
S 6.856098424240797 9.212451795064425 7.3245531752513235
S 17.653370490994146 13.246583798659918 11.139217216957423
S 11.603847510954157 10.408577817778035 9.469933163344756
S 7.8761496905217 16.315721586960034 5.085731303932747
S 10.173302530475876 4.800198017837402 11.066581586176504
S 6.809803455687671 15.112807709158016 10.754853631544282
S 11.263482053325298 16.41820274748677 10.136931231704304
S 14.988464105482748 10.819191355601811 9.706262367744992
S 12.097248495514524 5.795262017132532 11.283482446005017
S 9.820711801684633 17.08447678023567 9.075338220358534
S 5.520631391899599 9.024834893494727 11.212348738950961
S 5.498981272317785 13.70996404983124 10.576704285754397
S 15.961577314642513 9.117828238384455 9.495311367088892
S 7.771519677346523 11.188450391613145 12.354263286205283
S 13.168375002515445 10.602218156673414 10.781695932470422
S 17.96391544939622 14.528859038056865 12.522233809618621
S 9.51567098256999 15.434781997733273 14.736382006230825
S 18.318705148690512 13.33888621889089 14.453702377727634
S 12.593082139947022 15.06486346548122 14.13657205882701
S 16.178395739290632 10.845468683857865 13.800416598627153
S 7.333599941622254 9.121168366307376 11.990430345741254
S 11.55966265111128 7.870933085775975 13.862112033305072
S 9.702120267305117 7.619650894576209 14.483828150183298
S 3.797714161311945 13.928095138708956 11.447574586502204
S 4.060919748288432 9.070816728063207 12.914494863847729
S 12.511280871601018 12.765473479767746 14.32763641286065
S 7.585744201331559 11.35869805564611 14.389147678268275
S 12.356341082283633 5.969755522141635 13.272863039722642
S 18.251115519803758 11.47787118233288 13.807711328456877
S 5.585764121646713 11.321058772218768 14.828478681143975
S 12.644859982474705 15.742988791970534 15.937029194512544
S 10.307770083370091 15.950883960717684 16.39137204514094
S 15.898816806282403 9.49256840750473 15.222632451556818
S 11.905614178783445 6.791125057637628 16.89967656308152
S 10.017984846199944 6.964843973336631 16.649517628627716
S 12.777778169397562 12.446650055760026 16.249256671376926
S 5.098132850141378 9.248846413475109 14.583901039040697
S 14.917055715913477 12.408098798829583 16.648442877636455
S 15.452968667099686 10.55646744683568 17.107885144976812
