55
Energy = -217.17217213 eV
S 13.956600517481977 15.430379000902846 14.950175153830966
S 15.646823201345448 10.865675755808468 18.71168345831676
S 15.090260504273239 15.474884176571777 16.48837711518818
S 10.206957030175127 18.432833354611 11.745530083013515
S 13.282968808697383 10.391863123907086 18.76555490067308
S 13.535301057532891 18.677234751242107 12.048042933191098
S 10.099130730014826 13.381582647176272 12.472733450958254
S 16.43303388418629 8.049985558900602 17.96970977181674
S 14.416934252431435 7.9576421334625325 14.797159537294872
S 7.116839135600484 7.738144654295577 12.731731995621933
S 16.336363138087954 11.283832039684178 16.971574595451592
S 16.09098588855903 13.056855840813498 11.500347104169876
S 10.605990804552295 17.85731099127525 8.244795307638032
S 12.931218594789247 13.272139370016514 8.765997996319157
S 5.782962651258805 15.012385918305492 12.91630499160605
S 9.673312267532966 11.401250277465383 12.805935977884412
S 6.7283533931196375 10.761291391156561 14.177760497971978
S 11.605021905364108 17.438644209175173 10.017540230631376
S 8.667099255517542 14.26797072473254 11.244371342953087
S 11.840803096860578 17.492686031371967 6.79365025410566
S 9.145098151015125 6.954186872879494 13.406250786702012
S 17.27309686830734 8.961079992798572 16.520474650963916
S 11.754392313243626 18.047929582673635 12.968890844455629
S 13.924839126811529 12.737781954990785 11.847892948687644
S 16.902960735674352 12.886022493217116 7.347519543550252
S 8.677245231613057 11.202183858332136 14.623411721898682
S 13.213214686298539 9.61840151707457 14.269747962244564
S 6.066359373108633 15.759212450648844 16.114019791253458
S 13.424727706447387 11.724342291628275 10.216203499098022
S 9.352814554224594 7.338519793437032 15.267602444612805
S 7.6722848563891235 15.694027314393608 12.338425924977956
S 17.257841988771307 15.523038280777522 15.637833586830268
S 15.551308404949326 11.350997308039817 6.57222042052896
S 16.117947922659628 14.624706426023703 7.0766011749756395
S 17.030399247446844 8.718855061167828 8.0513195321364
S 16.969398393127765 13.228766606805088 13.255995166204496
S 16.314726324299617 8.498384782771348 14.532655649955746
S 16.85067154242839 9.80882783265703 6.311008552975468
S 5.910060900946558 14.09608124723871 14.72276014052386
S 13.089432157396363 8.503713859696875 6.324882379192772
S 12.525607515250703 8.377088168620856 8.149841543722497
S 11.958011814550872 10.079244894155876 15.820943295217562
S 16.95564769668121 15.405386576767944 13.714797238237388
S 13.611850292051306 17.127150829737626 9.023089944694146
S 6.455946218052766 8.67028007015296 14.359614320058869
S 7.41317799223646 10.476248337313525 9.073740855137991
S 9.730699761779663 12.589456883411106 7.987457204210471
S 9.324578721600393 10.686448376490793 8.948934858121318
S 14.540935309511315 17.275124681496003 10.838812561913432
S 7.153961781185932 15.212438863837768 17.61074617865024
S 15.640132306272491 7.128200277279125 8.00909628053326
S 11.696939012402954 12.372560651389623 7.433522491158142
S 14.211176327060512 7.471670034142834 9.349064989944772
S 12.724397387329635 11.258385243585993 20.387096002300474
S 12.728817261493516 11.566324633492066 16.98620881569469
