55
Energy = -215.09924387 eV
S 9.419213461381862 10.803920993681716 7.028453473056106
S 15.78195478480791 12.161492613410479 6.143215193239207
S 9.259392950505557 14.756688866588132 6.601597686528371
S 11.55417498524806 11.491917932201316 7.310522779013118
S 7.364103031919473 13.71092101578724 7.30675157917593
S 10.388319502518177 15.131190054547693 8.229776754547247
S 8.264320500703727 11.835454320346244 8.255176762929311
S 12.62091965100862 9.92880431579133 7.028926476440948
S 15.996945365049339 12.74878630404055 7.943268466210921
S 9.298855805531677 7.111957316953432 8.391220524511578
S 18.532344598221652 10.938841885981834 6.841412033683296
S 14.169056074805338 15.725759856002918 12.639632021881868
S 10.069706072851288 17.028573751547583 8.936495047271535
S 18.141109075754382 11.797267798890438 8.511115265497494
S 11.497242545088051 11.861596646880447 9.934183576916917
S 17.353417417961936 8.871216950280635 7.152832588498038
S 7.2894505330081 7.175023530815211 9.338676005306196
S 6.607476377709041 14.517014950267846 8.880859011556458
S 13.208831678680843 12.654619961926755 10.258555711740264
S 11.668070204888236 9.639554953197718 10.338917593191406
S 7.6739287382979295 7.279338614580489 11.309153071671803
S 13.623077495738281 9.432881559761192 10.692604931459766
S 9.407043945389393 17.703865735732254 12.134886736117425
S 8.701197214547971 16.766092861138194 10.597443305750089
S 16.728797710485743 9.027715296993847 8.94751721385076
S 19.650219487738273 12.273455588757269 12.77993211393321
S 10.604366507734579 6.570062534612041 9.689274699617911
S 4.507206084667454 13.335583424350059 11.249440638181047
S 13.000033247071201 17.21812256930631 13.562833487391384
S 12.991366766188634 14.287559893973361 13.614973195709121
S 8.425883278091387 10.6960977022479 11.933637160886116
S 17.975608732464337 11.17700126097155 12.834406332810609
S 9.801585418863482 7.307551845896788 14.370110281426477
S 7.077646951495426 9.128274710823359 12.095196533463579
S 14.100627591373698 9.965308144335749 12.666327746735726
S 11.547558414232984 6.779909927552896 15.268411561352519
S 9.99866926266633 10.51093590208627 13.211979415589507
S 19.0507720805612 14.284736469631296 13.61374745763684
S 14.311172508373373 8.283466452780273 13.84721204073263
S 4.858925073690324 11.496981813567098 13.985424301585079
S 13.456593574132375 16.912115830174397 15.483679235036831
S 4.799737966121741 13.238067876336235 13.154533195724358
S 9.219791715029558 15.280921626129652 15.110000373813278
S 17.91301291667039 10.076859004353096 14.575404829602594
S 7.862875438571544 13.971363986243869 14.671620677752925
S 8.689915660055954 8.360822431218455 15.926160244136696
S 8.942437226257598 16.375913263014084 16.67141345255563
S 12.910299497700626 8.34586838715768 15.368626059824352
S 13.422435095268137 14.673472109049778 15.536549789954547
S 9.25412312524499 10.928537047740306 15.214933248760786
S 17.238234757189165 14.21034758506125 14.235750722603072
S 6.816768324823129 8.043875508201584 15.635597222134663
S 10.79548711555598 11.432130440475404 16.248135690548295
S 16.544143101812217 11.178890562276528 15.845319129175447
S 16.036987227840886 9.978701883920236 17.269609220870095
