55
Energy = -202.01119159 eV
S 12.450542 12.450542 12.450542
S 12.450542 14.138518571278693 16.786787815790454
S 12.450542 14.13851857127869 8.114296184209524
S 12.450542 10.762565428721304 16.786787815790454
S 12.450542 10.762565428721304 8.114296184209524
S 14.13851857127869 16.786787815790454 12.450542
S 10.762565428721304 16.786787815790454 12.450542
S 14.138518571278693 8.114296184209524 12.450542
S 10.762565428721304 8.114296184209524 12.450542
S 16.786787815790454 12.450542 14.13851857127869
S 16.786787815790458 12.450542 10.762565428721304
S 8.114296184209525 12.450542 14.13851857127869
S 8.114296184209525 12.450542 10.762565428721304
S 6.905591070842163 12.450542 9.221532653586056
S 12.450542 15.679551346413957 17.99549176239773
S 12.450542 15.679551346413948 6.905591070842163
S 12.450542 9.221532653586056 17.99549176239773
S 12.450542 9.221532653586056 6.905591070842163
S 15.679551346413957 17.99549176239773 12.450542
S 9.221532653586056 17.99549176239773 12.450542
S 15.679551346413952 6.905591070842163 12.450542
S 9.221532653586056 6.905591070842163 12.450542
S 17.99549176239773 12.450542 15.679551346413955
S 17.99549176239773 12.450542 9.221532653586056
S 6.905591070842163 12.450542 15.679551346413955
S 12.450542 18.020797872764803 12.450542
S 12.450542 6.8802861272352 12.450542
S 6.8802861272352 12.450542 12.450542
S 18.020797872764803 12.450542 12.450542
S 12.450542 12.450542 6.8802861272352
S 12.450542 12.450542 18.020797872764803
S 14.739406073925558 8.505291657693014 15.919993579537621
S 10.161679092834907 8.505291657693014 15.919993579537621
S 14.739406073925558 8.505291657693014 8.981090420462365
S 10.161679092834907 8.505291657693014 8.981090420462365
S 16.395791758926837 8.981090420462365 10.161679092834907
S 16.395791758926837 8.981090420462365 14.739406073925558
S 8.505291657693014 8.981090420462365 10.161679092834907
S 8.505291657693014 8.981090420462365 14.739406073925558
S 14.739406073925558 16.395791758926837 8.981090420462365
S 14.739406073925558 16.395791758926837 15.919993579537621
S 10.161679092834907 16.395791758926837 8.981090420462365
S 10.161679092834907 16.395791758926837 15.919993579537621
S 8.981090420462365 14.739406073925558 8.505291657693014
S 15.919993579537621 14.739406073925558 8.505291657693014
S 8.981090420462365 10.161679092834907 8.505291657693014
S 15.919993579537621 10.161679092834907 8.505291657693014
S 8.505291657693014 15.919993579537621 14.739406073925558
S 8.505291657693014 15.919993579537621 10.161679092834907
S 8.981090420462365 10.161679092834907 16.395791758926837
S 15.919993579537621 10.161679092834907 16.395791758926837
S 15.919993579537621 14.739406073925558 16.395791758926837
S 8.981090420462365 14.739406073925558 16.395791758926837
S 16.395791758926837 15.919993579537621 10.161679092834907
S 16.395791758926837 15.919993579537621 14.739406073925558
