55
Energy = -214.82749241 eV
S 8.765505310488475 10.027057730116235 7.166976689634829
S 10.920970061162437 13.455806446892627 4.559598828941503
S 9.03335932290331 10.768215127204362 5.305638166190902
S 11.59304385603804 7.099254561646607 6.221383561308398
S 12.014749520024834 8.914316075008141 6.716605960904783
S 6.602458501428018 9.740263020891728 7.2531783006279005
S 13.986012115047856 9.371471184565618 5.892240718325463
S 9.182315329929722 12.881863395223368 5.433601797080672
S 12.470213932966967 13.81587648541399 5.950898857295774
S 10.807695928432794 5.110215558497557 9.134814770465184
S 12.52505913643975 17.239699058695326 8.772712686438666
S 14.110433248107848 12.717740936672346 5.41869644551843
S 6.907468711583819 7.867059250833105 9.333429239754532
S 10.82617802675402 17.150195272635138 7.851922425472585
S 8.41886760951561 12.9180378489861 9.824558338258168
S 14.480548472140537 11.13585442961548 6.746705397563608
S 5.783525630127787 14.583585380025413 9.657762353967668
S 12.27081306267435 5.875553619572818 10.400686757703292
S 12.052147478029957 10.450691187222365 10.483794537407842
S 5.674930384769796 10.902512939422428 8.485905626850279
S 15.0078839268912 15.389713807763485 11.879602937901321
S 13.134740777353803 12.266911159926595 10.460494914276888
S 10.371732025728715 6.728266709901117 10.358311686029046
S 9.353098419635753 16.242191677227044 8.71591475608058
S 5.785339492922804 9.01549168439249 10.368177822743931
S 9.887248018226948 13.02466174630816 11.070593456946254
S 13.80772485998137 16.619838884122004 12.956821773200568
S 11.62683758638078 13.34337798316777 9.675713034955855
S 15.072995171857379 8.470017099224751 11.420883807668046
S 12.832718192726993 7.611768247474506 13.702577782819713
S 7.096905379025993 17.409707262868697 10.766628194649389
S 6.8424025551278165 10.514583894992203 11.88944692178254
S 10.760493299481585 10.989424808846506 11.921490335426776
S 5.786929073411967 15.995607559233934 10.967826654893239
S 5.3463599247054185 11.564921029099484 12.46140707186394
S 16.776880541170023 7.354349808818804 11.66060174534407
S 16.188465726473865 5.451006940115484 12.135947126899936
S 12.167804814884247 15.408098668335471 13.265201258167885
S 14.409714719987754 8.77156313072689 13.436028888635548
S 8.164503884826685 7.242813376752463 13.168830380328119
S 15.503334333379817 13.91794467160127 13.394531894137046
S 16.209713259888492 12.383468992221367 12.477643941070374
S 12.997003055076464 14.026235870387847 14.696053129746796
S 7.832387366006277 14.75222270453657 15.553825569446769
S 7.061216948345344 8.725238185223722 13.68286740403678
S 15.56523677581828 5.653300397388723 14.182054925953835
S 13.595871554596256 5.562128659482486 14.213912433636573
S 8.339764329209624 13.106129529909309 14.696974843857172
S 7.721870634483103 11.413197005198464 15.964566453236964
S 15.312771649917895 7.8889174986471895 17.667680354010443
S 15.793716966050035 9.721216736144758 17.4582824484567
S 8.5103873308471 9.843448241195743 15.048646376066342
S 13.877847510283537 10.774881998891813 17.545563661105998
S 13.72709881668001 14.916552532065648 16.23678031115488
S 12.606558448419234 9.377384997034456 17.78885725212812
