6
Energy = -22.9926976 eV
S 10.871595007679689 13.09204601655491 9.757163006102884
S 9.549444903914479 9.332655013960196 8.56265204051456
S 9.290804318618324 7.536409773779049 9.78165859144153
S 8.436683947985435 10.737362516249597 9.46251825957444
S 8.846700549219422 6.088148634518765 8.585358324467114
S 9.73242287666858 11.90590649428698 10.773789257883813
