6
Energy = -22.48933477 eV
S 9.637704131208391 6.893252697880617 11.186474137516186
S 9.308513135614518 7.325274049737828 9.34263831506155
S 10.640855959507405 8.352936212967585 8.377663887641026
S 7.213484317655226 9.62547051990526 9.40915594058246
S 8.216022056575977 10.230914555524123 7.866020350532029
S 9.250500740237268 11.846560913360216 8.047276919284618
