6
Energy = -23.17975117 eV
S 8.965145390424523 10.49975722235641 9.668246138505411
S 8.503210803971749 6.742402552542131 6.4409882677456345
S 6.670136263436848 5.794016319476551 7.480342440051464
S 8.30214118860086 8.632547988424468 6.903308514623382
S 5.680075274907367 7.242669756993701 8.239209501660332
S 9.38087998983822 8.80728900668663 8.858776137464725
