6
Energy = -22.88484423 eV
S 9.085191745874692 11.454372344058793 9.28144061424801
S 9.2070574274428 9.78202216247247 8.373958491520943
S 8.234492367721524 7.345129971400866 7.132517334760678
S 9.346061800753823 6.221056556411668 10.23929378497111
S 8.21732062339418 7.476371747364348 9.355543837654759
S 7.41730270016892 9.188456972556851 7.155481024481167
