6
Energy = -21.86577202 eV
S 9.77321460417713 6.653959188094025 8.33734148643451
S 9.163411730925544 5.244309983007436 9.530423242131688
S 8.356152162949922 7.218303031271321 6.952604068077193
S 7.879401725422317 10.442271019583966 8.25015760829644
S 5.662857255608379 9.256212788428888 6.887820426568754
S 7.044656179867918 8.636742578898353 8.188520194929989
