6
Energy = -22.95361659 eV
S 7.191675459610192 5.98912366302922 7.347710262529681
S 6.722620330865806 6.677094587620885 9.333125563694002
S 7.247148124423874 6.519977948510981 5.259818091273707
S 7.786082584726303 8.923270593472221 7.308661462549105
S 7.632790382572221 8.42031240654769 9.410806150714093
S 8.158471455542893 8.254501629407104 5.278454496746101
