6
Energy = -23.1305264 eV
S 11.341663585574503 10.11473033589457 8.309508079795767
S 7.343363282281605 6.074291412955729 7.684398638277497
S 8.59382092358231 8.475827333356337 9.472149041211846
S 5.969010356058271 7.401443511197829 7.745120402679711
S 6.876828584114524 9.198302762498564 8.856974954090411
S 10.029137943282803 8.789995800440519 7.813706748512031
