6
Energy = -23.23484804 eV
S 6.788546429826765 5.727182622544637 8.545630624405282
S 8.306974945571332 9.569847148041584 7.880543737607867
S 8.397350397976577 7.384462560737091 6.154620382899262
S 6.421607641593147 9.37865463146815 7.9392094225793
S 8.67260725518342 5.817099093615094 8.354702446195558
S 6.514410221948938 7.271079661497287 6.290006004205355
