6
Energy = -21.84344668 eV
S 8.156299085649245 7.555295402386169 7.35070989183106
S 6.2735149732404345 7.2373737203561435 7.018919389446214
S 8.480846609136382 9.683384906410529 8.055369464001535
S 7.694975388517161 8.538426083230462 11.096454790155802
S 9.55827591686966 7.025321521356514 6.1245058720646615
S 9.11664732499596 9.247124474984785 9.982253558357822
