7
Energy = -27.01558429 eV
S 8.637383261537092 7.271440759533869 9.253623913822917
S 6.76871035799491 5.249211993355555 6.612150975805031
S 6.323080793605448 6.909421269853623 5.770571994236397
S 9.97974686432926 8.91147014024902 6.748275442316482
S 6.48850926012131 7.443072786689771 9.093206082410319
S 9.338178020811725 9.108671054142173 8.576752050218895
S 6.04187312213034 8.440480546529328 7.464698060189348
