7
Energy = -26.16539934 eV
S 7.809436772874221 10.742709541238245 9.419547504504987
S 9.290106774460881 8.381474490474078 7.516295800905799
S 6.294124363034096 9.561367914548546 9.194924023771149
S 6.558290719139562 7.709326096067496 9.698028714450633
S 9.233290613819355 9.258883184615874 5.802026927346002
S 7.9742598114763235 5.239443107844466 7.954290056063946
S 9.335544100857499 6.16676304019165 6.952969179175776
