7
Energy = -27.15455974 eV
S 6.152582214635917 9.107075882517496 7.993767271333388
S 7.682979510173575 10.370587652778811 8.722213831955003
S 9.222379389789651 9.192878381559924 9.526404332472323
S 10.752568357915369 9.12277492314878 8.238804210310644
S 10.60381112863003 7.181044018268111 7.162349311024208
S 9.32621530193071 6.050956655173026 8.030537184722387
S 5.342540048136141 8.057630116975279 9.408743167813759
