7
Energy = -26.66252752 eV
S 8.05643719199545 11.429530110382752 9.984539676557569
S 9.194310041637126 10.784603711695933 7.093839746284681
S 7.470706438778955 11.439037742019735 7.5107985488489195
S 9.279786385513813 6.33595820437926 10.524189704102504
S 10.61373204918536 7.4029519340709 11.40464722934551
S 11.988248820628561 8.209112878283864 10.31997265497784
S 9.792768888664726 10.79479591916741 9.558002939882666
