7
Energy = -27.45209951 eV
S 8.728420123358198 6.8541398177076145 9.360529147857491
S 7.04997810153368 8.89690272838754 7.20261377201819
S 7.544010822791716 7.593966677143676 5.818167487130686
S 6.32165075615081 9.240884353725567 10.396390800987373
S 9.687308245640152 7.1502419137214375 6.231249996101172
S 9.839875485273307 7.961367240756819 8.095068231088566
S 6.582848532301989 7.797392753211377 9.16023607883853
