7
Energy = -25.70444244 eV
S 8.241680607982637 6.593422439056341 11.797004050044658
S 9.61261354842542 8.702177165730587 7.274658678057565
S 9.455880694535619 7.250453959876397 10.23691855688718
S 7.882724614768514 8.434735861026246 10.883972371660251
S 10.865640526170376 9.533149429992257 8.51043132269816
S 7.75753232151917 9.957632819611076 7.214361210608331
S 7.961353271756715 11.289000521896536 5.823928189298759
