8
Energy = -30.18752726 eV
S 8.568534311404722 7.61291091149732 10.275468835740256
S 10.466132410492897 9.503592462483406 8.388214594599544
S 6.286825370099887 8.778223209842416 7.472289115424526
S 6.536532835006543 8.295345994055005 5.650807226641215
S 8.424352149898414 5.8479140870004755 11.036145787624417
S 10.520785272871482 7.7378543360499625 9.314064397109979
S 10.976337378202315 10.985644212733193 9.938554471193756
S 9.682430057370551 12.412361512936815 9.834694517975864
