8
Energy = -31.01132186 eV
S 9.463462354390279 11.472100880724645 10.800935006946656
S 9.735886882111936 9.421321113473862 11.478781713035557
S 9.70990625937415 11.396729836692002 8.90876956881403
S 10.101868642580321 8.42866371936489 9.893630436085623
S 7.6000187318942976 8.883042237547631 7.622803611808883
S 8.224487062040042 5.872243968177577 8.205689282082616
S 7.049158062561615 7.9736291116191484 6.031915792001066
S 7.484624286691565 5.884700039846111 6.446075494227781
