8
Energy = -30.57624352 eV
S 6.694734424105034 9.984786875363714 7.441964650147642
S 6.7238637077231935 8.275695149232511 8.336627109187223
S 8.016957585913005 5.349754471171716 8.348714737394495
S 7.395648784744098 5.743386098989892 10.134869701997589
S 7.820830090515599 6.959764089924546 7.055258610266493
S 9.369318720688788 10.106529125401213 7.917298893849443
S 9.747147231162126 8.907731159522669 6.378389946245675
S 9.488118524317814 9.173071620008573 9.60451602199611
