8
Energy = -31.37693065 eV
S 9.597686508675515 10.092155475031069 9.323592218742364
S 8.227774927192703 11.34596625710904 8.873720820295866
S 9.908318776943437 5.685800090620403 7.628542116362871
S 6.291248111924663 10.194429035694522 8.548431764913461
S 8.966482610902087 7.343761405938221 6.3880511073355
S 7.087186171370989 7.30410732362061 6.979587116448516
S 6.826837561418385 8.319960503868971 8.880778279966787
S 8.60692217082543 5.160295820271132 8.929739310471213
