8
Energy = -31.40612601 eV
S 12.143971952684433 9.980722244766943 9.416820736840682
S 9.278470881051225 8.692999576402485 10.339510918726148
S 9.899598980457778 7.4806917850737955 8.980023220875232
S 11.902071100377839 8.50005111367897 8.238593381536923
S 7.7120464300275655 10.05538700664134 9.211546738295109
S 7.806119251699099 9.463137646961554 7.383234716815671
S 6.203307335187191 7.7161541730533605 7.340778316124024
S 5.5234254048147875 7.677023496218052 9.122259634514233
