8
Energy = -31.18794073 eV
S 10.462589504653863 5.912692741847428 8.320672957357706
S 10.57023414562588 10.090591698186394 9.049331024568854
S 9.422497879130526 6.844203148534537 6.985009063719563
S 8.963292722213023 9.736999870474433 10.061633650443778
S 7.338467332317257 6.2762044123376 7.198453857604576
S 6.290790250640643 7.992279890215959 6.94254533915879
S 7.216870950726987 10.474739381733261 9.0040480343759
S 5.970926311930343 8.885133416460683 8.820348200860616
