8
Energy = -30.12264495 eV
S 6.388150869740772 5.118549111976661 10.437445810830113
S 8.632457065069053 8.245736101138172 9.661418439860551
S 6.7121513663766414 8.036776917605124 8.71941358938641
S 8.834463123080505 10.077839067164112 10.214804670052253
S 6.313046656304547 5.9709032257119725 8.700825190607784
S 9.77166728348425 10.49372285486487 6.40842846134456
S 9.364721717661828 8.637591001675165 6.086340893796415
S 11.475633299808214 10.9267468230944 7.200634112017734
