9
Energy = -34.58483381 eV
S 7.509261757166555 6.43276250216423 8.236489644039334
S 7.009374004599006 6.721630470421921 4.885830051360313
S 7.730587918232184 7.705356831415467 6.382517462566238
S 9.20342226092344 5.586381813422096 8.59817449511001
S 9.964856713808242 10.368126608815107 8.368398603246481
S 7.96981195424375 10.007477632932355 10.894763291825962
S 10.916488186827129 9.716039370738812 10.16525640909794
S 8.1420018277013 11.046792950470486 9.172229641924135
S 9.901554667429044 10.683121755382748 11.599603452126104
