9
Energy = -34.92293737 eV
S 10.611324785386921 9.100070964960139 5.793688309515546
S 12.20806398079709 9.135883001013042 6.835516440115874
S 8.083757790075632 7.143027413999184 7.711865223006684
S 6.351032509050077 7.559497411447741 8.54746287434004
S 6.132724211956789 9.663375471187956 8.585415741531461
S 9.348260925187398 9.940521715355425 9.270643748241518
S 9.408458704964634 7.522950478761697 9.756937080018483
S 7.563845627426175 10.229247185927434 10.041732930312312
S 8.083524919843631 7.374097969960616 11.10171664904602
