9
Energy = -34.917315 eV
S 10.542701143260203 11.833480281568928 8.878281936376988
S 8.151504934806615 10.59896582064167 7.365225067354946
S 10.245816546901281 10.09970145979367 9.892972136738907
S 10.082769457452043 11.021455714694483 6.998183011566919
S 9.167872443137677 6.091008680229676 10.013070159046347
S 8.181774549962732 9.334907172590132 9.360450835683281
S 8.737332312855667 7.783817474986736 11.022758639290887
S 7.767570161263956 7.708973651024922 7.855881529274536
S 7.404459561054102 5.9885853819749215 8.880694569295379
