9
Energy = -35.82337959 eV
S 7.093428114215064 5.377803284765056 8.480106041367572
S 10.027693632070033 7.382382185847184 7.148429323062957
S 7.066463583986046 7.159032271386392 9.679420789355209
S 9.435936134950504 9.312282155276144 8.170397907915897
S 8.76946829468402 6.8928137864276655 5.746311967560269
S 5.664284115387885 8.522530765173512 9.06290527859586
S 8.03345297446469 10.272395330260673 7.143426940549879
S 6.9081658967849755 5.829658517703834 6.569440155391879
S 6.2273519900908125 9.145023068875883 7.1829385935681485
