9
Energy = -34.66347946 eV
S 5.153472649825949 8.698399936252242 11.047596067865255
S 11.89663077936628 8.902396013390762 8.14518422453543
S 10.638505995969808 9.58568369667615 11.100737744348132
S 6.710410735817018 10.453152696241006 8.705690221151132
S 10.16530142545275 9.762068246398146 9.253888261806923
S 9.816555075907642 6.859505525620472 7.332367512782685
S 8.595297589888304 8.149300843899978 8.271256212768133
S 6.521496278362471 9.970031762648052 10.575248535351339
S 11.099978486463124 8.259079747056301 6.412995637985133
