9
Energy = -33.18596313 eV
S 9.110549084809438 5.684981129411204 7.084114046118495
S 11.581732529293081 8.039327833344654 6.458737504386889
S 9.731940549051272 9.037766259701678 6.4689193434284915
S 9.966838443553703 7.266358763823379 7.705178948125343
S 10.117101568302125 9.992226303454489 11.161905214900308
S 6.559287433087994 8.551210268674422 8.784105523974338
S 7.449298695549647 10.186310397346022 8.3866805989743
S 8.912821035442505 10.799861973359453 12.436058360369678
S 7.039982261821249 10.909758056344014 11.999356971189698
