9
Energy = -35.39905759 eV
S 7.6058781537069775 8.692606224270316 7.481499873314838
S 9.371536319495979 9.550733965344397 12.808171818036794
S 10.295735187106143 6.852385621191211 8.218735391138942
S 8.786363696366848 11.364641746825894 12.658400568824813
S 7.708263336431435 10.326075217498508 8.811315265008123
S 8.871724149459109 8.985318511735302 5.9798382433577535
S 9.654836716544537 10.351547968260839 9.549528948736397
S 9.971617882287486 8.783491447556965 10.73307294480134
S 10.74907207726744 7.920233811556897 6.703267335149523
