9
Energy = -35.0959032 eV
S 8.780277496347155 8.637367873837846 6.6496120311070674
S 10.552199161863095 8.21629973006825 10.455238196749562
S 10.626974430028715 8.421329831956019 6.195256376017403
S 10.639950042749422 10.882092647728003 8.223725500114186
S 8.733045639283748 10.504965048507724 8.062710323476594
S 11.368980571124858 10.002238777720027 10.12160585193563
S 8.641035379068697 8.485486864413174 11.329860347434161
S 8.201008171797568 11.538395665845742 12.466079697995786
S 9.000855709584606 9.826612323403939 12.92045311400693
