9
Energy = -34.02861426 eV
S 9.209861158816894 13.695621075085885 10.13070828231853
S 8.274233028828561 13.691639652977127 11.836958105712268
S 10.036041035002514 11.86060582491654 9.639417868017324
S 8.25317093483145 10.60031564180878 9.521163074607717
S 8.939706309668225 8.818350410534658 9.019944215293872
S 9.948959762399705 5.992590817267422 10.46282264089041
S 9.311158900734412 7.752225902495193 10.921159794096488
S 11.494741441220427 6.794030705939189 7.185300818740724
S 9.835277665110501 6.1276469235506905 6.544546704515413
