42
Energy = -90.59868235 eV
Ag 12.596676071858177 15.536172691419429 11.111110359219666
Ag 14.594429611342628 13.835997703796988 9.800358507780107
Ag 14.925851198246466 14.592855638643941 12.47323562523024
Ag 10.153882976546607 15.048985628139457 9.748391907995654
Ag 12.598330343177038 14.865844389227703 13.9754535583817
Ag 12.621267285858918 15.219050549768474 8.323337827357264
Ag 10.279351293442836 14.490269858231915 12.479318119789548
Ag 10.158631789372267 14.703078736467043 15.405649614261696
Ag 15.728799144565333 11.992859014832023 12.028874271156889
Ag 12.736636863185199 12.740724373615853 11.73261941168872
Ag 15.209205167498832 11.145237751091274 9.341843522566773
Ag 10.842389681551554 13.17948818346698 7.7614311561403655
Ag 9.974032015939741 12.31418666292762 10.557873367808684
Ag 12.310751261740311 13.219918877698031 16.59181251759881
Ag 7.77657260364972 13.769625750225343 11.35960488789368
Ag 13.63240320517282 12.629226950167372 7.4925183671410975
Ag 8.44613822242634 12.941119927837246 13.975200182813978
Ag 14.20097787787612 12.54784566557214 14.366552805147933
Ag 11.246932961378379 12.391682724910293 14.167782501212836
Ag 8.161925409877275 13.34431045132477 8.530059598502516
Ag 12.234878993723903 11.036983241475838 9.407392404955644
Ag 11.534760012286764 10.822567282451834 6.493560287408269
Ag 13.926219261019813 9.788403517747335 7.240214832816216
Ag 7.360899267261962 11.166873611287185 10.150822346242048
Ag 13.770750212069428 10.071475005675499 11.608106648903412
Ag 12.767609838028848 10.587656050414523 15.734478988949746
Ag 9.637628375229799 12.168970122951832 16.517508922006428
Ag 16.412065665407212 9.36543941699449 11.210518154535933
Ag 9.298582928650738 10.771349965886204 8.087932276743226
Ag 7.371710143904583 10.755699505115118 15.249554370573383
Ag 11.117803037454825 10.428206427034812 12.20024909220301
Ag 14.299335253253986 8.248468572294952 9.501830959646387
Ag 6.113382388598538 11.94914573573994 12.743981023855182
Ag 11.47869163248765 8.59517097339882 8.299135498129537
Ag 15.05154336687551 9.858993724567657 14.037345157938507
Ag 11.962713364212906 7.8350995440345175 10.988170314133765
Ag 12.494648168323966 8.576227851199587 13.816527760842575
Ag 9.475983500040147 9.132586615369641 10.277949045117936
Ag 14.58207936775212 7.467268268830969 12.257472454082286
Ag 10.099523335979503 9.913914141665403 14.880078227711374
Ag 8.363595378307453 10.396995915528562 12.627043927366865
Ag 9.860508783221654 7.9641202397691675 12.857196454948697
