22
Energy = -44.21842523 eV
Ag 13.397917080684504 11.370850580122363 11.18373235803643
Ag 11.146650855404614 9.75503612924389 10.201707982909522
Ag 13.752645720909742 8.940162602353142 9.73469612553661
Ag 10.788980902523317 7.278715557366023 11.35787339163066
Ag 8.685187344765131 13.996565808836461 11.897887758885462
Ag 11.86023470466369 8.643219415018791 14.887459137826948
Ag 8.544784666576286 8.824709190253415 10.68164743857544
Ag 7.955771443758825 11.2479490162872 11.961044767816247
Ag 12.35642498259609 11.181850764471791 13.86260556794857
Ag 5.967845197538124 9.330604099781372 11.62531434458209
Ag 9.428326675655043 10.179846729153764 8.094191695185923
Ag 14.41579820921205 11.41894715683575 8.535432541621445
Ag 10.648254962743195 12.087043606335689 11.881546729136847
Ag 12.19845307771342 9.699342156732008 7.535581667077616
Ag 10.11527130346478 9.553520121487859 12.944410647869727
Ag 11.078118233990645 14.378392223318082 10.369135267179237
Ag 12.881573884787679 8.842045151002381 12.352882616085914
Ag 12.737756790306797 13.7425925131395 12.618210695920759
Ag 11.720630913640715 12.157865654317105 8.787213794639129
Ag 6.945762638931521 10.649703894193493 9.357043143985146
Ag 13.829085676741322 13.762022417442768 9.900509904693068
Ag 9.060715947289806 12.466839379293857 9.586057324762955
