6
Energy = -8.82617667 eV
Ag 7.176501829940849 11.551295248432375 9.177313574869672
Ag 7.699613818311224 9.000261428415955 8.718611511274126
Ag 9.798627122867423 10.810523815969155 9.250538558937649
Ag 9.277359706308292 7.100645974019259 7.508068507192057
Ag 8.79142224022338 6.915856842892989 10.070714374703304
Ag 11.108901289583107 8.500358296298572 9.145003128095736
