13
Energy = -22.92800448 eV
Ag 10.278391946070752 10.111298044389278 6.87753657376517
Ag 12.198186428179085 8.182529518712816 10.834126289286274
Ag 6.501702458091892 6.532781099152244 11.8941574794554
Ag 10.103122902087621 12.187085969219169 9.229153481139473
Ag 8.23461317920717 9.950028206132897 8.958177912801442
Ag 8.0345005211068 11.659606566684745 11.144602052139579
Ag 8.328087991736682 7.956698418694338 7.020256084939892
Ag 12.072968550829524 10.233980296771318 9.011100309534742
Ag 7.5957146828499456 7.136142017685938 9.510205397773722
Ag 12.067479168801484 12.254570443483551 7.233575117712791
Ag 10.131261594591814 9.959976981671764 11.064702662268598
Ag 7.414627955903343 9.057443149526682 11.665655632376629
Ag 10.324059266418889 8.038254623255789 8.841435408149557
