37
Energy = -78.74242146 eV
Ag 14.165591571477938 6.821772386958355 10.670586181261935
Ag 13.591092891691934 10.372121681838916 6.784998707941651
Ag 12.868530057250675 8.558561524155865 8.799456771515969
Ag 11.809880563668575 7.971877050831915 11.367372208152306
Ag 10.914743515118325 10.28939804924599 7.541418774426085
Ag 14.492607572664733 9.526378562591983 11.02050044288732
Ag 13.680591050921342 8.126868621793188 13.36964043510929
Ag 9.891855065267125 8.611487436246636 9.464233515582404
Ag 14.314769540310625 11.679759894963475 9.084887183055256
Ag 9.179923277338837 7.08454645025791 11.716399130239466
Ag 12.23701397727213 12.776303437512382 7.436116078864662
Ag 8.16464513302338 10.555062165978619 8.406443184848078
Ag 8.074593014465044 8.218646692083043 13.937660682080008
Ag 9.513229789218265 12.570539962662727 6.6605031696218395
Ag 7.384613632350299 9.090128265227397 10.774346809413183
Ag 11.89607324795653 10.669048415164978 10.337323009240844
Ag 16.301657590997447 11.66686514571905 11.062090640609297
Ag 10.008259090991963 12.442807368706251 9.326787690168269
Ag 12.667376913939938 13.924482233205696 9.927422886913053
Ag 10.876639639244484 8.092059148832881 14.009811212058647
Ag 15.077997759216156 10.58900197946799 13.599510460478346
Ag 9.731065518529972 9.935323867722975 12.075435375652265
Ag 7.0923608508099445 10.653744087613335 13.222007674308532
Ag 12.209762529076096 10.578856620756131 13.664025686944191
Ag 13.802864072375273 12.28384902066212 11.833548039222071
Ag 7.7609581199982784 11.945516913258588 10.869727169210192
Ag 10.554849176855441 14.946007966651132 8.351354017101196
Ag 11.269640728602694 16.142343723475047 10.8226326815434
Ag 11.002640556490148 12.694156127583945 12.073070225847399
Ag 9.52786124194041 10.573469984320923 14.790237585761261
Ag 13.760823066891193 12.920207063680241 14.556877691888374
Ag 8.570126884154389 12.97849451279871 13.41659025455433
Ag 9.047052498821193 14.46914580818033 10.958101386503158
Ag 13.029209877810807 14.852622715290714 12.608039687955497
Ag 10.992674579343921 12.929765802963926 14.947738999826102
Ag 10.358378431872755 15.22421400865544 13.401006791948793
Ag 12.460137720778892 15.304742776880744 15.296698961246074
