25
Energy = -50.14895049 eV
Ag 14.963977076724719 15.091283731387826 10.777467609180752
Ag 12.27269678177159 15.350446881808697 10.122107448355685
Ag 12.96343548078017 15.065757447733809 12.739457561480208
Ag 14.836004387036093 12.753248751794812 12.218124177360737
Ag 13.717291537873457 12.889362803181386 9.563638949357177
Ag 10.748983443418021 13.188769084756258 9.306489647196694
Ag 10.127564571484434 14.525338584688752 11.823754610821792
Ag 11.293987448822694 13.412515863469016 14.277148116247886
Ag 13.77787086403442 10.409135710154843 10.946745065315861
Ag 13.156115639103772 11.13392577435695 13.832315730754962
Ag 11.89070660185672 12.443975716344449 11.71281771107846
Ag 14.116708540445426 13.663252969729456 14.753237446852555
Ag 7.66094958221071 7.487782082119603 10.250145930865221
Ag 7.2352239082139365 10.168825929458768 9.772740509107756
Ag 8.255201020443671 9.412506131852439 12.211335371318068
Ag 10.197767667896594 7.337848650801494 11.32987923511191
Ag 9.777791793572653 8.381006985549611 8.712332755111646
Ag 9.31537998683287 11.101532371950373 8.271264850744089
Ag 8.794298244906802 12.134249475957843 11.147272517117482
Ag 10.310335674974107 10.909538955365713 13.473594044079809
Ag 12.465621770573014 8.2562270973257 9.813855832708576
Ag 12.305209528117926 8.78940521917314 12.672720202555508
Ag 10.626797479133888 10.127044837636621 10.710508338024685
Ag 9.980127015487962 8.165151533617294 14.025673470853894
Ag 12.202323452596094 10.794236908096916 8.527742366710045
