10
Energy = -17.67318848 eV
Ag 10.280472893071531 10.416304542541443 12.094406013823015
Ag 10.630454704265636 9.321002060928251 9.656996302907393
Ag 6.080681468934359 9.309050496565236 10.680199154229639
Ag 8.522395047727183 8.40896124855503 11.39823752851416
Ag 12.102300132041972 10.147002081951918 6.581633992282102
Ag 9.555894534633516 6.7319034678017315 9.368369083447515
Ag 7.8676786919631905 8.803631007761359 8.573451905955533
Ag 8.329297356316642 10.99436591948934 10.118080176442536
Ag 10.311622324385032 8.247808116047345 7.150159119482965
Ag 9.617247379684546 10.917757814429843 7.645654660864047
