14
Energy = -25.35100481 eV
Ag 6.2297931897481185 11.81488481957069 8.26728056998784
Ag 9.008467099606923 12.09821298518262 8.310461374359207
Ag 11.80260507993349 11.853461393911575 8.303114980724153
Ag 5.9984801125928024 9.015162754842205 8.265288219565397
Ag 9.053474573358185 9.053211583752308 7.944198463805093
Ag 12.105045888997246 9.07534199956575 8.313330219456617
Ag 6.289452648492493 6.231734189766579 8.243479807901002
Ag 9.084513131741698 5.996967460146155 8.276327639712296
Ag 11.866518885115608 6.282214215313144 8.27750816313034
Ag 7.678943444010738 7.65252158227439 10.047550166401551
Ag 7.640128980521014 10.396706353128982 10.067628932165318
Ag 10.391339638763064 10.421110545281367 10.08428725123963
Ag 10.42509600775494 7.675670355452985 10.070150027511778
Ag 9.022184274473837 9.028842806700718 12.125437228929009
