34
Energy = -71.28745286 eV
Ag 7.36657826785602 14.539993160937962 13.474128707158481
Ag 13.59152605390989 11.749419032395608 8.73263117156105
Ag 11.214204593653717 10.054380209639897 9.112265044663127
Ag 11.972504624280132 10.074252351071605 11.90084881992479
Ag 9.29190028789504 13.756453817287358 15.396474729194004
Ag 13.268214048044298 10.917814609304646 14.311732991541469
Ag 15.122098676476497 9.101980019745119 15.26792482608146
Ag 12.713593753080945 14.824878141937365 12.350476349964023
Ag 15.438992361301803 14.619180358014981 11.557293774705045
Ag 15.790340354360916 10.491896610960927 12.850298865162225
Ag 8.239243128372033 11.443908696341897 16.397008447575637
Ag 8.33034166915501 11.835575242016217 13.618768713129729
Ag 16.07874421980946 11.71432373348408 15.378499354533318
Ag 14.603714057512827 9.765755127835924 10.396154409419466
Ag 11.4737822224874 13.564683369134988 7.8389502505645074
Ag 16.13631780469786 12.132538914980326 10.371448369238204
Ag 10.09485097031105 15.147068366887684 13.130803730279364
Ag 9.360577923601552 10.73837923224822 11.209652632252764
Ag 17.113862339492883 12.92047150187731 12.987868820346868
Ag 13.935018367661153 8.390190537994222 12.83207125529169
Ag 14.635076940365783 13.712149440372395 14.152087268669888
Ag 11.094697371436128 12.392847925536172 13.168681798920963
Ag 13.790966749061479 12.276221082936388 11.756213938852
Ag 10.972532521939852 11.528328125486036 15.8468849501157
Ag 13.660100677115974 12.502746665424782 16.577363889901953
Ag 11.349908424918 12.555909206761026 10.386617637818013
Ag 13.450176900850149 14.394092692190345 9.639445068958127
Ag 10.69830114328249 15.233709516991466 10.232756016735992
Ag 12.61948091563591 7.8725458592473645 10.359974596175773
Ag 12.031422115632932 14.19864122408756 15.077466613093357
Ag 8.275778280500473 16.155364606346403 11.325062944566122
Ag 9.213048132191672 12.076062789114854 8.709728736586342
Ag 8.65628072694649 13.399582377378838 11.262113884380136
Ag 13.51271499576447 9.09530937837263 7.876055780677661
