38
Energy = -80.96185774 eV
Ag 9.998295074760538 7.31038031426196 6.5319800107677155
Ag 12.126113262723177 8.870012608737785 7.45614487035381
Ag 9.540229284293474 10.094578032120074 6.841101119550912
Ag 11.696052711095927 11.771026208417691 7.650732586889198
Ag 14.097728382647855 10.54863270510622 8.476632803967835
Ag 8.253949661613836 8.178255352537928 8.512025529929653
Ag 10.756575390394348 7.024950043373185 9.280053976485489
Ag 8.952468784940999 12.314819649159146 8.426582815920218
Ag 16.396978351090013 11.866589238498092 9.235372644695317
Ag 13.832130062569501 13.370839308413228 8.854485645486106
Ag 12.985984871662128 8.534539070580035 10.132117411566119
Ag 10.429498131770606 9.882672704415087 9.480850015777198
Ag 7.498360371310388 10.38732029352145 9.988063600194176
Ag 11.082376848449623 14.12370401108952 9.0288603141504
Ag 8.386866993386604 14.950648992514399 9.160787685358768
Ag 14.915603019835498 12.84169325266306 11.41432100288866
Ag 15.205878674075445 10.050044965246741 11.025336913598712
Ag 8.849798406297289 8.151715762970937 11.23956200022376
Ag 11.382774782047965 7.069469922233099 12.017463160505194
Ag 9.56869997237339 11.84763614421955 11.189416485637237
Ag 13.83411895541516 8.294544107973012 12.763772426748044
Ag 12.428724074445444 11.66609071741462 10.56481798891052
Ag 9.76043091181059 14.681726751105787 11.546124693408165
Ag 7.862859047492095 10.309645940415992 12.82828997034488
Ag 12.669729755199267 14.553174892421918 11.282753335281742
Ag 11.24795971695005 9.83958735409322 12.281855368403615
Ag 7.192177375009035 13.135890789980408 10.867590058967394
Ag 13.847443738035288 11.020225063236918 13.321679083117475
Ag 8.402576116454698 13.0485555505979 13.47090000064979
Ag 9.576747993585972 8.292932872325009 13.932010787295821
Ag 13.852670971362462 13.797440496474463 13.827239455330973
Ag 11.35523039930325 12.660276920611855 13.085186085834145
Ag 12.134857215692419 9.264493000550479 14.839416420273324
Ag 9.796929119606306 10.928904206652671 14.835688712120808
Ag 12.440100606902574 11.946496776814381 15.608333681007839
Ag 11.378543767380942 15.366345814975707 13.705493942099896
Ag 10.09729346268214 13.623799631933785 15.578781919958265
Ag 12.58096497566771 14.7398563393961 16.160262851117313
