45
Energy = -97.18878184 eV
Ag 10.7440413590424 12.011089102678602 7.807995779223073
Ag 9.821310790066923 10.75258587188791 12.148160924926602
Ag 12.16121952582957 11.754390742972094 16.46924727130111
Ag 8.729038631256087 10.88964686066711 9.490478836372077
Ag 15.845041380889192 12.680711224833695 8.359586404738423
Ag 16.192886889311087 13.903710070456295 10.902572457407581
Ag 9.477979846187536 15.563990895713674 10.290834408867811
Ag 11.692161200735214 12.230154111007192 13.645558635684985
Ag 11.990589545192803 7.407863729988418 10.763453927616492
Ag 15.202803048034033 9.933846254613004 8.355604856388146
Ag 11.00941933757306 12.783105097163611 10.633578995945152
Ag 8.54382700581338 13.50603916052033 8.648301028523017
Ag 8.315644962323187 13.229882989138844 11.47048357027539
Ag 13.326072401185696 11.88520102025367 9.374050167030202
Ag 13.330450452448911 13.175640115921901 6.936753011640273
Ag 13.570065030660677 7.430291956687722 13.077987547941758
Ag 15.778448750678713 12.452984748456574 13.370003272382487
Ag 12.186679628020396 15.781435757995029 10.93465990802256
Ag 11.007638597213315 14.181894114854755 15.529218240784612
Ag 12.779417401922828 9.697498959040505 14.605468050889957
Ag 13.215481137915734 7.912630059272761 8.324148731307314
Ag 15.250948174695006 9.709812255051405 13.24868403132954
Ag 11.318430063571546 9.788979520164764 9.4453779774904
Ag 8.018860576950559 8.975950402071044 13.382185711414134
Ag 7.325973135542914 10.74736438835081 15.521183457382644
Ag 6.75196290636462 9.468016248418323 10.900617895102934
Ag 14.853233311595998 11.157115982824008 15.682669750395014
Ag 6.664386407175905 11.429413834259321 12.843646976464331
Ag 11.3775509411916 14.673124011952224 8.425281257537154
Ag 6.280347339472652 12.160341713466169 9.993319625751562
Ag 10.385292908687372 14.591612125515539 12.772999174383482
Ag 14.089143006399546 14.718476287234118 9.198922495407446
Ag 12.66520243377747 15.7545980958005 13.736721099720057
Ag 13.821961868156244 13.642773148884562 15.051846400702104
Ag 8.81705198680555 12.704581379533852 14.199331678146974
Ag 9.37350846109651 12.173315098919351 16.910026058969155
Ag 15.63868225144342 11.162134491732854 10.869988019539985
Ag 13.541341461534723 13.456192290459597 11.887553172397105
Ag 14.627478341637651 8.50061218138437 10.70150062679448
Ag 10.85986731351407 8.310240746519478 13.140524066224906
Ag 9.290426425572997 8.335141380368757 10.778144991920673
Ag 12.843671549686887 10.504003351898156 11.80691117449407
Ag 12.814160988439218 10.368274921723792 7.008061363371737
Ag 10.040612981088964 10.215525677811288 15.050788603843799
Ag 15.35729867428562 15.215418052520107 13.233178794934926
