49
Energy = -106.06526014 eV
Ag 12.412453068045279 15.117981712180999 17.007215197896233
Ag 12.756691339939517 15.789499603291025 14.242088658294906
Ag 10.57984365565408 15.486977026643384 12.195568429035012
Ag 13.099628716987926 16.383733984557153 11.475374703390317
Ag 14.625605576502197 14.037375698938273 18.279554491921466
Ag 10.251588129463507 13.368400368547594 17.418300505589094
Ag 13.010293110343717 16.781530379367652 8.726638007113682
Ag 10.281969170739233 14.733846189028158 14.97168492320496
Ag 12.581412830512921 12.915141699075058 15.302227881374765
Ag 15.293843913786233 15.579610588450892 9.927668498965602
Ag 12.661835111211714 12.034811012219102 17.949982605576565
Ag 14.979457007873584 14.6927935783581 15.606372996344401
Ag 8.316925982488472 12.693942865139247 15.507413231913436
Ag 15.260382498238137 15.179866475580244 12.799164022112752
Ag 8.553203961003751 14.94495839336333 10.26957682526476
Ag 12.658787532666011 13.604852619063186 12.491056393593745
Ag 12.249252435228085 14.29325865332691 9.746695915711701
Ag 8.307976461195677 14.114703980477735 13.015336062350102
Ag 15.284614858406213 11.974705226715614 16.56508923585204
Ag 15.011538889266161 15.869447588279677 7.053585512033127
Ag 10.07508534632708 13.536344435714202 8.048439253662512
Ag 10.515593699153207 10.890319178200272 16.25747125073449
Ag 12.44084345058963 14.605453156990182 6.92513590094645
Ag 10.349832338657098 12.09351300697553 13.626353627664622
Ag 7.844288246860854 12.368650574567765 9.301716806209065
Ag 8.522297488866183 10.130797865708452 14.312640771784777
Ag 15.225035237135202 12.56050394728502 13.78688660940919
Ag 10.104716915978058 12.84324399835353 10.96014155194689
Ag 14.724709834156402 13.408767090927853 8.21203054319865
Ag 10.053056414921386 10.736079232981002 8.755940219036642
Ag 7.576319290074529 11.616875119921476 12.050644675329513
Ag 13.255808945276895 10.11488363015889 15.838254076113424
Ag 12.392728386633493 11.91053478713256 7.750146124760007
Ag 14.985730484184234 12.990665951853986 10.958196979962512
Ag 15.877233987890735 9.976814031230253 14.694237292647946
Ag 12.923968640018357 10.920650223993116 13.181202817807264
Ag 12.47320990044426 11.438119283638137 10.527235957564852
Ag 11.115453514298588 9.076927712161652 14.102424764983478
Ag 7.7104976636929345 9.631720433046837 9.846679381554935
Ag 9.788018319714286 10.00209672862419 11.692773251879244
Ag 15.404590729853116 10.413815633317226 11.899471380415955
Ag 13.912289555158951 8.317728504539403 13.548641326615167
Ag 14.814952306691854 10.743156355931468 9.153079656065037
Ag 12.480256282572798 9.20427179569334 8.724393824156445
Ag 14.632691269497666 8.14006359094845 10.511581530501898
Ag 10.028808856314216 8.05319831279919 9.518005965525003
Ag 12.063943720816447 8.510486916109238 11.498200281084822
Ag 16.527685500303722 8.045163004375988 12.664428106073768
Ag 12.448736791035797 6.567405220888947 9.548739341497765
