52
Energy = -114.34731704 eV
Ag 15.128950098961983 13.96379045375248 12.41175482475001
Ag 15.47137747116597 12.788962037919404 9.95295666265041
Ag 15.269065471182254 12.01070575934632 7.287135865823142
Ag 16.019238714012126 10.065207915296632 9.53989165078152
Ag 14.657772112133166 9.364676953394156 7.083258203278179
Ag 13.785016037304292 16.31922766222765 13.018622840322012
Ag 15.032351844548426 14.76252378584834 7.99274877608345
Ag 15.234932676338733 12.258598182115877 14.758502982259733
Ag 14.066945687444383 14.356478881608338 16.51788349404065
Ag 13.497782229588214 15.237275719029668 10.398831924006213
Ag 15.242997664395192 11.107331207792354 12.175737432720776
Ag 13.273476733994007 13.634186681401316 5.958049133660244
Ag 12.524810539262099 11.03357529334092 6.558227666657062
Ag 14.511847052551543 7.61109307169116 9.143954562152576
Ag 12.923653445845337 13.020502056802622 8.65915056005964
Ag 12.939530099107213 13.746223004037402 14.11324783831877
Ag 11.30052656163666 15.25660962840926 12.335654570738829
Ag 13.277429217017568 10.365987654940717 9.665237497754262
Ag 13.22372508191483 11.703479738010827 16.654485851971025
Ag 14.716078311115924 8.461063408408894 11.731106221534931
Ag 11.937947099281562 16.115155529688458 15.137225893076407
Ag 10.723680136033531 14.61458892973793 9.683796785510221
Ag 14.956522027424763 9.332854659671057 14.411452108150074
Ag 12.056031305098466 8.53294385126275 7.841230535767573
Ag 12.312711304306424 15.624756423652999 7.703174906252979
Ag 12.678664411467294 12.59229423992494 11.473271955199209
Ag 12.564827330924674 9.031231573794809 16.079162459142562
Ag 9.94236177812376 10.271796246997521 7.060121243514495
Ag 12.770790448436344 10.901254000828185 13.97045017318098
Ag 10.57326140020251 13.20581616075623 7.082842459881968
Ag 12.17774536956147 7.667237167086065 10.61388278480346
Ag 10.547412921234212 11.655213389107244 9.508601955411427
Ag 11.296241548285003 10.124012616715437 11.732630312386739
Ag 8.932355860876466 13.84767131002517 11.660156721418046
Ag 11.275670774188562 13.722532993856104 16.50309206089459
Ag 12.46579359460925 8.025220746594057 13.425636063802179
Ag 10.52326777138216 12.426185155566971 13.48650719336452
Ag 10.53963865314993 10.963446443020029 16.38531281868773
Ag 9.797420942207607 8.83018021731429 9.54346545551284
Ag 9.494841639935618 14.798274253759928 14.472372639707867
Ag 7.770692977926977 10.568447568836595 8.745069185367262
Ag 10.083992023773865 8.707804698047012 14.825118240868209
Ag 8.362368353883447 13.309848724073571 8.915387599409176
Ag 9.803954722792223 7.781638288653037 12.179173258504372
Ag 8.764045506689127 10.45543464663481 12.743484680877232
Ag 8.617468697639616 12.960862571697788 16.402086191835508
Ag 7.540602092094185 12.76538732062069 13.839182919982782
Ag 7.878175098123497 10.413611078315247 15.507126309627097
Ag 7.295555144433258 8.978138534835916 10.978652411196645
Ag 6.995296526169433 11.934128460509934 11.041924267860942
Ag 7.496576629089202 8.173034670304556 13.789748809324497
Ag 5.9888174922735145 10.48453607387427 13.27201202812395
