45
Energy = -96.33436507 eV
Ag 11.787230347557257 8.124828339992508 12.766696193662035
Ag 14.861070387651024 8.678666318498 9.100176754396776
Ag 12.164447472530501 8.810150072663422 10.069033591833039
Ag 14.43955477992882 8.720845674771057 11.927526545214274
Ag 9.089483244523109 7.617674735019441 13.318090820705299
Ag 16.01697132924398 10.950836876701906 7.674478546474195
Ag 9.770612337798527 9.50462399070692 11.364823839819548
Ag 13.275967333706477 10.859668472624552 8.523402207700839
Ag 13.33175253060684 9.874199830593962 14.372352741256389
Ag 10.877265757005642 11.477243835956948 9.804164828035711
Ag 15.738157200244716 11.012593084344603 10.388573744539844
Ag 13.090885266975876 11.09195603388342 11.559664856838788
Ag 8.153779742187814 10.264674406498349 13.518605511492295
Ag 15.587214937179239 11.03829773621516 13.192703477823242
Ag 10.440938839271935 9.320076301358451 15.106573724946482
Ag 14.5965746384858 13.292621906851034 8.571574941563469
Ag 8.899379392957202 12.2889916038384 11.620476724612832
Ag 17.325206587554735 13.036713542088568 9.100322340612054
Ag 11.884405445465928 13.25306659794572 7.9150762268775665
Ag 10.93503843860798 11.34137588507822 13.346356268035045
Ag 10.024997717500781 14.241731572318436 9.795077502841814
Ag 14.653374382426442 13.424419897181789 11.547453710885703
Ag 17.41622349291352 12.877645195692097 11.85581363019529
Ag 16.528425646961438 13.341632586370382 14.444544405562938
Ag 14.881316635903389 11.635424022964946 16.021432820331214
Ag 9.135121737360294 11.953566833639478 15.490756915825125
Ag 7.12885437057599 12.941341474093477 13.73557991999184
Ag 18.339900658553905 15.204629642464317 10.523198209696938
Ag 11.872783273917639 11.602944950596306 16.090572698003168
Ag 12.781358436246332 15.097402627011444 9.791579618907507
Ag 15.59971404743027 15.55046703525911 9.982960770612097
Ag 8.023540683726925 14.914546929372296 11.689123502958145
Ag 9.46034922463136 14.458370640998597 13.968572126102414
Ag 13.409503088628206 12.8682600250105 14.012817137180908
Ag 16.5017059588366 15.53647883468052 12.60690753360349
Ag 11.714049684393485 13.574792133417592 11.94301622465626
Ag 16.02561474863564 14.119311231365222 17.014546276557567
Ag 13.661504862178923 15.982819289840807 12.29250785659762
Ag 7.708972434097199 14.237115930983443 16.230031137170933
Ag 13.289830970578281 14.000244961674657 16.643103364940004
Ag 10.524367500573085 14.137462474870649 16.536453261540206
Ag 10.74210792019068 16.115316133751676 12.019881368636549
Ag 14.797116687442609 15.509349108391001 14.828488557702517
Ag 12.009736016293429 15.382990343912809 14.456371498268876
Ag 6.308999554215295 15.538036622202911 18.043941808486082
