20
Energy = -40.18727922 eV
Ag 7.486182444430253 10.633629118352124 9.420275829387416
Ag 7.999276761513541 9.09249376303635 11.686784242768365
Ag 9.189623303717063 8.891646451909283 7.886555651002933
Ag 8.865790458212686 10.208216050620653 14.144444062966187
Ag 10.571235996668642 8.535719762568135 12.576479852750776
Ag 8.765735979515354 13.069280038807618 9.50006499461374
Ag 9.657939491144717 7.426740830046341 10.204317173796015
Ag 13.54912341606985 10.615987656719017 8.80807679268431
Ag 12.254539664854313 6.757554462433889 11.113427751835808
Ag 8.459775808510878 11.83036665251092 11.940856999324165
Ag 11.363637587221572 10.412641700456852 7.159935372816138
Ag 8.898677648173619 11.61527280087851 7.1770628246416415
Ag 7.011120419869628 7.91551801063543 9.298428572688975
Ag 11.102443329241758 11.24891107895086 12.875271126232752
Ag 10.365759366379029 10.48423518412027 10.104005589820199
Ag 11.932195664938693 8.29781210787815 8.834602677354269
Ag 11.384996763495005 12.76550698006984 8.635067560086174
Ag 12.873598454461984 9.450240282149759 11.295785931317956
Ag 10.57294797991619 13.657706398002448 11.48173342911027
Ag 12.824073803143495 12.184480898817753 10.948479271279224
