29
Energy = -59.14120686 eV
Ag 17.174632896665972 10.810126675040218 13.326864234456176
Ag 17.183723785012017 11.760296742693647 10.743153765702267
Ag 14.781508088118276 9.907509408853862 14.286613063600685
Ag 14.907906712325602 12.238606611439113 12.491005770280523
Ag 14.259372681949705 7.3620916173039435 15.223488567206003
Ag 12.271485998464726 16.66210893883755 13.39328436098913
Ag 15.433177058527233 9.64609546022044 11.41319359238273
Ag 12.532084811954592 11.5735490825575 13.967585781403313
Ag 12.666120398232383 14.050307919720751 12.676340089132543
Ag 12.058397005951987 8.976951404520285 14.910508346845726
Ag 13.492419227511059 8.05812156888869 12.641686822072405
Ag 11.99072912343322 15.911645108459384 10.735390842628204
Ag 14.789743068378783 11.661481105080972 9.457373036737467
Ag 12.704181162506051 13.813734971141209 9.064331548027587
Ag 10.301671948634494 12.456972887993988 12.542451941897387
Ag 12.535051657764821 11.841738552626637 11.034436667769617
Ag 8.21318459659435 12.912384130978266 14.297309298571967
Ag 9.985427492657726 15.221684031387923 12.766036331981695
Ag 9.825835590157094 10.662386160737805 14.59460383926702
Ag 7.392826153017245 15.510097560146303 13.754907684747735
Ag 11.008368874956108 9.57279007232772 12.301906112456281
Ag 12.950522714921913 9.239326420538928 10.21209194905655
Ag 10.13451252226567 13.931283627863493 10.129250903633505
Ag 12.375879330507802 11.119717336713967 8.201378562451506
Ag 8.154883432370495 10.864805729606477 12.055693417871398
Ag 7.785933705511335 13.749572122367177 11.696147379935812
Ag 10.114363061005552 12.63032803163568 7.735015983546048
Ag 10.177408603051758 10.734474514481757 9.932546707163455
Ag 7.911101147386094 12.212490522794232 9.444081724721585
