30
Energy = -62.42372521 eV
Ag 13.76398970726196 7.821370924760286 10.353317957318708
Ag 13.290186511386707 8.371439485884245 13.079415798302527
Ag 11.165822952283714 6.56479956834789 10.607336830987482
Ag 14.389667143535664 10.355835731442976 11.455716727204903
Ag 13.417001986460432 10.248124727568094 8.821321189870229
Ag 10.637522955574799 7.579479757208751 13.151119897333366
Ag 11.932112166403247 7.934166321467511 8.240865220351635
Ag 13.93797689548523 10.880770876579847 14.200445527548688
Ag 11.289400622711087 10.281215034137102 13.580917492799387
Ag 11.432649334439507 9.365725707055343 10.835541498496061
Ag 11.7911299909942 12.14043564669579 11.24726130750918
Ag 14.603724118208909 12.557493180002893 9.730286303589471
Ag 9.30297535301555 8.230287811704203 9.096923066868953
Ag 8.448778439469187 7.0438306728325735 11.449946132946497
Ag 10.73133282213031 10.439184919661402 7.999617592016115
Ag 14.244043673986855 13.00689282095528 12.436386464324626
Ag 12.068777740944578 12.846616736354779 8.468777393582965
Ag 11.975855328277001 12.972777217995716 14.083673964738514
Ag 8.724544640690217 9.553842266166063 12.674757016164845
Ag 7.951762049775584 10.242378227702558 7.7703710752135295
Ag 9.245156863846836 11.142987595263797 10.373294124428103
Ag 9.169968295655286 12.858194649508501 8.132742590143849
Ag 12.987081927043256 14.69301321846376 10.528915473178092
Ag 9.400741320456163 12.351819261211375 13.096475511826002
Ag 7.010401757842773 9.321937899535229 10.40169638261813
Ag 10.6713042537234 14.648249000702048 12.240882515857741
Ag 10.438059879413826 14.895110126095986 9.479284531681673
Ag 6.715878033010331 12.108706089053666 9.372709595913442
Ag 6.922238830456009 11.626337148273874 12.096144935662105
Ag 8.28878889997994 13.865851871831813 10.942730375986027
