30
Energy = -61.22629533 eV
Ag 14.068101646007921 13.133524926137301 17.2725011613681
Ag 13.23991569886484 11.503568905665844 15.287322450017598
Ag 12.424843275909318 14.213469072383882 15.428392553507223
Ag 15.531770056495487 9.032267168060855 11.480668684610066
Ag 14.268123817719463 9.247125143459044 13.949955451387998
Ag 13.739562391012889 11.52966319464386 12.499047563190118
Ag 13.931486372382643 13.513434494800865 10.503941037607733
Ag 12.126747404223574 13.98286370422656 12.59731528912852
Ag 10.075314434106652 15.061485335372488 14.2764682713904
Ag 11.49421089707088 9.75277702589057 13.989588372247907
Ag 13.824423892540537 8.142899437011515 9.174520886690091
Ag 10.55512762417326 12.299667236954354 14.513624779429527
Ag 14.459565153854708 10.833740480063486 9.743104935499986
Ag 15.691965004764693 12.888597595318249 8.470215112084096
Ag 12.736109567933424 9.074577784399732 11.486781058702196
Ag 8.3972206796392 13.113705342397326 12.888556185960528
Ag 12.948217100787765 12.597758523407096 7.914772320122947
Ag 9.733316603839926 15.124878063295984 11.514351000412447
Ag 8.752639836175138 10.385581909887529 13.236561909975654
Ag 11.26690655046228 13.590495730337176 9.849648361959987
Ag 10.983713072436275 11.446699814458281 11.774164842989457
Ag 11.704839428562169 10.450905087954146 9.178725538071951
Ag 10.137552062444913 8.243193671063867 12.08890831625041
Ag 11.019708423762776 7.8471931296620525 9.424393805308767
Ag 9.026759913795287 10.047710023530753 10.293059385989357
Ag 10.019268672355627 12.159377075823132 7.838949269265302
Ag 8.507955346824588 13.07204769898298 10.102729705259415
Ag 6.770191150585204 11.317841322459692 11.376459635603748
Ag 9.45971520774738 9.381887999872921 7.652720361563589
Ag 7.354919064016897 11.261253452974017 8.442742104901098
