21
Energy = -41.94602572 eV
Ag 12.194788137635715 11.135572281584475 14.011935885478103
Ag 9.671776911274495 9.654925207315994 14.498617439866457
Ag 11.191855785367759 9.170159509985265 12.27328064718018
Ag 9.394876812123197 7.203618476561601 13.067578294394611
Ag 11.993692588131086 13.700013778483399 12.712448683725313
Ag 12.811213325837537 8.926504113569234 9.97001012407609
Ag 9.847751905625897 11.812417152518787 12.739761060612677
Ag 10.88673290486308 6.901267586375249 10.756591706854412
Ag 12.257400890345655 11.420641697890364 11.157687284175198
Ag 12.820362886939817 13.831713274676297 9.965764261375751
Ag 8.392896897072237 9.560999933284837 11.81570695674699
Ag 11.694000582787831 7.107624609277489 8.153110548853427
Ag 13.80997945981335 11.316998915682024 8.871868393139607
Ag 7.6240873123119615 12.227064681949477 11.18122194610693
Ag 10.015884471139197 13.665030968055756 10.670706531871966
Ag 11.928442492994744 9.754465841080115 7.400832070329875
Ag 7.369567030761424 10.236802547468551 9.28462568136107
Ag 10.04763947234953 9.319424599999294 9.524198154115382
Ag 8.317862439259848 12.813530621160528 8.59769835126486
Ag 11.051507216452377 12.104405508051949 8.613345904945115
Ag 9.215934634322775 10.562829186134001 7.190647613131571
