24
Energy = -48.84066017 eV
Ag 11.8882247335106 12.980183083038924 8.10987080383095
Ag 9.407859921156165 13.008980564398879 9.556888181474925
Ag 14.358374840666979 12.83038066407567 9.411461588657293
Ag 12.93573996329034 10.484818331741625 9.039676300113484
Ag 9.433123062203034 12.965104930004879 6.7960251277972175
Ag 12.018892212296233 13.36604760243145 10.91358702883378
Ag 9.469418848656773 13.203965938697099 12.27869050230374
Ag 10.252207424425363 10.623933959974401 8.143358252464742
Ag 15.593687395252434 10.2704075176753 9.742449436817852
Ag 13.780214927223598 11.239895341198784 11.754945969254564
Ag 11.801448954996271 12.106493970781951 13.510333668032555
Ag 7.540528974454665 11.276350494784602 8.3231339700413
Ag 10.7743885268519 10.871348493596035 11.007907670249457
Ag 9.57797841415611 12.969331448652373 15.004465386310354
Ag 7.856424685576656 11.04897445193587 11.15051435390689
Ag 13.724314194070914 8.548789746547559 10.966995248678483
Ag 11.175641750682782 8.35606407137639 9.606129274371586
Ag 7.094186028658903 12.27300866604147 13.554669025635175
Ag 8.373714732713887 8.866272850081153 9.378590834199596
Ag 11.938884635067119 9.320086228274471 13.010413340407043
Ag 9.339877960988161 10.613006148098943 13.58142923290955
Ag 9.438048964681935 8.417824582794555 11.982126363278411
Ag 11.742909127340717 6.7706089089850625 11.852490489995906
Ag 9.304551190925794 6.357940232217162 10.156891726626439
