37
Energy = -79.15368951 eV
Ag 9.247068420227821 6.1696958873786585 9.32319138827706
Ag 9.301414563929992 8.826511502285182 8.574689936860667
Ag 9.151394715547061 11.459056901824622 7.600989419010537
Ag 11.770013793976007 7.421732472205533 8.466276211600452
Ag 8.815263420247621 8.116606793638095 11.372711680763313
Ag 7.933238712461887 10.770348492214426 10.01577240904261
Ag 11.688390154392025 10.246776206542629 7.832947318035516
Ag 11.269835208509907 6.452456022088629 11.156945602068891
Ag 11.096089636209259 15.672862282269753 8.730056190390677
Ag 6.976839410599298 10.36893615758521 12.592913965467496
Ag 8.930825680400828 13.836354847319514 9.146993426432834
Ag 13.913526591018012 9.240666614431943 9.235063836748028
Ag 11.41349400215391 13.118755510694118 7.6157702668606255
Ag 11.42362797752477 9.17277829986523 10.553814363008177
Ag 8.745864921363822 8.948444651385548 14.301639853110203
Ag 13.804471442434814 11.963436274380436 8.587152336790663
Ag 13.647380078038523 7.894394322239121 11.747773126883535
Ag 10.640998868555533 11.843556540066718 10.052658234114514
Ag 15.509197010018536 9.970521294377521 11.398456226782628
Ag 13.106327472823025 11.346157432071903 11.422000157793143
Ag 9.783253147942574 10.52218908094974 12.32675618415265
Ag 13.697196252935568 14.705007013345634 7.901054851827799
Ag 11.294483666194031 8.247490468159985 13.303952590993514
Ag 8.225042777464665 12.942886325081389 11.752051232191807
Ag 12.620091536142798 13.983749209109376 10.320043103083838
Ag 13.641278567548904 9.795839725348047 13.834512997448682
Ag 15.379541741749774 12.875628691432427 10.680183705543747
Ag 10.144211286201628 15.125970340847719 11.342568502217343
Ag 11.13882904664389 12.880880843477863 12.784481572815542
Ag 15.494611189923571 11.901606404603173 13.385902326303619
Ag 8.514965295367661 11.860833265528795 14.463075173359462
Ag 11.078672992960906 10.52715786760392 14.942670962862916
Ag 13.877380714594155 14.034511168674632 12.745412712457862
Ag 8.9422534024612 14.60502575286931 13.86068001601152
Ag 13.165688693737561 12.387989653005503 14.89614572240543
Ag 10.634662981097492 13.24042214227399 15.656833365040718
Ag 11.691033285551896 15.284582769809878 13.882045131110132
