37
Energy = -78.86586241 eV
Ag 10.53869787186407 10.714450558798815 15.680477823737922
Ag 9.493364721412352 9.844942050503908 13.358252819205267
Ag 8.218689265849745 8.806059741150008 11.1077298055595
Ag 9.568715728693263 6.911217063939737 9.51432632863622
Ag 10.873052668228722 7.961348244882402 11.789439736622109
Ag 12.28685917211024 9.183658702899326 13.993358748622338
Ag 12.227185024859724 6.181558248371701 10.032270258596364
Ag 13.259986938658747 11.09959796353252 15.863633797489962
Ag 9.278219527188446 12.708283358582603 14.057788042919764
Ag 7.82687470531282 11.541349006467998 11.852794162188264
Ag 11.331464893028228 13.328579127064717 15.958309076976
Ag 6.505883524807887 10.450267718956573 9.57274400836118
Ag 13.58452139106634 7.383843009770067 12.238395770004615
Ag 11.861862415755247 11.908411029882808 13.176863371589645
Ag 10.392183843432266 10.688415124709092 10.72546878837467
Ag 8.973731438171434 9.506044160747823 8.465593562245287
Ag 7.6155046639183785 14.279855411144773 12.40193381222038
Ag 6.2359623356016405 13.160347794790988 10.160636951792831
Ag 8.378616144682187 14.944437434300067 9.732600097332947
Ag 13.865357906622702 13.605983203912325 14.93134296438616
Ag 13.053284798924341 9.99194341726438 11.30031644502836
Ag 11.643914087372961 8.713841377164414 8.888337912836409
Ag 8.619366651407992 12.250730718487846 8.964353028238945
Ag 10.083866523089943 13.497340901692288 11.407029351873284
Ag 14.628931820148123 11.281697806530676 13.40653685949072
Ag 14.280358599487947 8.044660017330678 9.528622862733616
Ag 11.581137068730081 14.702036436111932 13.507696020111451
Ag 12.508204593864635 12.559320868469687 10.212885813802004
Ag 11.053492090120022 11.291515602636835 7.8688820141697144
Ag 15.672215718841642 9.292950034994522 11.693548899245865
Ag 14.07821589445938 13.914642980434555 12.241772861707537
Ag 13.776211990848838 10.571044447809605 8.485016151729859
Ag 10.7602579476659 14.075869773417157 8.57253958554977
Ag 15.24488172325182 11.865984432093345 10.63228218317069
Ag 12.13193928173471 15.361143329211334 10.76809955211553
Ag 13.135377201610249 13.077753951324084 7.455200848560272
Ag 14.543482930854504 14.387605630188537 9.560024474070097
