51
Energy = -112.99035860 eV
Ag 9.634047378182897 9.514938188835826 5.159088832116854
Ag 9.991717908060236 12.173978291300822 6.264395365936488
Ag 12.291073573258643 10.377753646858963 6.066881451137931
Ag 7.519702462056768 10.661475784922011 6.835056440502532
Ag 11.420752485135427 7.714155299636754 6.448419733914859
Ag 8.181144639355782 7.878380530886401 7.070000594480628
Ag 12.609205565319687 12.969546155805123 7.281451222497323
Ag 14.848950738006662 11.163700739344987 7.2705346215459
Ag 7.9098685850545465 13.278258043308853 8.00966936487912
Ag 10.082731923142378 9.823780583883362 7.855554000546755
Ag 5.569893885213512 11.747519344900567 8.72196150966581
Ag 13.91772982768975 8.466459122826468 7.589813274150374
Ag 6.249448632957493 8.914332987356937 8.906939195848167
Ag 12.922756299791333 5.857515583608447 8.000850927077924
Ag 10.003598700315951 5.993325095379738 8.127075203677544
Ag 10.449521181952157 12.544783677241963 9.013628073643018
Ag 12.666699367882314 10.632458410531646 8.890019487675286
Ag 8.044942830286432 10.948897094322819 9.635680828596117
Ag 11.659586821069302 7.809304248059847 9.443920243091146
Ag 8.733144458148804 7.948226258410176 9.85969893871404
Ag 14.415995897950536 12.813407411867747 9.599156789449403
Ag 9.131556710939615 14.801218533363077 10.068066871821648
Ag 6.831417627704701 13.272719939217403 10.840691028193268
Ag 15.289350421866574 9.986330689548769 9.836504539888512
Ag 12.26548165635946 12.181643133447853 11.338438421827359
Ag 10.508949864102465 10.109616288239904 10.572726021913168
Ag 10.492439719532724 16.65422617053508 11.520245704652316
Ag 14.369307781557122 7.245670670358614 10.147720067741483
Ag 14.026189511508834 14.175785660037949 12.111543426543152
Ag 8.35024256434867 9.739438847779372 12.26324498903879
Ag 15.48386907573606 8.657641854107537 12.411891794279667
Ag 14.832361022434903 11.446575108875127 12.278471065795024
Ag 9.41819045029212 12.421986221061541 11.7625838394742
Ag 12.085754799820489 14.702633641316279 10.021668395141106
Ag 10.534545469453288 7.769953967441881 12.17344183393235
Ag 12.999102709533588 9.338094703317715 11.509949919237062
Ag 6.441665987394925 7.87054954554475 11.599477680016955
Ag 5.760969258676423 10.666455479391097 11.367551873120918
Ag 8.470233957235836 14.76928557725993 12.880448921144264
Ag 8.33976806923507 7.596573520594181 14.058786642842879
Ag 11.30040058579667 14.473943084785798 12.890891685873632
Ag 10.967824494096563 10.537671436458886 13.315846834628955
Ag 13.140108063012251 7.198795816653563 13.280535985707685
Ag 12.845195403244626 12.520719969958511 14.156279609789154
Ag 13.54327454419933 9.758836917748791 14.334041305264169
Ag 6.183479729263146 9.500760230084603 13.954181119253949
Ag 7.223128397268932 12.148290774096536 13.499919648403166
Ag 10.995801363211534 8.220903419622545 14.926408284458978
Ag 9.796460720734649 12.830806413094823 14.631143673597196
Ag 11.424103854991495 10.89106474728623 16.0185147213266
Ag 8.75010178128873 10.203399895152629 15.102776751615032
