49
Energy = -107.09634407 eV
Ag 17.575582540828773 9.159499728566374 14.260733174714213
Ag 14.86783423095225 8.605841645634326 13.568889796607268
Ag 15.717852291767281 9.744353951278752 16.122543969109234
Ag 16.745873401636285 9.289050408177621 11.596396312192002
Ag 13.035352531581033 9.515779489229013 15.561076488776335
Ag 12.266983856208466 9.272172741909495 12.766852327407136
Ag 18.579708750337545 11.269365559388492 12.80515999737564
Ag 14.185597884688292 8.175526457695202 10.779816798101246
Ag 17.243641148175048 12.138343648563396 15.53969109865474
Ag 10.387919322791038 9.994054416280438 14.70459081672601
Ag 15.7557558949626 11.330482245525301 13.4470566499281
Ag 14.379017104587474 12.078657255280117 16.54838799641416
Ag 16.365264633232524 9.890468791924317 8.962015129305165
Ag 11.552928483838675 11.761066361189794 16.547917142799683
Ag 13.034722140840845 11.83262137534767 13.99855691344297
Ag 17.09696524731976 12.004243744776186 10.566903419702225
Ag 9.570976131424914 10.082102945480283 12.039541939578394
Ag 8.748274432331682 11.655622787139816 16.255730964996253
Ag 13.730083920549394 9.744637760254877 8.367866291809063
Ag 11.606862619002893 9.558375924687098 10.108645347671093
Ag 17.273766713910888 13.654114722925458 12.819178939585907
Ag 7.652919996753127 10.396769763623325 14.024957612767595
Ag 14.219417773178098 10.868453912473422 11.13257156100204
Ag 15.228333430502559 14.054205941885439 14.807280476546216
Ag 7.533650457262337 13.194431911317126 14.280437335732918
Ag 12.078708226953077 11.959721977154125 8.611964563951867
Ag 10.497933584164551 12.990072099346792 14.159063299026185
Ag 15.831551514681829 15.952441073627522 12.754472286651112
Ag 9.418120443858497 14.405969723325855 16.222684634469445
Ag 13.350733576315308 16.08071238506735 13.934315212558284
Ag 14.182087065561268 13.581541280212344 12.135493710250115
Ag 12.550629927824795 14.241184059955387 15.859222993258967
Ag 14.9284609116814 12.331448022547418 8.734036776324338
Ag 11.63485547366421 12.0702524321781 11.510507393357544
Ag 10.936726179516771 16.4377338108536 15.11746212328795
Ag 11.498625847722248 14.793343371674096 12.05796141745984
Ag 7.0800649268631775 11.561370350555352 11.53742718055541
Ag 9.418067235710863 11.465491802059026 9.640405253331016
Ag 9.117081586762925 13.326005853674905 11.797542618018994
Ag 15.941158521123095 14.540414921476255 10.261071710252319
Ag 8.817305969039086 15.630053352421635 13.608306123334435
Ag 13.6150862326062 16.53247193737774 11.196484436855318
Ag 13.171850010224553 14.401097913859198 9.474651219320185
Ag 10.921909351619295 17.40399591530191 12.470932242681428
Ag 10.385953992990176 14.116317246497875 9.298815905796417
Ag 6.64848830754905 14.58583165930172 12.034734116000141
Ag 7.554454729348664 13.674994616179909 9.540282450052295
Ag 11.303108922118167 16.706627475660603 9.70021183707024
Ag 8.850006877656485 16.028917583359338 10.817406349410538
