40
Energy = -86.13808328 eV
Ag 15.265689085590354 10.151382578816616 6.89119104046049
Ag 15.56038038007545 11.421627790072844 9.474578217580124
Ag 15.717556326425521 12.63004504510885 11.988631133204704
Ag 16.178315928080753 13.869069840300536 14.429192737607504
Ag 13.475203622288598 12.160725375840514 7.680536216436789
Ag 14.608403825418364 8.807967062164742 9.30504132172789
Ag 13.78629154241861 13.568334481500115 10.154305318033947
Ag 14.64002512030213 10.066496457283877 11.897162663454267
Ag 11.545566432428643 14.02925528665158 8.50452625114212
Ag 14.056050840166495 14.775762080356946 12.749807401528095
Ag 11.825067569798668 15.31122924663943 11.153503475914048
Ag 12.620924765252722 9.438149029295992 7.376046083166573
Ag 14.645333664786085 11.472725541570473 14.378138671800297
Ag 12.643397723718547 10.846516148389465 10.022792132892716
Ag 9.630544625945772 15.778601782741793 9.53020185804939
Ag 13.58838300808048 13.912382865553834 15.383594731572984
Ag 10.608032435066177 11.359151167580718 8.062956764655496
Ag 12.65835441849601 6.889306935950488 8.678964052250125
Ag 12.629863588227016 12.207993530330707 12.554487753507342
Ag 11.373953824749 14.477445115649626 13.802589354279277
Ag 9.089341998977499 14.8752641470572 12.153308911508802
Ag 10.691283489195936 6.250368883655942 10.630290756624703
Ag 8.616218549694851 13.25190719937522 8.69704693108022
Ag 12.695341618692975 9.458562758908025 13.843593204707805
Ag 7.190980412638516 13.488222981711932 13.832984812022282
Ag 8.597730279327147 10.57358690433171 9.868482721747803
Ag 10.497131991365915 12.716342438029217 10.763730404817748
Ag 10.674242117872245 10.106682691824071 11.898930388703063
Ag 11.807430536345462 11.780319291977737 15.24102283550536
Ag 12.708305594987593 8.103334858629653 11.257920850324957
Ag 10.620202995530624 8.727851796748014 9.211912938736692
Ag 7.026523946753639 15.165142565343343 10.156767698620493
Ag 7.737570964057664 11.235975234637294 15.311025276324866
Ag 10.72787048109641 7.482185237416789 13.178813338042376
Ag 7.740367807373945 10.321247656441193 12.668863649671113
Ag 9.639925466718424 12.320007019327477 13.467572024850057
Ag 8.705082346738731 8.101625244399907 11.229352235100029
Ag 7.477758739646521 12.68347067628023 11.221427756017091
Ag 8.034913569092442 7.840639337019031 13.950051674837898
Ag 9.991180813993635 9.694488442687103 14.729325701291403
