29
Energy = -59.77958736 eV
Ag 14.128349844160853 16.505026745360595 13.75514924925997
Ag 16.07116894257773 12.685789977774466 12.894545630648018
Ag 14.409979126668297 13.95376969993416 14.8577939795289
Ag 13.842395435151033 14.284949799847842 12.073829976754265
Ag 15.609450463945704 9.903340960516818 12.208576905603616
Ag 14.393920343974198 11.89402594304949 10.719498280283744
Ag 11.887398054237737 14.998832214781089 13.939508833093727
Ag 10.758623668405507 14.625641523268134 11.38998773601685
Ag 12.798983103537653 13.844998305449614 9.52720531113707
Ag 12.042810476139712 12.681400094330018 15.635136800404966
Ag 14.219037807627592 9.31169912744161 9.722809421433592
Ag 10.218860684127863 13.231518371938213 8.940175945761524
Ag 12.185840034736175 11.119237503368065 8.813457948974758
Ag 11.666449386008434 12.044279935398505 11.522406796368092
Ag 10.187407199685929 11.63077932278857 6.7336234176569
Ag 8.74762769678129 12.50425885650321 11.162788300987154
Ag 13.722477368699973 11.544416703878587 13.649670776434853
Ag 9.454481043179726 11.533792895349599 15.920803556524731
Ag 9.906845847814722 13.122048249631526 13.658727883800559
Ag 12.800022314843714 9.405261031040897 12.065752219006937
Ag 9.53435676323872 9.993791856891178 8.780009890765044
Ag 11.124185099302965 10.549214108667949 13.99394509112439
Ag 13.490956759023407 6.931509667092766 10.951875332151467
Ag 11.56201018309919 8.322655582553406 9.63670646051008
Ag 7.704975985899886 11.97205730411038 8.525464341035354
Ag 10.024781022471759 9.68596313218961 11.58834215166384
Ag 8.272181439663157 10.807571259458323 13.41461588678161
Ag 7.387413766935659 10.132768777419619 10.699594397406361
Ag 8.781246791306403 7.713637703211025 10.152234132127598
