53
Energy = -168.87480038 eV
Al 9.9399670156498 13.441125426691297 15.779308771314879
Al 11.920158830232724 14.995697283626997 14.860945218478566
Al 9.520628766988798 14.726511548994301 13.342447334797615
Al 7.800814206257542 9.792866455112689 13.995620283027844
Al 7.431830429093389 11.32327440239995 11.705703861429887
Al 10.354298556934895 12.0843025580423 17.98627423327191
Al 9.366424991997148 12.011575435498147 13.558506736634365
Al 9.47455150012247 10.444325984079589 16.01913882646447
Al 13.885564632522373 16.184027058553436 13.542963654093173
Al 14.420509061321377 13.84799009014841 14.871845778126163
Al 11.294726895581897 16.096892817819985 11.88334626064199
Al 12.648352739035811 13.290476219524901 16.946347924835873
Al 7.647074443415122 14.194288848666174 11.467946238402105
Al 12.044029917564922 12.128852545956429 14.547156471146057
Al 8.5570278934085 8.748242531278027 11.669154642136606
Al 9.409203397547381 15.039349772642304 9.526595765585746
Al 7.776954557222568 12.540448684552635 9.223007058585836
Al 12.137405883617728 10.473222235439044 16.703457372837466
Al 9.663266082383597 10.560640798316788 10.032187023971812
Al 10.54736762816396 9.634792363228987 13.491628263748341
Al 12.710211427535768 13.791085935580742 12.471027271357867
Al 10.065823015790224 12.973987993137941 11.18146368730238
Al 7.007807374743218 9.78776522843536 9.480312594854611
Al 9.280158848896502 7.278387004702201 13.9415224226852
Al 11.830650073952807 16.834814390372618 9.288303633776172
Al 13.949719605819386 15.81310591826412 10.919253594272671
Al 11.913758071696028 11.265545911579434 11.989037466450041
Al 15.627977147496493 14.250820163095952 12.501582058999734
Al 11.995653992773194 14.138317435445956 9.774614556657674
Al 14.065828792624323 15.082360992818344 8.342092594253609
Al 11.228362157972665 8.155311508596077 15.68097805949168
Al 14.520918794387812 11.423270146243965 15.842029705190033
Al 16.351113935904376 14.843282224762673 9.982117634156024
Al 10.33366063707125 12.680550098836543 8.2795767286715
Al 14.189292360806839 12.927365520140128 10.376090113151946
Al 9.975327238720961 6.354753727952397 11.465990596239092
Al 14.609383154035152 11.630562885928786 12.979866323912532
Al 8.92173181064907 7.917780189887743 9.155964702408667
Al 13.236679087026836 9.608699408312082 14.310688506568882
Al 8.755411809722082 10.40530497474874 7.462827361635002
Al 11.270176080916945 8.627268823792988 10.83158515508776
Al 12.3305350559928 10.847823252064805 9.435216305548826
Al 16.026692767475083 12.82843550107481 8.30927061187631
Al 16.596896798111427 12.054144416036921 11.08595016168637
Al 12.167542248101103 7.351528233525797 13.18324853907958
Al 13.216831060835203 12.667108077208413 7.628762341726479
Al 15.06752936616754 10.498856312177884 9.328147690580531
Al 11.181436178673055 6.412877770010215 9.052857528313783
Al 11.227510784607825 11.158458085793205 6.234960326213333
Al 13.825872166328853 9.263993326138213 11.595242018838546
Al 11.043963614835873 8.92348691021981 7.910241336234169
Al 13.393289992083318 8.06649396042641 9.105037583464444
Al 13.510594820311743 9.90475670518226 7.086449789837184
