31
Energy = -64.71283858 eV
Ag 15.023597870329777 7.907931891033373 12.6355450699969
Ag 12.403219201363019 8.734495928383428 13.255898130018073
Ag 14.505579390665972 9.781205675778038 14.842248098165978
Ag 9.81763612733011 9.671634109925357 13.700145346602223
Ag 13.115865960063685 8.53907377723297 10.487591938152969
Ag 12.075564557129997 11.170434273919025 14.63529782407074
Ag 9.568423294616753 12.43068585828471 13.83998826791718
Ag 7.323640222050562 10.870904558274159 14.335517869952909
Ag 10.40009537505514 8.641155020154502 11.158503351824315
Ag 15.855275342209092 9.042025918750825 10.193309886833802
Ag 14.560782536509558 10.552854357524833 12.198702610934346
Ag 16.37123777105875 11.82467460109881 10.491238869093696
Ag 7.663501608682312 9.531459465637216 11.891381800959588
Ag 14.473734054184979 12.584540546698442 14.13189842129675
Ag 11.598222606050463 11.16217901262843 11.756822720187333
Ag 8.283337032297425 8.51053085501382 9.401501683707433
Ag 14.05053538991303 13.137169702462813 11.267882187114653
Ag 7.407484341959601 12.352360941039423 12.007376951377903
Ag 12.019579627743148 13.616820202049077 13.267856601697998
Ag 9.264175867788124 11.17746041970945 10.0867377844187
Ag 13.907898989879424 10.987124127951635 9.411640062353504
Ag 6.615899044661294 10.888378134397888 9.534778659414602
Ag 14.259981621367798 15.21059690170938 13.050039868745957
Ag 11.352035199437255 9.966379555850295 8.756517158487451
Ag 9.850604130407026 13.71826668619448 11.41549497639507
Ag 11.798076009236157 12.835455031524132 9.487298892366175
Ag 8.763239153243667 10.23639119978355 7.39944570976985
Ag 7.739042797746586 13.572698665952222 9.552230181589271
Ag 12.245285927483847 15.259572159640665 10.955348380985026
Ag 9.68293771213183 12.766258601015405 7.7230468469333475
Ag 10.10536731079535 15.175791597793124 9.087118511343173
