41
Energy = -129.01689127 eV
Al 10.029987400177058 14.064873457879782 8.471759323747056
Al 8.079877272772924 13.253938358552965 10.200522525612868
Al 11.969980506399681 12.137870819632044 7.890619078331259
Al 9.792902433879568 15.296141886298905 11.060054007017323
Al 12.561585682534464 14.699185904746987 7.627373373177118
Al 11.574568273540454 16.369050367412367 9.456202076148985
Al 11.5149349139538 9.60905727226826 8.209396873088426
Al 10.070303431546925 11.40448384726389 9.773390949758276
Al 7.384587737059419 10.666310285177186 10.252101861597293
Al 7.024890311540283 12.062731516236983 12.576401853778265
Al 7.894962102077344 14.607173421890941 12.769109242034475
Al 14.495064768753407 13.057557862212017 8.604240730033686
Al 9.712030408452863 12.601246102728272 12.270587073859451
Al 12.04437356233483 13.698484893817048 10.228510704394221
Al 9.130932558202531 8.93620889866523 9.251922368226431
Al 13.01105595457714 11.221123060105734 10.40864732254296
Al 14.248886533905592 15.733737070438357 9.750392691441077
Al 10.983700403448154 6.997618181915128 8.749642030733462
Al 12.657044738332553 15.584191681020316 12.096383971531445
Al 7.02174328928246 8.110905479004293 10.834407089287414
Al 10.58017174278464 14.82538753879498 13.720309630256741
Al 13.527928709471395 7.777476098185092 8.824812257658547
Al 14.693402808152195 13.589072310352478 11.373108436240326
Al 14.320875222189404 10.298046597654876 8.175425434119171
Al 6.478313261287389 9.488741262953496 13.098918298423238
Al 11.63673974153822 8.665018620088558 10.794343661431052
Al 11.425231177359347 10.667869252167815 12.540652404410615
Al 15.875617160554382 11.354914056449571 10.294907628059306
Al 12.579613319830816 13.043550473253745 12.89003341261581
Al 8.717677772068678 10.77663843654651 14.358465044965557
Al 9.330697487773408 6.781561160636725 10.883006151468289
Al 9.162675930018732 9.416303601350164 12.016657072288702
Al 10.782148448910153 12.380322014656699 14.834073285229492
Al 14.67126603737779 9.033318043985355 10.922099550732346
Al 13.405692666301551 6.5435013258929695 11.383485264919353
Al 14.5475715166923 11.147658087324466 12.7081921055927
Al 8.448581991882664 8.007957061713752 14.358272330337563
Al 13.11117183278729 8.609198700248486 13.1188812558199
Al 12.950610466607712 10.773006509401428 14.802026780725651
Al 10.950618750149383 6.8970432067491245 13.013187299922679
Al 10.879341585043042 9.07457733812601 14.691992709685485
