41
Energy = -128.62180781 eV
Al 13.322379223806363 12.916396977139138 7.3752210890048175
Al 10.11408776729392 9.580747426647424 8.061032848406144
Al 10.816984551438939 13.103651134733369 11.180302991871994
Al 11.573552525647168 14.485486490250386 8.589620640732237
Al 9.114550478959117 11.046534801403912 15.135778133481994
Al 11.17873947277434 8.61454144485076 11.60916834493119
Al 9.526435206638155 15.101267545942827 12.475277927910842
Al 13.132482876597992 11.784996632440844 14.311032323663685
Al 8.360918227234071 11.520638549385167 6.938022240838191
Al 12.391426019819464 6.25147214559289 10.634194550739545
Al 6.837833593281689 10.806403329369472 11.137282154368199
Al 14.951459843701262 12.382928332262487 12.351797294542534
Al 8.543091725652651 12.224790500847863 12.64762199944031
Al 13.465270022395831 13.425515695375186 10.29941952898138
Al 10.569851052480283 13.248602990747102 14.084994590550332
Al 11.967446993309936 6.382446103344393 13.2397154049987
Al 11.684734950938962 11.57962708904036 9.180161407915833
Al 8.354874031108771 9.486522794403575 13.047752799428567
Al 12.593590933939875 10.218091644472521 7.078096240722633
Al 6.684036585844644 12.421103511385105 8.844890147837711
Al 8.901937430486372 13.971562989544598 8.067306026650657
Al 8.460787454598618 8.466316363652444 10.559482442773502
Al 12.95478260224346 10.707500238063066 11.547856817257044
Al 14.394580817050963 11.169193869668918 9.022547871728378
Al 7.907857457543088 13.892538267002273 10.66448677867904
Al 10.448928641505697 7.27872754470013 9.265939869288612
Al 15.53623467643903 9.97016293530508 11.003323379502557
Al 10.783936061237911 12.520850206091882 6.624614196922004
Al 13.950902267489484 7.996374362522751 11.845805763724615
Al 9.336603622419881 6.808740491972001 12.575413058726747
Al 10.863726878190503 10.695020977173389 13.148539747344836
Al 12.900408870537715 14.118359483291258 12.924157856401571
Al 11.979018345492781 15.660470351943536 11.028671967807457
Al 10.334653534124575 8.306576259479362 14.611859323845948
Al 11.648506099971959 10.285083967126221 15.88318004600258
Al 9.592816947423259 15.903326448353619 9.873764644403103
Al 13.049972660050571 8.482185481150333 14.450513732487401
Al 9.111598359809047 11.444075894157505 9.821441474269204
Al 15.096065406927595 9.925243761607703 13.586561067367192
Al 12.870548370502597 8.772242593028604 9.384239495711059
Al 7.308392617445647 9.686287993894068 8.56014375113006
