41
Energy = -129.02443476 eV
Al 9.478102560666118 12.255197103703308 8.479320455520371
Al 11.254406344017816 15.413645233867197 10.134994308356754
Al 10.066635210911294 12.990224215466883 11.086598992773348
Al 11.8781309047511 14.893634208747972 12.75877319330672
Al 9.285182511606916 15.426970600911796 12.095826735479188
Al 13.071120523670194 12.844874519564119 11.225267734681863
Al 14.56975701840598 14.068325129248818 13.119750953224754
Al 8.801851360683475 14.703684479345904 9.33984951352404
Al 11.612270232307091 11.111387190688797 9.844996546424765
Al 12.370467323450336 13.431505983950185 8.607299875857022
Al 13.795006429044115 15.699285946029816 10.924968567001436
Al 12.54741500960574 12.74727594174247 14.382710866252102
Al 13.524321570237817 9.796005090878161 11.094119414083154
Al 14.946061973754224 13.87814011989345 9.332280676554218
Al 14.272219459016386 11.34649196319187 8.813856789854636
Al 15.793225833680191 12.344872340804805 11.332553398873802
Al 16.212573231071264 9.699302025462744 11.691476080064522
Al 14.400781572966979 11.174095656174925 13.2534902726611
Al 15.495271512720011 8.885206044901487 9.226816906145885
Al 11.848835246982466 11.15679728801814 7.141287574207984
Al 13.846320435376162 7.1091180300386885 10.58686959026604
Al 12.54568020169812 9.709269387711561 14.621498165851987
Al 14.495039071781331 8.299380823247072 13.167648527179512
Al 10.505502282893778 11.224308743122673 15.440710667372885
Al 9.934172553199355 13.285286348820206 13.765090048961104
Al 11.315709664878995 11.058466793245545 12.592249831833122
Al 7.278329945053251 12.720196809330897 10.435358023751132
Al 7.319305140069819 13.579145623630074 13.160390888867909
Al 7.963523401808493 11.755300352201793 14.986603773211536
Al 7.418118681267191 8.581129468604251 12.20383492137118
Al 8.32386535953302 11.147851573611948 12.391818573141476
Al 9.459444860015788 6.71912011681853 12.141293978024976
Al 10.041341340860498 9.482619450026505 8.350934287233567
Al 8.56991825818498 7.58034939418088 9.599428118281187
Al 6.743021147034679 15.284717825654976 11.11604282570111
Al 7.715122053805295 10.194381821998629 9.789546334319038
Al 9.961696614351094 9.356252077346383 11.125445899047898
Al 9.628518747837331 9.16341622297696 13.836124756262278
Al 11.88549475428451 7.912829849287638 12.559217039796224
Al 12.88098685821547 8.964421249101543 8.573411829504648
Al 11.244853298301173 7.213761054662342 9.96984353943983
