41
Energy = -130.28051226 eV
Al 7.398601410267475 10.662147676557911 13.821816615055914
Al 7.930820039340611 13.340737812930866 14.353996087210016
Al 7.68259261772896 15.013463472335669 12.196103855217666
Al 7.309672309120088 12.41344892327552 11.57585648107093
Al 9.830700991940352 10.35097939848072 14.951395091505463
Al 10.464210090376573 13.094104874789341 15.465959909441093
Al 6.964292174024321 9.737939102135075 11.205490303142728
Al 12.141656074419185 9.986034460536082 16.15134979659997
Al 9.669394784531628 16.44655712344179 11.07336707028765
Al 10.139571594869853 14.817122328942304 13.368686248701817
Al 9.407740068287726 9.328374129924669 12.42284585640664
Al 9.76871643764599 12.076740708836077 12.776133212673376
Al 13.022474458159785 12.720153652450875 16.335257237517695
Al 9.482641987015553 13.759025903918186 10.542049220478155
Al 12.158304410390041 16.199663912346853 12.229760911490787
Al 9.187413748522268 11.114541913020497 10.118746765456203
Al 11.715881609126999 8.714633626564913 13.657015889636668
Al 12.197148789614038 11.653517715663941 13.887835393274122
Al 12.624907777930794 14.597914481587614 14.427013086146081
Al 8.929222983187888 8.413000070491389 9.805226798677074
Al 11.903941919658356 13.480818935050207 11.745209497762364
Al 14.82634281117362 12.599872839753509 14.327139060945944
Al 11.48707813998579 15.216233958720535 9.449455385013493
Al 11.57740386746837 10.65449386584113 11.318031675570555
Al 14.378962656865193 14.521819240369819 12.359500282641216
Al 14.11465688942254 9.775474758996701 14.434380269614367
Al 11.326194363346925 7.919668990122468 11.018968608309597
Al 11.293920992326498 12.472347875603743 8.959963319887168
Al 13.901252870685445 16.23947511603218 10.158106892000347
Al 13.671018552542265 9.002127880349155 11.813907257710815
Al 11.070573791306693 9.722670776154304 8.673985667610436
Al 14.026994417542767 11.77092681045399 11.837801436028464
Al 16.64916444917328 12.920352006766548 12.297912554836351
Al 13.683158888263133 13.567742574273032 9.672939227516174
Al 16.065428501455138 10.2078671035752 12.78474072637153
Al 13.471987548400184 10.873329516595378 9.296561594205974
Al 13.30341135899132 8.123581296421127 9.116342509007644
Al 16.168562154797918 14.727259616794814 10.20257485169191
Al 15.668546845575364 9.341745747016052 9.954383818320148
Al 15.911193325357143 12.089623446862609 9.671014089807528
Al 17.88160493563771 10.73982999249363 10.948539081634543
