33
Energy = -102.53411767 eV
Al 16.12594146445577 12.205228574926231 11.57832207602135
Al 15.4373874730294 11.758653249412816 14.092542972683672
Al 15.365889580792466 14.69921530280789 12.074900007563183
Al 14.751533334518077 10.787222629635153 9.878965476740527
Al 13.901425697909824 14.021792364490906 14.207295078781073
Al 14.25546987001946 9.8806911782984 12.519299058083249
Al 13.93800391210308 8.182739040368178 10.546636787530279
Al 14.38785896720563 13.668078634541143 9.744564216037777
Al 12.97873817995868 9.350329475322413 8.247440689305058
Al 13.431553990055173 12.43875387657709 12.015824262672266
Al 12.857780928871577 11.305383339214528 14.4479252660648
Al 12.742711008476576 15.03819010831596 11.542691688481625
Al 12.12580046906768 10.39436735794147 10.540885627347134
Al 11.386727219419084 13.591695465869142 13.717524394527372
Al 11.314572087367937 7.658580853475359 10.646234024662808
Al 13.30557329752358 12.084802639603167 7.897026070870446
Al 10.25159330446651 11.221624068730858 14.783223167801962
Al 11.509771631009015 9.351348557536324 12.964178733656416
Al 9.579888586446865 7.5405987342924 12.735295821141154
Al 10.799994299958644 11.291967518941583 8.289061306330005
Al 9.949092580027138 8.587319403242692 15.166218615985088
Al 11.741461530015085 13.147756686072746 9.912197673226556
Al 10.188217216718128 8.703090383337488 8.356964511330538
Al 10.061673091351032 14.564770222158044 11.531311001323855
Al 10.407141496844162 11.768548041922205 11.940660911112287
Al 9.346755912917889 9.501957032680776 10.825607535021643
Al 8.594938378337726 13.03372977406836 13.495653622577349
Al 8.385435347875001 9.928549781538436 13.319922127434335
Al 9.031777970524008 12.931159460361826 9.620497196339327
Al 8.15107801607175 10.549384939705531 8.673938857708142
Al 7.355509613269534 14.207125879302419 11.305447099793627
Al 7.506159828128168 11.414092064867228 11.441427007367462
Al 6.253011234631265 12.611720879806345 9.360784633842588
