35
Energy = -74.23646224 eV
Ag 15.162060039845905 9.460591015062978 13.718426733213207
Ag 14.038436744672264 11.837680486400131 14.425860486934909
Ag 12.041735634166908 13.738501253984266 14.785870252958572
Ag 15.669071321511343 11.667475006341606 11.96564553818837
Ag 16.666194966101763 9.028846461955311 11.480112153632653
Ag 13.702782465331541 13.70792800815461 12.37725197906789
Ag 9.382439149131372 14.70549005931546 13.97431075115001
Ag 12.653039322042392 8.479212716637718 14.056309853768177
Ag 11.383080914795917 10.914459985731986 14.51264309638342
Ag 11.705503697922046 15.643727722104583 12.741789261626655
Ag 9.738905834746271 12.658136564894578 15.918130945305915
Ag 14.023601424561893 8.006744117925042 11.576145754886259
Ag 9.85128210367057 8.579149190553812 14.022964864034805
Ag 12.95368482527141 10.851881401552951 11.932421220989008
Ag 10.819021257312677 12.840271938198311 12.372711360284377
Ag 14.79228148668525 10.03044785935934 9.726250287300685
Ag 14.244380816357513 12.75425555078944 9.740046101820292
Ag 11.41426512527725 12.036910672633551 9.76523286653517
Ag 8.579319930731824 11.055730514179192 13.832813867726818
Ag 10.220335206141868 10.085332594746697 11.674766821750234
Ag 12.68468445383146 13.609069055170645 7.574266613562799
Ag 13.059241246572164 10.886350151801357 7.705126832486528
Ag 12.159246457356042 9.07802696608532 9.704711745187252
Ag 9.935096429323007 7.513893270549408 9.421451747539196
Ag 11.271376061592505 7.450046380324367 11.860624431637095
Ag 7.206940025411497 13.175167514086551 14.960473788236426
Ag 12.332296653920185 14.806526687361721 10.159098913764792
Ag 10.954513285199239 9.073369235471016 7.187842591093341
Ag 7.765052519725534 13.211160409642678 12.215015390573125
Ag 9.543846722473473 15.006541190821302 11.017652672384493
Ag 10.18415281819799 14.497093072937249 8.345697049868885
Ag 8.516490303942176 12.701854250582553 9.565698674786416
Ag 10.349625606996112 11.912493273477475 7.192835751409812
Ag 7.518058234630401 10.632744655351791 11.223936036999737
Ag 9.159713924805699 10.107353522496021 9.010882590702531
