15
Energy = -28.20269265 eV
Ag 11.503771644468774 11.223614169523742 13.23425607560385
Ag 10.900445197880186 9.332042403359512 11.26816782580746
Ag 11.736682106364627 7.091336729168103 12.588786250342942
Ag 11.828660498463925 11.911880195077762 10.516120483661284
Ag 12.15033863715181 7.285212131847185 9.836650138398522
Ag 10.816375882738692 13.823882625918738 12.289979617374831
Ag 9.43013842863514 6.976823309020579 11.027063698453597
Ag 12.09832800550278 9.789887505027005 8.678174523623143
Ag 9.821256184748062 8.13481812006604 8.509506364585256
Ag 9.227823755522829 11.624162475598867 11.631852517776968
Ag 11.647233903731395 12.61118596434711 7.87222035679491
Ag 9.739418072744014 13.648773701765661 9.700824901856432
Ag 9.555731437688653 10.978466049751283 8.60678819335247
Ag 8.133667619549662 9.344686953122997 10.413246019047097
Ag 7.329255504476021 12.148519994862063 9.719612179778572
