23
Energy = -69.26129913 eV
Al 13.833701902957733 12.340102365190587 10.375855795460616
Al 12.179528468032949 10.776834662910009 8.644849256372016
Al 11.50015732098907 13.441732941977966 8.63616709979147
Al 11.236053797429742 12.718770758298959 11.413453868235116
Al 13.668228926869249 9.524199853297324 10.477586343768161
Al 10.386331803175679 11.467913889965406 6.756107878057259
Al 12.927664304363084 10.957500029829887 12.608229968607755
Al 9.022528393154312 14.04000518358394 10.630912797765983
Al 10.806755055483073 9.972267692892649 10.913443611970978
Al 8.74349267017528 13.580098979431225 7.858764656040098
Al 10.613451410121291 10.56699596158729 13.66752845776319
Al 7.051201842288975 12.235085292499729 9.875033728878998
Al 11.989401401237394 7.793701319915051 9.599965189005387
Al 8.727087545193475 11.623723646554254 11.93255217556058
Al 9.652305158715958 11.665468274414613 9.389093654938945
Al 11.62818859696896 8.159235523759744 12.482077849360502
Al 7.837064601956329 10.767864709317648 7.612678563317834
Al 9.965792355020229 9.17766878553217 8.325527647405732
Al 8.841099268351503 8.908661260970668 12.694987463683528
Al 7.845546447070005 9.634117816972454 10.15092981099053
Al 9.461202625259071 7.456643624833324 10.440888996906846
Al 11.39280409649895 5.620902634880094 11.277889590642172
Al 9.43516334650674 6.3095923812604875 12.95963280198271
