23
Energy = -69.74371021 eV
Al 13.375250679871222 12.696760167390643 9.562695825837261
Al 14.374757800345932 10.590557520611416 11.125429857782187
Al 11.132984300581978 13.676239497375278 10.585805471151815
Al 12.531427380240165 12.237776794441029 12.278283239629724
Al 11.960954071033996 10.489002228165395 10.062458842925343
Al 13.08454823076787 8.10132958980261 10.783829113480591
Al 11.67586432924403 11.594814655055085 14.747353198732082
Al 10.579135083225463 12.252174538768765 8.32355373021995
Al 9.97229658567236 12.829111756008368 12.890596039298172
Al 12.373230691256119 9.640456875178371 12.92104744224264
Al 12.699890515581538 11.081358525776977 7.396271685110435
Al 9.57818598095964 11.12398560716388 10.721857806800955
Al 8.538480981990029 13.638618557573679 10.447720134970133
Al 10.826891710612047 6.804140746511529 9.300053216723272
Al 9.782444686498165 10.222107603744337 13.47506610575967
Al 12.413918791628753 8.61204097841427 8.168312053776027
Al 9.873956763114023 9.562969074946482 8.425998102480738
Al 7.970728866812462 12.122780548722051 8.308674264545473
Al 7.378916509331483 11.722505028354599 12.015024336866748
Al 7.369998919304735 9.985848094849064 9.551737867849397
Al 7.914386109143983 9.078102358995768 12.048844636199798
Al 10.459276269473413 8.571617093816485 11.312723886712904
Al 8.380368675788892 7.60007106328388 9.785849141363473
