23
Energy = -69.45874433 eV
Al 12.392232224630355 13.617110521539233 11.612616774552539
Al 12.005010411788465 13.72242366489119 8.940701851809935
Al 10.082763233722872 12.76614928048921 10.637188178394794
Al 10.588262654281662 12.305883500394133 13.263694774004739
Al 13.263878706350368 11.310950412402079 12.652715795510042
Al 13.072130684699385 11.399456444513303 9.989943216771538
Al 7.495389551379352 12.282799508372191 9.72561763295283
Al 9.572897233225444 12.971613049853355 8.023582570090753
Al 8.439443044068716 11.17551908845588 11.948525594847105
Al 12.059271792026646 10.857925610210101 15.050147176094764
Al 11.68637898513273 11.173711597668815 7.76767632212781
Al 12.364887352164404 8.779088029368973 13.421232420408435
Al 6.986254020278441 9.631530808360665 10.03973148322258
Al 13.65376437400127 8.97715072367805 11.096316845519265
Al 9.794178425485885 9.648264273729064 13.77596648182523
Al 9.427467731159233 11.06856344897009 6.19475665109404
Al 10.236277286132449 8.753061887722506 7.13553725523824
Al 9.407880677518014 10.45480429246438 9.152081582533423
Al 11.83688663208735 8.879716608572172 9.216259267641963
Al 11.034115619218715 10.26570526266313 11.417003894981894
Al 8.363481704325467 8.436226911909412 11.952811612695282
Al 9.188111119365331 7.802147591842657 9.411796823934287
Al 10.971847439744053 7.582383130559036 11.466068016014422
