29
Energy = -60.55515527 eV
Ag 11.569427095133804 7.1934213079360925 9.124805685531484
Ag 14.21941140279079 7.9987781052076175 9.210199759370896
Ag 15.048289428879025 9.517616730807404 11.441060058377472
Ag 12.171646804104208 9.472676340005643 7.470193538312858
Ag 12.587252627652445 7.935882339019305 11.646164017877897
Ag 9.447593447042534 8.52626644648 7.956016765654384
Ag 14.792597802886027 10.421087733942066 7.984746298487117
Ag 10.116221199203114 9.024812883795244 10.637822581694907
Ag 12.712124614080146 10.25526861370009 10.059027386200386
Ag 10.204531399196581 11.158130531761886 8.623078750893354
Ag 14.908654137946117 12.11068201501345 10.194373909264112
Ag 12.794300169005043 12.38869129014053 8.25844599933641
Ag 13.58509348692784 9.140636569458557 13.934499116875244
Ag 10.958804526281298 9.745043628375896 13.181941535135522
Ag 13.388768264278877 11.571308079066174 12.53398447529613
Ag 8.369832975746442 10.616451341076129 12.281354978256994
Ag 12.233386400451318 11.321376531725337 15.125678680724297
Ag 7.695210855694352 10.027797601383602 9.599161361001514
Ag 12.759906497744728 13.832965669482123 10.83636152682203
Ag 10.616010885723016 13.915705423463477 9.036977426443189
Ag 10.764996603496284 11.919591067228012 11.334015833753808
Ag 8.294124643766612 12.790107588731614 10.130900013020284
Ag 9.595051167432885 11.992653226941924 14.336392390022729
Ag 11.822081642885054 13.72775451235993 13.515548201899804
Ag 6.011742364241828 11.624418356455095 11.19609823876947
Ag 9.945347571843099 14.649121270652735 11.638553607222095
Ag 10.973815594311821 13.5477341311506 16.20057905766449
Ag 7.619152969591708 13.309927924691138 12.805443731511518
Ag 9.378333899913851 14.857795556850533 14.33631690091274
