17
Energy = -41.83863499 eV
Be 9.415231420583758 7.508316798595901 8.429276830817834
Be 9.560263727478063 7.858611701483194 6.242264961099243
Be 8.164663693632244 5.607789162587286 8.725761867987593
Be 9.047695701944189 5.988715338121533 6.924441495931278
Be 7.683215097773513 7.219118224038629 9.878317125438565
Be 8.084320291112824 6.879421475608162 5.327286050182571
Be 9.068606163168253 9.460143531729594 7.370445721798031
Be 6.241214308359887 6.0426449189408045 9.113467663483553
Be 7.495590117848266 7.605103948390188 7.4956610865875195
Be 8.111969740396667 9.081302767114888 9.151706664108941
Be 6.884203991864829 5.582430528295644 7.0213380383288015
Be 5.2313962622191434 6.88096160576886 7.565417760152267
Be 6.140678753492563 7.168145821158004 5.736396680686763
Be 6.063850839749804 8.282184502637167 8.968420519207388
Be 7.623147760432529 8.915610847404807 5.761658496380945
Be 7.143060470904331 9.955986565617449 7.548149460625595
Be 5.648342622248438 8.788746271774558 6.9000298602149845
