18
Energy = -44.1142066 eV
Be 7.358493741631441 8.006069484408371 8.519793549931565
Be 11.030601387922331 11.923065701712604 8.250686617098333
Be 9.298952108425887 10.876160309450867 7.881152498669741
Be 10.288693743402256 10.9624535207703 11.475113566119742
Be 10.63380763510132 7.872594626262754 8.551137956216056
Be 7.699028270110494 6.528207707501718 9.791208757761302
Be 9.4464471619806 8.988999014946831 11.77719955671843
Be 9.437127258256627 7.574554106223386 10.218407521964417
Be 11.04672499820836 12.54935103647276 10.2332402711168
Be 7.665411658085388 8.39418194028828 10.875955863688224
Be 9.271582624839416 11.586976807685424 9.813125594466783
Be 8.906843750349637 6.80318323005044 8.109168311755957
Be 8.289678226402252 9.704438467868492 9.324743402678973
Be 8.287230209018935 10.440063674314535 11.299168257702094
Be 11.03032145382666 9.863116335252771 7.9149633363173715
Be 9.160267081409698 8.803785670299838 7.542838136095881
Be 11.932152126738481 10.855179324602643 9.670835400923018
Be 10.406926525029162 9.45790900262652 9.94155136151358
