13
Energy = -29.7189463 eV
Be 9.973716 11.463563272642666 11.503935312692613
Be 11.027869797465504 11.100408461687708 9.729706221637928
Be 11.483508143502304 9.973716 11.428568300949076
Be 8.239427294684681 9.973716 8.149458504362574
Be 8.463923856497695 9.973716 11.428568300949076
Be 8.919562202534493 8.847023538312289 9.729706221637928
Be 9.973716 8.933942195045029 7.837208908089288
Be 11.70800470531532 9.973716 8.149458504362574
Be 9.973716 8.483868727357333 11.503935312692613
Be 11.027869797465504 8.847023538312289 9.729706221637928
Be 8.919562202534493 11.100408461687708 9.729706221637928
Be 9.973716 11.01348980495497 7.837208908089288
Be 9.973716 9.973716 12.901140829965911
