11
Energy = -24.74817257 eV
Be 8.086943066930601 8.396270874979633 9.167488904833329
Be 10.89181005812084 9.338510362870638 11.148120507420746
Be 9.960748418848413 8.883748037585683 8.032947913760692
Be 9.834800937523273 10.796002746387403 8.760442650935369
Be 8.839294854049108 9.00899012481846 11.084302159821497
Be 11.582948187701804 9.238160862305058 9.227595728939663
Be 10.002722138730055 7.905838117282596 9.822069548792664
Be 11.396575696745392 11.016469647176507 10.125394931222798
Be 8.14193086100355 9.96967648518776 7.881314600688006
Be 9.372868694030487 10.94900854807391 10.752430346826776
Be 7.6907003087463925 10.29866741576254 9.799235929188375
