10
Energy = -18.79276115 eV
Be 7.444939824470548 10.51241279775041 11.073715983330391
Be 6.825167714784158 9.372248196229426 9.501823762276064
Be 8.044607331370964 9.247613979445475 7.786662077293302
Be 8.828492816149591 9.879976054856908 9.72422575107045
Be 9.481234624411341 9.390164664015284 6.372969852946101
Be 10.206824604579236 9.760346755499482 8.215097731461055
Be 8.125408441694432 7.748373402485575 9.205642122153753
Be 9.649380255473533 7.767636265051286 7.656574426462677
Be 10.202806272261554 8.355201494590423 9.701025762170248
Be 9.67890034555836 6.453788620830081 9.250024761590184
