17
Energy = -41.69754185 eV
Be 9.104132064523105 9.550481763559597 6.878982393464328
Be 7.166456153791694 7.4469762135012045 9.117225205801422
Be 7.778789947973831 11.198813836609867 9.361018202578737
Be 6.954336677593173 9.460462280311903 10.01210872791525
Be 10.291679096026028 8.55150771134559 10.105551747116152
Be 9.696719220616586 7.4082496735566385 7.228337902724812
Be 7.126962481004247 9.822191783632888 7.8926312432879
Be 10.797785221020403 8.96550360962126 8.007862077380041
Be 8.428795044299612 11.399144464469144 7.451506677579972
Be 9.179360741096703 6.744160267415703 9.580267925862088
Be 8.810119386023558 10.075070949100143 10.699685014393134
Be 10.99530234608512 7.09348840288143 8.77936710636679
Be 8.229855053746277 6.1508191845646705 7.895025084232002
Be 8.288606035129026 8.074666233323748 10.857142815849095
Be 8.729153684878575 8.747745207487093 8.779001801858666
Be 7.706605182690866 7.9368273007852075 7.032539446964308
Be 9.758456622973629 10.602966447504482 8.86601548533759
