13
Energy = -25.92831374 eV
Be 9.983073168807195 8.133738524291982 9.537935703080356
Be 9.51438352733699 8.685440255454239 7.572196217770448
Be 9.07606365109654 6.651085214845437 8.444010841332164
Be 9.01244768936322 9.076638251723399 5.578813836804759
Be 8.034509967217927 8.482446502189406 9.057698824029595
Be 8.531569629554173 7.185676562240488 6.2024106686622975
Be 7.719723232442095 5.641301847431782 7.283325454015345
Be 7.525754880448693 8.989119637821727 6.968762043398546
Be 6.947134889382676 6.560833214311975 8.940956848626122
Be 6.5509820809564 7.992548653623663 10.357869360334856
Be 6.406026133937691 7.107418168321792 6.707777207212087
Be 6.04459505517404 8.541511769673555 8.394052777798155
Be 5.573711057901755 8.953716219924415 6.393929255289753
