15
Energy = -35.16671077 eV
Be 9.219428411797354 9.285686492594381 10.561161060340458
Be 9.134676722487676 7.19954937638605 9.994173638307617
Be 8.866676548434533 5.293553845619363 9.083349123732248
Be 9.670075928349847 8.701993858354237 8.570269284112975
Be 9.885803576026943 6.71252980580131 8.05682348232586
Be 8.37459653909046 10.373545102813749 8.88242157144073
Be 7.250305482948138 6.502122015240185 9.256847935571205
Be 8.776615112962604 7.8318060103186 6.694308062394441
Be 8.02264470475692 5.99610293025407 7.362387936016138
Be 7.532116264594416 8.52306268596628 9.520737222686844
Be 9.131896816128734 9.868124597557337 6.9537950727685764
Be 7.486292193616183 11.04458494410905 7.066945982726625
Be 7.257074203100382 9.195392944916206 6.241957745331756
Be 6.773232470312163 7.664518008759019 7.587280672435308
Be 6.49337046408969 9.655204423448959 8.155790723524806
