19
Energy = -46.67270323 eV
Be 7.073524462079281 10.592763031302312 9.909653660378044
Be 7.476776801370406 8.50867506125805 10.194736516758626
Be 8.91672915582593 11.454244738580005 9.880410901207362
Be 10.337907215407817 10.890439016068981 11.276491730925551
Be 11.080832863921675 8.515233859973453 9.047261394729562
Be 8.139805490121951 10.801451301845043 8.045040771386198
Be 6.564496034824809 9.359264775952738 8.37428049435179
Be 10.589629755558315 10.488478291557843 9.09730440043476
Be 10.055134259321596 9.134878350731785 7.29389092284159
Be 11.931891581246266 9.637619607468341 10.573912769991685
Be 7.943572141108876 9.052177574890427 6.901958822377283
Be 11.93611928433652 10.46575461392676 12.433939997521781
Be 10.869730114009926 7.185160917729484 7.55346278628758
Be 8.439431616921798 10.007617719957134 11.314966153199038
Be 8.93618935518202 9.218344784982499 8.993219891826996
Be 9.947049085310882 8.689199931371752 10.746110763984204
Be 7.456148299811281 7.528783523764785 8.329367831115801
Be 8.943323579310459 7.297407446729926 6.973775026054702
Be 9.411573928430018 7.222370476009168 9.1100801887274
