11
Energy = -24.74858173 eV
Be 8.126627007642393 6.33252061331282 8.074988559640673
Be 9.50684579708687 7.548831117037824 6.79489455874939
Be 7.669974569164085 7.015752114964136 6.11407400685104
Be 8.122388021731792 8.956168822850916 6.2497218538287465
Be 9.575984503105786 7.522050050708252 8.876874291253593
Be 7.7078023859900275 7.169748869412933 9.891231911843985
Be 9.350261711921362 9.337330776279067 7.971781192565983
Be 6.701739756195224 7.778778089208144 7.78963537537827
Be 8.44724659478642 9.077632525484086 9.831022555661235
Be 6.461944576103573 8.71156233250761 9.632495641429747
Be 7.344668900459174 9.716450814660876 7.9811322518560655
