13
Energy = -27.92973424 eV
Be 9.419468013964686 12.238786590217199 11.588376962056527
Be 11.146175 10.083289010899657 10.31546491343545
Be 9.456329636040008 11.146175 9.70007642358941
Be 12.872881986035312 10.053563409782642 11.588376962056527
Be 11.146175 12.209060989100342 10.31546491343545
Be 12.836020363959987 11.146175 9.70007642358941
Be 11.146175 11.146175 12.47391535462605
Be 12.872881986035312 12.238786590217199 11.588376962056527
Be 11.146175 13.178330244180632 12.174667468095036
Be 11.146175 9.114019755819367 12.174667468095036
Be 9.419468013964686 10.053563409782642 11.588376962056527
Be 7.825362428146357 11.146175 10.84621709345402
Be 14.466987571853641 11.146175 10.84621709345402
