13
Energy = -29.92631763 eV
Be 10.440937076683971 11.050554674956675 10.153762217630755
Be 10.117860020761436 7.9054699091103995 10.447002575315878
Be 9.18768016271217 9.64390223767139 11.16870299287754
Be 9.343441979872933 11.145659319014369 8.367624322901966
Be 12.522792712084351 10.390536238098797 9.830901367550709
Be 11.26858807748722 10.363989134307207 8.2578559008125
Be 11.300501194946193 9.390926751498542 11.174654587121452
Be 11.731731744019681 8.590590458346215 9.316836494964939
Be 9.68275883615888 9.084508993395387 8.737858100880306
Be 8.330811479333324 11.2941657819953 10.12415271754733
Be 7.673518414682079 9.93964382060238 8.70438618580616
Be 8.142295482408048 8.237017657964188 9.876533245996734
Be 7.044858856857049 9.750762684853916 10.627456952408208
