14
Energy = -33.21920933 eV
Be 9.563284590590603 6.550342089801064 7.877101384771411
Be 9.448077269566863 8.006022531052276 6.326032455277934
Be 7.674381712991638 6.976169741351602 6.954975159697807
Be 7.779029761699817 5.687748837695078 8.663989708360207
Be 9.709284332773036 8.524037491392448 8.258835635015789
Be 7.549172446683045 8.599133180735121 5.5588588402620935
Be 5.878902167983209 6.2811121774028145 7.903044595611864
Be 5.763152377589824 7.736459076055063 6.34869874663126
Be 6.623821499883934 7.02969049860989 9.62315930231261
Be 8.749771410458631 7.181499412888445 9.607509170729386
Be 7.572042889054203 8.551512302967193 8.445049600064651
Be 5.461210894280809 8.214094924215228 8.285081678706181
Be 8.543751672080425 9.706453470121373 6.920968984297683
Be 6.420691669969595 9.547993123176232 6.9317166094930505
