17
Energy = -39.94117801 eV
Be 12.361925149485481 12.299662810327058 11.261202943651174
Be 10.95657814844384 11.25419107822127 10.14964092121742
Be 10.335600199189653 9.42005395015382 10.73732522162108
Be 8.7573246520306 10.779101500478792 10.315300593302624
Be 11.6990042237808 9.5699930029822 9.186351053061118
Be 9.86342273423888 10.322925397757132 8.520716100233576
Be 8.214293575645565 9.196109766709833 11.493449108471937
Be 8.843585933653303 8.711513935151778 9.552129715351414
Be 7.701209782770508 10.353481530326485 8.559640247973928
Be 6.768747475493159 9.777341637967494 10.238923561389651
Be 7.152412447229611 7.755363806402498 10.292012347281624
Be 10.585658917264018 7.832858818574479 9.035956100117172
Be 10.927890371792445 8.989897607067071 7.33759560992075
Be 8.723831208933802 8.893536823872333 7.309430085259522
Be 6.885389216437755 8.527119688750252 8.410180156542536
Be 8.327431332086555 7.075716456366444 8.502492981698344
Be 9.916238986626107 7.261676543992745 7.118197608008207
