13
Energy = -29.92620623 eV
Be 8.595757650030755 7.670408177561517 7.346023771989553
Be 7.519910196281303 8.452790128884482 8.861163467789503
Be 8.254527718999617 8.558518240395426 10.805370822329456
Be 10.261098909468798 8.888791204003288 7.535130840490964
Be 9.57849360045666 7.914170385757188 9.308127430788266
Be 10.245382966839577 8.594556859591258 11.208770366474013
Be 8.364183792800011 9.688616205885294 7.3637327550152945
Be 8.482600479828626 10.206090707360019 9.487150513942206
Be 9.127637180177938 10.293541502370196 11.5794390712046
Be 9.955265310826004 10.822677798572004 8.085065083549495
Be 10.067538484980206 11.44651096209626 10.07266686760344
Be 11.146414436937889 10.444716377152044 11.445063736632093
Be 10.936290117848731 9.553712141322581 9.437396581239426
