12
Energy = -27.13650264 eV
Be 8.398234704885562 9.417305493047584 6.442653403596069
Be 9.122583535065843 10.050791355240218 8.205242063710319
Be 8.664722083572899 7.369353086821489 6.220092747148311
Be 7.167337571515491 9.247409485320015 8.25454251222164
Be 10.00441533807676 8.430265641739531 7.40202123753622
Be 6.760866298557624 8.078063895769928 6.608067841150679
Be 7.272956108718067 6.226379032139686 7.374591578502386
Be 8.786561682609495 8.2424153943404 9.216359893518336
Be 5.951376128667253 7.423178820484869 8.4557327256072
Be 9.18236408438631 6.5851731494822285 8.06639448535536
Be 6.855069580529701 8.214039475830388 10.060220885795637
Be 7.554957464766176 6.437069751134414 9.415525207208878
