11
Energy = -24.17974643 eV
Be 9.27628153606656 8.489471067535899 7.523521597031551
Be 8.086438023720808 7.0608798255160234 8.460773457491138
Be 10.547682772093543 10.165279959162476 7.556811055395376
Be 11.171160051072468 8.586224710096856 8.542067384525676
Be 8.553462386837582 10.450649481142403 8.012091061094168
Be 7.260851074526168 8.884792106303046 8.265510276750133
Be 9.971866592858948 10.038668743477752 9.576017639414054
Be 7.809788256055849 10.10918158721807 9.89098969826761
Be 7.529217558408172 8.030928340301395 10.189733705747354
Be 8.995152526508175 9.104186085583393 11.157523261305062
Be 9.58909939930373 7.8707380936628155 9.61596104043039
