12
Energy = -25.21400322 eV
Be 7.460751605240044 7.46064689147445 6.106786475492321
Be 7.732623694921167 7.734928394129267 8.17487779805266
Be 8.12125278810246 8.115748343196216 10.195325996605165
Be 9.340957498525484 7.827516135524205 6.738912913162441
Be 9.708918146153202 8.065021138321187 8.885070708053663
Be 9.954783847799598 8.43101104700758 11.029284537533576
Be 7.820624626274004 9.342770406602126 6.745116489529533
Be 8.066110493356756 9.710769659830582 8.88960175739999
Be 8.433210036928019 9.94807804907851 11.0360256482897
Be 9.654299442318738 9.66035900301009 7.58132775599242
Be 10.043194816145434 10.040848599006392 9.601078530726799
Be 10.316177004235083 10.31520633281939 11.669495724652128
