19
Energy = -49.40501351 eV
Be 8.262308262229904 10.108311323879965 6.844177315060946
Be 7.157527063024021 8.269172833943333 7.441411469907649
Be 9.011848408696123 8.251238349043518 6.491328191411436
Be 10.262523369110292 9.86815754878405 7.37560972752194
Be 8.750389322522066 6.768811685309029 7.931937583313885
Be 6.852222802266896 10.138451020402165 8.308645193654206
Be 8.835686271155145 11.114513872346777 8.576230100445034
Be 10.67384850232704 7.836873931085426 7.586635833196442
Be 10.261737948701034 6.92657851629079 9.357203312246796
Be 8.85205727862873 8.85196927852596 8.851997370780005
Be 11.088399592846788 8.99259760815687 9.269807847826295
Be 10.838860177907364 11.00297949838998 8.979577086758555
Be 6.864808131840788 6.701416288162024 8.725226387229492
Be 6.733289880711882 8.53233627681933 9.63009456600037
Be 8.326237295644686 7.031332166055832 10.120489528529417
Be 7.620121267022052 10.505930223420076 10.154971850641887
Be 10.031833964165868 8.233838979229775 10.897327735013898
Be 9.66198295615475 10.239428973275661 10.47082612679259
Be 8.102707766544647 8.814451888379015 11.17489303516898
