14
Energy = -30.40721069 eV
Be 12.135000725265732 10.309639235688845 10.49372359325936
Be 8.798670197879826 10.622591519637673 9.318385950324204
Be 8.101219941326542 11.110584934270792 11.304161214562532
Be 10.54706700558701 8.980492274201442 10.466908699684517
Be 10.177620961925706 10.98833959949728 10.976403953638503
Be 9.52783989368513 9.855360050677842 7.45241206157053
Be 7.300009102746779 9.49861084074906 10.338892871796261
Be 9.032897023299414 7.946267283590034 7.51244838493507
Be 7.652662929233521 9.2232575342844 8.303243738359045
Be 8.834530011192193 8.23875373947705 9.709299794802408
Be 13.787592808406773 11.117055842935313 11.49080322617699
Be 10.753467674863801 8.556443423234004 8.461290845383902
Be 10.831864907264503 10.598244807651536 8.939584137602221
Be 8.929329685156146 9.364131781937102 11.642214395736964
