12
Energy = -24.63329891 eV
Be 7.9037892255436155 7.701571588828807 6.4559385631242145
Be 10.115195016359118 10.839268150751863 12.128784229077219
Be 10.08967222368128 10.201046146745329 9.088730423750874
Be 11.257296660510598 11.356429051636448 10.681444239773134
Be 9.320010691950415 8.898116301612356 7.367923469885533
Be 7.626741415465491 7.753480980368477 8.478527245179217
Be 9.475570637185275 8.195771120770676 9.357214200069684
Be 9.182051192027094 6.839468649341174 7.632243537234176
Be 10.813124091101024 9.346233440537866 10.947390230374964
Be 8.17824257798635 9.799271700684246 8.810108438360478
Be 8.815078582484578 9.54318204370108 10.71278982983975
Be 9.271017316822327 11.573950456139233 10.386695224448715
