18
Energy = -45.69838177 eV
Be 7.277045304698719 7.797187129208108 6.136141038449508
Be 8.940119415628358 6.8132730864268485 7.144226033169492
Be 6.86711718465587 7.329632842821766 9.60969863669235
Be 8.54728891301444 10.427521188647386 9.100736655955265
Be 10.407440846255247 8.727000677889267 7.867527510365806
Be 9.992610087243774 8.852998956484448 10.014027936877724
Be 8.386405634793578 5.90146587954972 9.041817880655747
Be 6.671981888531068 9.449533697252145 9.06377367118585
Be 8.81566251349332 7.076113232940614 10.666725558180607
Be 6.0238581009846355 8.202555914749674 7.651299074622015
Be 10.562002072007308 10.525508076531787 8.861271144038204
Be 8.032405952492747 8.938389530011378 10.552345861206037
Be 9.356814589135151 10.49552803049378 7.191296601634236
Be 6.920499193603811 6.3944403087451605 7.6670150631657
Be 7.3435377413108425 9.806635487686707 7.077718285889401
Be 10.10086218348752 6.990505081044048 9.120018158632595
Be 9.0625340009253 8.767096744808555 6.232786238062457
Be 8.402400466399172 8.34849196515198 8.422524874252103
