12
Energy = -25.41905255 eV
Be 6.9063575835190445 8.908800362528966 12.147416425616544
Be 10.389027109090769 10.386881359224981 8.175336157987353
Be 10.241739765769417 8.365814341232047 7.886273301581205
Be 8.58814703195952 10.64377536030424 9.098955152671298
Be 10.114146335235224 8.044609775877985 10.392181981387832
Be 8.124759264355136 9.036617678334899 10.33878780453639
Be 8.392986008860527 8.017888844439526 6.976192624039205
Be 10.09390837155999 10.076249424258448 10.366557131278158
Be 8.713717910879698 9.98818250836758 7.0642783447636655
Be 8.729846611815113 7.5579656320238895 9.013998214427115
Be 7.356210493508901 9.114009765503303 8.338416973796372
Be 11.52090900148412 9.03096043594133 9.373361375952058
