10
Energy = -22.15046002 eV
Be 9.198514798425002 7.854481942594704 6.418764755241654
Be 7.451484736059625 7.01952192659297 5.708829465323727
Be 8.618475283635219 8.123919100185264 8.381016417464414
Be 7.511218991149097 9.000136911401194 6.691656941668266
Be 8.556489761863894 6.158243448653345 7.403752632450939
Be 6.560172446742649 5.848059746947599 7.118073467466332
Be 6.647492527949482 8.635710321852672 8.49816609761437
Be 7.3776420940325345 6.630112599739271 9.00004727971306
Be 5.825353246295574 7.862668160942661 6.602849445677719
Be 5.428000533752395 6.9775460764130175 8.421856348881795
