18
Energy = -44.62662416 eV
Be 10.753618200761814 10.947884799265598 7.861463329359082
Be 10.796158034846444 10.753572014563554 9.917726885136041
Be 10.853315213691017 8.964526223360078 8.775142481716083
Be 9.204618025370067 11.644836090289933 9.03749568321269
Be 9.82278055666576 9.035566920777782 10.68430533417204
Be 9.57693188030472 7.318763054215998 9.381912737324322
Be 10.537140585087046 9.343352853050984 6.644495247275633
Be 10.32806934995353 7.432220840328456 7.4046785060448395
Be 9.070806988570501 11.06367719135946 11.017037456214116
Be 8.740964002424644 8.32521461642529 6.520947208101253
Be 7.885388299052959 9.521116840091416 11.581334726759824
Be 8.74027165945594 10.14879332766653 7.603474283703643
Be 8.44104520516916 6.616189787262073 7.647073926231262
Be 8.349361976948988 7.565456570229095 11.09080535012921
Be 7.7152084795038975 10.217987655595888 9.514206286166857
Be 6.761703246597747 8.457279915591666 10.207974025235531
Be 7.4834305633864595 6.680129350537698 9.432198682793857
Be 7.472784089199518 8.49702830637833 8.211324207413162
