13
Energy = -29.64577016 eV
Be 9.080446716097546 9.123374376418143 6.679684677239973
Be 8.488053328043938 7.2351076429415935 6.829059255659798
Be 7.104470475826437 8.69450360039419 7.17420619129846
Be 10.481741161958192 7.76443907060453 7.440262575101568
Be 7.924789856195483 10.439571849378648 7.966395303998767
Be 9.566078882079982 6.219693252423883 8.236185281714516
Be 9.663137477650334 9.490030028315042 8.658822730210808
Be 6.5525422812850085 9.438711929771607 8.99130617160186
Be 10.335558554043043 7.60763670531209 9.446461191685051
Be 8.08137203995638 7.7837519181199255 8.975279897073714
Be 8.139391199739853 10.428138982706264 10.050846032914464
Be 9.25029990095652 8.86276903513294 10.668476951735052
Be 7.261650807475827 8.841804289789685 10.812546421074511
