15
Energy = -35.72969291 eV
Be 8.714756928668214 10.421098012562481 6.70341505621597
Be 9.272563952411357 8.685940972886021 7.617236003079182
Be 10.742408482346601 10.092244479449864 7.262011318530124
Be 11.095139940770746 8.561113459546949 8.732877960305936
Be 9.457691629595985 11.434161140267891 8.284288298546711
Be 7.5946146598624065 10.453882034874152 8.414178451687734
Be 9.333087556010119 7.534170175917488 9.325570890071418
Be 7.475958158129504 8.389103519404637 8.711170024671773
Be 11.167677028629045 10.526033854157383 9.186101689968273
Be 10.82754478266087 9.040139281737321 10.752850991641854
Be 9.208977575456817 9.833972391078474 9.645337138229285
Be 7.229514908770711 9.528201083184488 10.360536754786462
Be 7.783106451555465 7.6133202026099696 10.691191708486642
Be 9.80438814217125 7.359456548777082 11.300505313086786
Be 8.905528130693083 9.140121171277418 11.625686728423469
