19
Energy = -48.83094893 eV
Be 6.312588825629578 8.503309039359499 9.053923444482963
Be 7.766293310402584 7.035418778302998 9.923511470684113
Be 6.484384414588568 6.537581129954672 8.305862994459886
Be 7.924300808639023 6.726830302231056 6.70438500305191
Be 6.319008921986381 10.025368220363614 7.338805561319067
Be 8.196606450653569 5.490480962247482 8.520769947060828
Be 7.983234138026711 9.395297141634419 10.057307819033225
Be 6.469923429600238 10.526731598977706 9.322133727804966
Be 9.714748510098968 8.254812299422136 10.223869437459577
Be 9.763757623872994 6.466684007774475 9.411404807997698
Be 8.200596703847745 10.584278749411405 8.126755872767218
Be 6.258740421844643 8.043931947693784 6.971959407583302
Be 9.877395625894511 10.01580755796073 9.262015961711604
Be 10.74018278880341 8.176874329936485 8.33957186220569
Be 8.40068661304352 8.235489248845521 8.254577042874956
Be 9.906054771349373 9.82698991355616 7.249475470611521
Be 7.93517834112144 9.229625734368874 6.398522467169691
Be 9.816641925372169 6.279516298703759 7.43031772302995
Be 9.73505290160952 7.980828020881674 6.457022345508876
