13
Energy = -29.53031278 eV
Be 8.137377302112542 8.29006229474848 6.499044568814068
Be 10.02169901591612 8.131054433092748 7.321748786713621
Be 8.643730454636296 6.643376211393019 7.677667498142263
Be 7.147593177227259 9.608240258453822 7.7364905094892915
Be 9.322137615900402 10.238529018842893 7.696093273879044
Be 6.804121971106559 7.584768038139014 7.932634821716642
Be 8.621361408291865 8.641315781734002 8.630684728405596
Be 10.462100297139862 9.656283225859944 9.313400118138311
Be 7.9322705088988625 7.037127680628147 9.570637880655557
Be 10.094249246010136 7.637133462331228 9.505344106523994
Be 8.647332281589195 10.626318845365175 9.609939698431628
Be 7.242610662093192 9.152429549441477 9.951279169943268
Be 9.1282814527284 8.958226593620628 10.75990023279753
