17
Energy = -41.91422727 eV
Be 9.965574886065353 7.738575484530101 8.195206390170037
Be 9.011759097718757 6.316073350315533 6.807116271558799
Be 9.254904619314042 8.386601402941254 6.338967622114096
Be 9.242353376486873 9.673171435078952 7.947598896038077
Be 8.946220506153482 8.641926922184602 9.720040644729757
Be 8.488356204871183 6.511469522693568 9.199625132447872
Be 7.423032844022353 5.518759506525424 5.762643533567962
Be 7.7073542307784475 7.719539476993832 7.749022715278275
Be 7.442103507824608 5.342826619033086 7.747510137622866
Be 7.442556784087462 9.534171122512106 6.748165667795336
Be 7.514462136431499 7.55518862965795 5.586279363349023
Be 7.361201182619053 9.732299342717003 8.83407472345009
Be 7.0252933736631515 8.000768086706524 9.903170180638055
Be 5.76435202473243 8.470541047302769 6.125273259143425
Be 6.172224407747137 6.478341207801145 8.82414876600542
Be 5.925910398694417 6.562112174216687 6.795246689585527
Be 5.769293832944743 8.448912710782457 8.16006525102884
