15
Energy = -35.8429385 eV
Be 8.64294526956237 9.136991039359504 6.4964900619063135
Be 10.096098503710882 10.58741274641703 7.14943848359398
Be 10.361353838861762 8.573995455515606 7.397855919845762
Be 7.992500564121243 10.793714738016268 7.529427260010402
Be 8.67051374835002 7.604427064308599 8.264105377170056
Be 7.08105718929627 8.986566917142696 7.793693583057489
Be 10.97107161128362 9.832457000804474 8.916959688818272
Be 9.36770091552698 11.130245273981254 8.977819825711135
Be 7.120660861725826 7.834450807396071 9.678144949922556
Be 10.428296257597754 7.863249885039683 9.486707773878134
Be 7.815851694777325 9.826618878161536 9.633282700709856
Be 8.737705731910575 6.768108025545809 10.228012480330374
Be 9.724603526646113 9.687823972389522 10.626852401279988
Be 8.048295130936232 8.549725957479922 11.322283684515957
Be 9.938534677989391 7.821401760738521 11.496115331545708
