16
Energy = -39.02788279 eV
Be 9.201475239663727 9.786483656317884 6.497453867766328
Be 6.76300401482551 6.67187174769258 9.479413346561566
Be 7.305989085310037 10.071478412513732 7.112319254029106
Be 8.693697361503066 7.395838077552564 9.985512385515921
Be 7.022791017006224 8.405680856394534 8.279000300023709
Be 8.017294163256228 8.085696681520645 6.355695789737389
Be 10.109635046371231 7.877761793792559 6.642520660589869
Be 9.001248277921851 6.177637268342292 6.723111981789259
Be 9.329737517140504 8.757353749835636 8.417079357911204
Be 7.104100213162518 6.478117609466084 7.442463973931562
Be 8.357445339587642 5.608964701368529 8.791742264533323
Be 6.990992206528442 10.285944490327827 9.235660217324504
Be 7.021407715280482 8.530204231468943 10.45626182040205
Be 8.680748637226317 9.63296565823988 10.159543921588131
Be 10.002458175227861 6.76720629310321 8.395996771153856
Be 8.763290767446998 10.792609195769836 8.337259746723472
