14
Energy = -32.75652276 eV
Be 4.901253353869845 7.63841639720886 5.075780646696644
Be 8.26618531721048 6.334430680198287 5.981724030938811
Be 7.0458257971947384 5.30538782100401 7.54224467798658
Be 7.446321296565995 5.053368395576439 4.6396419388589445
Be 5.2940631493348285 6.584759600461043 8.236630703902891
Be 6.4785738814188685 3.879706395003608 6.122812387906309
Be 6.754054885824925 7.27786698328621 6.964176556930497
Be 8.454670802258377 4.275611749223211 6.213153438089715
Be 6.930595984049287 7.133409703702189 4.602851240222914
Be 5.664647192000848 5.724729005129829 5.5607234874528375
Be 4.917182493172171 8.308363859353923 7.026576569311543
Be 6.410019714684112 8.831901641610022 5.611342664894251
Be 5.043665682908278 4.775456665284524 7.364202298537126
Be 4.0173249573594685 6.501053056980023 6.682944736699866
