11
Energy = -23.73777258 eV
Be 5.693965983394162 4.310541995429943 5.136848270962888
Be 3.6083701114332993 4.392676440267054 5.022757333226496
Be 7.405938713706774 4.989492875530688 6.262862922700556
Be 6.933883101274893 5.770625420976021 4.400977978494468
Be 5.75300892061945 4.128906964103894 7.175868320149514
Be 4.415044106324217 5.545257120274802 6.571865829225155
Be 4.805931323942393 6.139520222324563 4.596849033380965
Be 7.352446489679864 7.078468200055145 6.051285522285503
Be 6.261131182458963 6.10306037104579 7.556350732673087
Be 6.19823858558271 7.700559927424523 4.5002188512463395
Be 5.242431617771374 7.404768883405269 6.307307231007205
