18
Energy = -44.53070505 eV
Be 9.789441470531933 8.97935991617094 7.263694016438091
Be 8.931973555475365 8.309244978868097 5.375764207133587
Be 10.094230462022553 9.288788478652688 9.517112121989015
Be 9.3352578658619 6.96880097339674 6.850865074936158
Be 8.180662463926648 9.933819184121425 6.263080419575492
Be 8.57726572411097 10.111471223494645 8.39308159501373
Be 7.671724869512307 6.50518588203777 5.775138259607451
Be 6.892637891308445 8.35436409125996 5.408009001321955
Be 7.518484836032391 8.376777739316745 7.477916971284085
Be 6.100005341108865 6.954903152894904 6.922803488108643
Be 7.756043716889333 6.071265113769517 7.909148060773063
Be 9.018592258009127 7.633819260668162 8.850614738010977
Be 8.441256551338647 9.821162751652782 10.526086394337682
Be 9.237579144866505 7.948024986901731 10.953122931700612
Be 6.922280365413908 9.203249513761223 9.30851553697401
Be 8.039698086090239 6.352869010366617 10.1689091689814
Be 6.512353075634337 7.160168113163044 9.048240295983012
Be 7.157306702409386 7.987708800669794 10.932362747922454
