15
Energy = -35.42878967 eV
Be 10.154657584403022 8.284564021716356 6.957842379710994
Be 8.188130599138512 7.059811754243013 9.499107132998702
Be 9.603954371054941 10.512500874899388 10.891622713164224
Be 10.028951793903177 7.764910959185956 8.881084816988965
Be 6.976885581601492 8.609776275199597 10.207361248717278
Be 8.64776552822468 9.511380247481519 9.323779507916528
Be 11.260215375807247 11.044661288210762 9.944336973246566
Be 8.239981203432238 7.823118234000931 7.592671891013793
Be 10.938557752379655 9.049123998336087 10.217976552375154
Be 9.082692160783507 8.347340011361863 10.88967937952112
Be 10.85482167563807 9.717948086006793 8.274598220191653
Be 8.896966706250993 9.881605673296958 7.342775559530453
Be 6.3819853348274105 7.514311026056572 8.667955248045827
Be 9.571713966077342 11.278549606698359 8.886816732377635
Be 6.950090913751652 9.377768490580285 8.19976219147492
