14
Energy = -32.64294034 eV
Be 7.5899640997583 8.940080707091214 6.769570930936441
Be 9.713763991977132 8.847390442370992 6.753598095775786
Be 8.784399850900673 10.64090604694427 7.187892553339448
Be 8.611870391686105 7.411988034038317 7.6528665105241505
Be 10.48832881027377 10.088798436970968 8.1312784481404
Be 7.075371877026132 10.239387124050394 8.178497666726416
Be 10.200708687321107 8.089875572529294 8.863349556068172
Be 7.285400927386531 8.350531975135931 8.971990458986946
Be 8.68836896835676 7.104161363972197 9.809980618542882
Be 10.843085370177683 9.605878942909147 10.171062205102992
Be 8.780799916741424 10.001647126613557 9.437045795020445
Be 10.079166624557809 7.943701149318957 11.132211730858204
Be 7.994907503106339 8.660877190068776 10.901163219034464
Be 9.530319846368265 9.741232753624654 11.705949076581293
