17
Energy = -40.08832429 eV
Be 12.299825175282846 8.752971624866047 9.012478947707168
Be 9.559177619086624 10.259079970570031 8.459293313913236
Be 6.429098487670027 10.213311848354413 10.036834395751171
Be 9.187616265244452 8.015425095574605 11.25029408970308
Be 10.65880481520538 9.313505954579622 10.29353473915563
Be 11.03854945366515 7.523587875363698 7.859588187054729
Be 9.462383197302007 8.667354981274269 7.125728853414982
Be 9.326680989938255 8.002961805261316 9.072858590617766
Be 7.769402117469138 11.405298239533847 9.161630665000864
Be 7.384739892223578 9.200515683034245 11.76780705540589
Be 7.6419154006877745 9.384382927994203 8.462960433336224
Be 11.112658290923696 7.340090313640481 9.885936636058569
Be 9.591433589712771 11.305800660905604 10.281438710694395
Be 7.604038291503335 11.34886280541758 11.13872027805573
Be 11.522508332964827 10.681873837699131 9.020531160461186
Be 11.339263466931785 9.490151957736058 7.3544349363475305
Be 8.54066402122946 9.56358382523568 10.284688414363089
