14
Energy = -31.51354469 eV
Be 8.660744532353029 10.857653532787893 7.784839547338459
Be 7.689959507339284 11.204937645407934 9.573119277551328
Be 8.279318244311513 9.071526595216527 6.6577186364994585
Be 9.890615809007121 9.1379178567715 8.030626755308921
Be 7.708987034772897 9.304444155867275 8.646892842140714
Be 9.529211262355625 10.335842882229393 9.764054599098147
Be 7.882221687783513 9.517956239171918 10.818948661231284
Be 11.01514676708947 8.690093184381913 9.783245197334095
Be 7.110506703089936 7.79579704867156 9.857847030076082
Be 9.664040877149494 7.540687500597542 6.546082435402833
Be 8.30122150778444 7.360580955696936 7.970226842969408
Be 9.867630768049777 9.185553086403994 11.421586239345507
Be 9.125175950752656 7.994954409693358 9.837386597228367
Be 10.40292723010613 7.129762789047269 8.43513322042028
