19
Energy = -47.53522801 eV
Be 11.747701721874297 10.59820213059365 11.301399536204604
Be 9.191020498698073 7.643080983653103 10.189181516789379
Be 10.067409701533235 10.204338230940557 12.65879623425991
Be 10.985060195553825 8.669216112783282 7.481621683427065
Be 9.450795959936036 9.403161337427505 9.154206901091305
Be 10.08417794698223 10.561069488926464 7.642711054326026
Be 10.598379874440301 8.92495395109541 11.057293332129653
Be 10.076939504956215 11.143404888511173 10.109656901735434
Be 7.92589497735002 10.102326069485523 7.755335176911711
Be 7.527940458549767 8.654023896698552 9.18551135211108
Be 8.626710773059362 11.36174543854679 11.713494951761444
Be 11.536681845617252 9.794299418542623 9.322268685518802
Be 8.586761030751072 9.361330100714085 11.312925283267186
Be 11.05584037270524 7.8101725864631675 9.283876783537503
Be 7.8972498970525775 10.660305057338986 9.876707434301748
Be 10.529626892868603 12.019557175567108 12.111742772654505
Be 7.4893162937763895 8.262394302608998 7.12189662391106
Be 9.240471513921563 9.090175452728745 6.520644163038908
Be 9.21954845201951 7.573771289019989 8.038257524667578
