18
Energy = -46.00503002 eV
Be 8.808605320360865 6.824841050687706 7.173148527727502
Be 10.457558749023944 7.444461230928751 8.49815606412252
Be 6.593954296761196 9.346207350359522 7.211533724478927
Be 8.511282504438233 8.42970248115551 8.525771853873776
Be 8.301116255173156 10.390005178499862 6.819625205381758
Be 7.277449971268324 6.0912158337438225 8.51863714641632
Be 9.655166259394033 10.800201072372658 8.348653542756509
Be 7.685024913001213 6.8908406025441495 10.352294315111706
Be 6.756971652737331 7.334585999559587 6.926573515284111
Be 8.164100335810426 8.511377054451371 6.036429835061943
Be 9.662226506749558 7.915205513011547 10.419643574543127
Be 9.307352243876865 10.10643744260779 10.233594306639336
Be 6.465619388214889 8.0676630285773 8.914665892048344
Be 9.937305513363507 9.058654092328048 7.092527874638015
Be 10.801199793562471 9.306278154502627 9.126198655765592
Be 7.749080833921192 8.884229099724205 10.501114043514209
Be 7.597902750900437 10.304927411490395 8.830048905386386
Be 9.184530494722305 6.099303818016648 9.245094785915194
