10
Energy = -15.04806535 eV
Be 14.913184170652778 11.98805125586886 12.76187636220822
Be 12.771671744786586 11.511795720922507 13.004293059717748
Be 13.790371949069131 10.737086970450958 11.398105170679603
Be 15.391682442791259 13.523694691318514 11.483502119483694
Be 5.85542565693736 12.122342499518822 12.277715948880124
Be 15.748423699252019 11.648413638042548 10.922303361108364
Be 13.298415472100436 13.319155719942113 12.165145255467031
Be 14.038539725047793 12.577531064431065 10.266297628217707
Be 12.134287650359372 11.942661982375794 11.183241421638913
Be 4.914452889571294 10.35277543690985 12.390543700158577
