13
Energy = -28.26940727 eV
Be 10.311913298549925 7.273077644201178 6.724954145985189
Be 8.399604473043878 8.803827953514125 9.29760742682805
Be 10.471281065848578 10.022825191662069 8.946499036194671
Be 8.764589706906403 10.765993728411454 9.841056252785116
Be 9.978329258385411 8.908335084632103 10.583147157982118
Be 8.171981959391681 9.499249613055802 11.440570190814881
Be 8.602508695414244 8.233429014767244 7.165552154492128
Be 8.77246470730215 11.393974332193963 11.98406837966224
Be 10.356106910078385 9.276681630281695 6.8733081128994575
Be 8.77210804008698 10.176887404038144 7.857704805605267
Be 10.522399865721935 10.871719908026416 11.034137282533361
Be 9.76843738919251 9.886107474669172 12.662437087403612
Be 10.205943414687534 7.985559805156515 8.686626751424065
