10
Energy = -17.36508406 eV
Be 7.1132050476701645 10.258774506828551 7.225401615589164
Be 7.386198464902246 8.352763648227738 7.9400401550404
Be 6.746536220138682 9.716616398192025 9.148914413995525
Be 11.644526514403173 8.777472582994198 11.3822207122876
Be 8.306232822319128 8.467908559654866 9.811281758461446
Be 12.2685971035412 9.567786783500889 9.587919712918449
Be 8.781984906541792 10.038498251982604 8.407554117802755
Be 10.867224397307675 10.302200808006058 8.203724585242854
Be 9.697168560774069 8.16489230264236 11.421031284027801
Be 10.190759870313142 9.355520065881583 9.87434555254515
