12
Energy = -25.51398731 eV
Be 8.859182249403359 12.640192343183143 8.960557900621057
Be 7.484181500439184 7.831074542373016 8.242911574077173
Be 8.490063809365477 10.843242289954503 9.891557840352197
Be 8.649462966171482 9.49510418839449 8.151140433331289
Be 9.978953421038788 11.066727358852457 8.311299924248067
Be 10.22835426490733 9.572340910587991 9.826111591262851
Be 7.975236032045654 8.708107281174255 10.012347342647487
Be 11.23781364230763 7.78399301952352 9.454520886136672
Be 9.030243805731944 9.528996731271432 11.478478831063342
Be 9.445482393654704 7.474866411713408 8.694456788593678
Be 10.647176731851832 9.067957262512405 7.886333831648725
Be 9.645833388512617 7.659381865889776 10.76226726144799
