17
Energy = -42.731307 eV
Be 6.783425155835276 8.625446994332465 9.996015790964758
Be 10.226001284928136 9.292171539468054 7.07524852534559
Be 7.093144070997099 5.7817890084104855 7.930424676767108
Be 9.877259203132944 10.008679391349629 9.026883582626866
Be 10.35505683566307 8.013794463601236 8.768303791211034
Be 8.379036063218873 8.5507110918522 6.191294006124038
Be 8.866576152894954 8.642377651210886 10.192048539192225
Be 8.502456982478908 10.27276649527331 7.484824573443937
Be 9.102847270974346 6.105437834449597 8.255965946231271
Be 7.624777104111375 6.723040432752715 9.691639210011022
Be 6.6374991326634545 9.27261283972543 7.870316867191296
Be 8.31119399148455 8.07686181053778 8.219355921179964
Be 10.096166967058354 7.257256115102746 6.822791518364202
Be 6.6297962235985555 7.431398562862934 6.745702965838403
Be 5.89778698778479 7.367232767138644 8.63385542969358
Be 8.309268662929057 6.382422744607227 6.310313932649636
Be 7.813441789416335 10.297484748526584 9.38869553908291
