11
Energy = -22.70310589 eV
Be 5.970515226521134 9.946653049591719 7.461395052179394
Be 7.550855061693295 8.58608169470787 6.697248938817861
Be 7.8913057756646 10.325250454501447 7.816443948514902
Be 9.078758143995964 8.725426807101298 8.166129408591663
Be 5.7331983696385365 7.969990890947216 7.537749609252687
Be 9.176880753379784 7.074069827922138 6.890360621744802
Be 7.096288084319555 8.739728103411059 8.934743749902571
Be 7.38314701897323 6.879128660744377 7.947431323914351
Be 8.62762538876936 7.258258736089771 9.58212258140904
Be 9.05949106117211 5.6483145063679805 8.370046005747252
Be 10.401348431803251 7.111446239141486 8.544412928288105
