13
Energy = -28.39340407 eV
Be 10.25188 12.427204607173334 11.749242380651719
Be 8.797232219874045 9.206521609691219 11.017546013738256
Be 8.797232219874045 11.297238390308785 11.017546013738256
Be 9.203437762573394 10.25188 9.296075842996762
Be 10.25188 12.234259188340975 9.66474906836813
Be 11.706527780125954 11.297238390308785 11.017546013738256
Be 11.706527780125954 9.206521609691219 11.017546013738256
Be 11.300322237426606 10.25188 9.296075842996762
Be 10.25188 10.25188 12.225198468410198
Be 10.25188 8.076555392826666 11.749242380651719
Be 10.25188 9.191077183113885 7.77946156194955
Be 10.25188 8.269500811659025 9.66474906836813
Be 10.25188 11.312682816886115 7.77946156194955
