19
Energy = -48.82817305 eV
Be 5.944287814510732 8.319429344545433 8.81094956126244
Be 9.91793090939018 7.17695025897531 8.273544790365609
Be 8.83860078633541 7.104586811707864 10.225295874148843
Be 9.063122363300755 8.685451252113712 11.558302627562771
Be 11.080238003025713 9.65704716086481 8.783229103885908
Be 7.155887239701083 10.112889266162238 8.908394077004607
Be 7.305703829581628 8.45668030169398 10.362307635373863
Be 10.95800272999702 8.466412785006856 7.005364058684074
Be 10.644354928105573 8.075389313119505 10.254079493554675
Be 8.208498277889847 10.328670242783584 10.679068716953767
Be 8.891593757034832 8.51814942349353 6.834116165834322
Be 9.016616876543669 8.976354740140442 8.985587844674386
Be 10.13461912883217 10.354197428538647 7.068496768025916
Be 9.2526547635431 11.071478402957043 8.824813195656667
Be 8.126093302439774 10.58557866476911 7.131805033702114
Be 11.830836234967146 7.623497838379655 8.626910344332861
Be 6.88349598756023 8.943092358116271 7.131463713431928
Be 10.216017991341422 10.098942087636532 10.614512259178161
Be 7.6756812530428915 7.442525162051284 8.348208801551683
