10
Energy = -19.21221565 eV
Be 7.967623406492227 8.203937014743516 8.785512718899527
Be 10.086246581723081 8.387342962866267 8.907811021305056
Be 8.82908945287534 10.201090706463447 8.508098089084054
Be 10.895908089450156 10.229795709744876 8.014645290383617
Be 10.124995044898773 11.860850349461742 8.834164324333303
Be 8.898430254629627 7.171528608649927 10.196352121813492
Be 10.376401068116875 8.212101511670497 11.008200570955031
Be 8.58719118924258 9.253251023409815 10.5279803059474
Be 10.570595538869712 10.216188040653936 10.117140973178763
Be 8.816119373702033 11.416514358544337 10.252694727204135
