10
Energy = -20.27180817 eV
Be 10.45111456150483 10.662701547243051 11.13715274435496
Be 11.570196955816822 12.68098159384317 12.272490492125911
Be 12.611250693496837 10.790732114982562 11.204812843018688
Be 13.385266056533464 12.834470429349853 11.162799034639162
Be 9.756902773648369 11.494045320944256 12.776731147069988
Be 13.395857945633074 11.805112756653035 12.95572879208948
Be 11.615315835392499 12.323133033666146 10.251656139171693
Be 11.61784398298223 10.766849910193358 13.013102738488024
Be 9.759430825401951 12.499332202048679 10.99058789776291
Be 14.608681527819803 11.251210320449022 11.436815603449597
