19
Energy = -47.17596349 eV
Be 9.929329150863047 10.835283437880216 11.15709067181183
Be 12.297286185430732 8.666727497738398 10.056532248608518
Be 8.629615678867559 11.650851195545325 12.493065948569493
Be 10.132502189548365 10.588710340844836 9.091589504731367
Be 9.997615117662335 12.52973121961525 9.988522794560419
Be 11.146731106081496 8.897979924762362 8.42201362993917
Be 12.01132592875143 10.701951572637077 10.519744437322599
Be 11.617798247766144 11.37641507678157 12.539679415543937
Be 11.445548327023563 9.265666010396899 12.035587798842453
Be 11.284943984462595 10.715647891036586 7.362667576537503
Be 11.706793586806056 12.0618966728036 8.873611728449873
Be 11.793030258832207 12.739145900045438 10.875930355630638
Be 10.148824899223984 12.973369945311354 12.042564725796645
Be 9.393844919629487 9.404060868725075 12.497276435803713
Be 10.790990991110764 10.051631354983375 13.8991407372367
Be 8.824828773974923 10.502492471321775 14.184247468984392
Be 10.158968080675496 12.065850487340311 13.894219767442374
Be 12.760866048914925 10.171191200307373 8.633420409751412
Be 10.290775546092378 8.88691171047255 10.389967980081115
