11
Energy = -21.44498438 eV
Be 9.251011587173632 9.223330435100536 14.43276987940265
Be 8.56110511718702 10.022100165121614 9.181762207951447
Be 9.989478778925676 9.164280957003768 10.456873748583504
Be 11.35376340861893 10.216279957077012 7.538076561397718
Be 11.718472304275343 9.830110546969038 9.468162956975693
Be 9.306139923839728 10.340865894710978 7.352591732616147
Be 9.0293581888684 10.984384245988414 10.937715639843042
Be 11.040914681656355 10.839758970345601 11.143023239289304
Be 10.231247854583883 11.23156005481174 9.17255448038952
Be 10.173606557969784 8.821263665780162 8.314910619728646
Be 9.80497092506354 9.786134435253285 12.46162826198476
