16
Energy = -37.70585469 eV
Be 11.10575677222662 6.0104390110258175 8.963545865241285
Be 8.247752920391438 10.238751567029645 7.593939116787045
Be 8.32882748050241 11.40876603045468 9.275238131649914
Be 10.299289845195341 11.241689913761476 9.770137849211975
Be 9.600733582582897 9.279240054021038 9.4933710865776
Be 9.955115976588315 11.335306215854507 7.765750814806148
Be 9.499500990565119 7.09923865552401 9.697210331402372
Be 7.29322941448113 9.600535725785251 9.318295456184446
Be 7.577695288106224 7.682079132670782 9.989992896306504
Be 8.470932411852273 8.15779939229862 8.059897508605959
Be 9.975771817874936 9.356772348461957 6.961119796746267
Be 8.72491290906956 10.444361514854373 11.05449082675219
Be 11.328920087804141 9.922164688489607 8.384563882445828
Be 7.152146195531469 9.201974566509017 11.34227938687638
Be 8.977663001762433 8.350963394550448 11.359347482144376
Be 10.675683303469434 7.8838497867130375 8.184751566265453
