17
Energy = -39.72929497 eV
Be 11.155667091148604 9.169237210327816 5.528534503102281
Be 10.418880120311375 8.70606540684027 9.194253283903892
Be 7.065099030537456 10.457625068810245 10.888079279832453
Be 9.42055352205231 8.360511401385672 11.059658096352429
Be 11.52273675893357 8.71188251203625 10.989601429628463
Be 7.345042975944432 8.460106826130044 11.053657473901152
Be 12.128071793164583 10.63826013489549 10.751403793293997
Be 8.68040016582382 11.461108076913195 11.700560368459993
Be 8.381883278786063 9.43727077373165 9.492765872741254
Be 11.788773693121257 11.187915484713708 8.800669926220902
Be 10.288888297406423 10.183157873937898 11.929464447639898
Be 12.495375525345834 9.236204169679711 9.25333363969692
Be 8.340237959081232 9.55426451781238 12.413465803863913
Be 9.818615810518192 10.624550754849825 8.439175673518227
Be 8.351601280191998 11.525667028581818 9.706015558709442
Be 11.440123248147628 9.63498435236058 7.5323527139813535
Be 10.398154270623873 11.691293228132395 10.307112956292082
