16
Energy = -37.91180508 eV
Be 8.99759038697365 7.198949915032794 7.901884395842845
Be 9.461679718573036 6.6063950302865 9.773957456083346
Be 10.37249366210731 8.498986171049122 6.920523188839912
Be 8.288085377525736 8.097223887380988 10.497970817285783
Be 6.779958784765332 9.81818441877591 8.387111969173661
Be 10.134743065005884 10.569441506302253 7.187205652654736
Be 8.504353415529906 9.264118042870852 7.369935433191448
Be 9.419212083674083 9.880731157342233 10.508632821196127
Be 8.669492247871075 10.899700546904242 8.771690311843182
Be 6.981331985610424 7.79570309162465 7.789046086676489
Be 7.497657683884809 6.540088044342372 9.315158879832232
Be 7.366996481688689 9.95697373922721 10.30938292423978
Be 6.322069690450309 8.259672089310227 9.676673771555413
Be 11.79626926191725 9.595479125895078 7.8017750084546815
Be 10.713942539318744 10.649558610062028 9.161391796576359
Be 10.315516092813278 8.515895141972587 9.088483403552432
