12
Energy = -24.32134097 eV
Be 12.05197817525899 11.43397462811279 9.947124265425211
Be 10.818433643051076 12.136898013622998 8.607086995178426
Be 11.257632773146897 10.17080680042822 8.586894072893084
Be 10.660631224726824 9.856973427101568 10.6431985995383
Be 10.13614280823031 11.911517023523272 10.555097726702673
Be 9.141573814726106 8.408297459546938 11.030955793361711
Be 9.214588955938828 10.696602994299973 9.092869897366146
Be 9.84535966430587 8.645784646390622 9.047940420745034
Be 7.855928252299141 9.19055669031214 9.698422829129267
Be 8.752929924898302 10.43466239393582 11.070206600514684
Be 8.403871659509196 7.201218183080466 9.52799513087403
Be 7.767456524783953 5.819235160521095 8.09873508914692
