15
Energy = -34.31409633 eV
Be 12.36094506687658 9.085958466539983 9.09339651138036
Be 11.4547848213603 9.551886674539455 10.971728118442687
Be 11.543863131289585 10.86677502275854 9.242323399358511
Be 11.00339041152338 9.628297098451968 7.65165472787126
Be 10.262634722897538 8.639780900690159 9.45390533525116
Be 10.190307697471573 10.226670044762404 12.477194063215665
Be 9.937523646303767 10.914364314755256 10.527996293613736
Be 9.473070409413651 10.706350509580401 8.531245738602673
Be 9.411390377653841 8.81687335441154 11.279235399893885
Be 9.060584535117316 8.786125288056075 7.757991782684231
Be 8.2705247304334 7.923049193970752 9.620646445815366
Be 8.157990756665047 9.988811223458567 10.049224675974283
Be 7.43793774902428 10.023154554953726 8.062856784105234
Be 6.422131832236446 8.873396756217824 9.477265228931499
Be 7.067610233940395 8.023196719060845 7.858025617066679
