10
Energy = -20.90749948 eV
Be 7.022698288897672 7.388803733706148 5.656582724869802
Be 8.94026657833046 7.866462645168671 6.436011567304089
Be 5.015619002371132 6.938100882438558 6.219728223242141
Be 6.392484910041397 5.377218103531771 6.250291870247465
Be 7.494456370789537 9.111903784871203 6.888387108065029
Be 8.376339990642624 5.9370242971664995 6.4710987069240025
Be 7.624488206134042 7.319098095837205 8.09641848112123
Be 7.369591300232788 5.170555666415261 8.04263049557549
Be 5.631175999446472 6.287419862017428 8.070495008389
Be 5.797094335457697 8.267627911190662 7.532570796605574
