17
Energy = -35.29982174 eV
Be 10.049825538547235 13.532659991330066 11.930631701019594
Be 11.053800077275381 5.166847504991041 13.29138088058433
Be 10.63199262634951 15.705109392283266 12.081615992997277
Be 12.332690118424669 16.00343769128658 10.839053287160485
Be 11.415937972280961 12.592270385798027 10.602736679714997
Be 10.681605331433978 14.65185494937229 10.242690566969646
Be 11.601763343386276 12.388969583598145 12.80948559244779
Be 11.976418597738986 6.785494356555017 12.443672902560403
Be 11.967432755922998 14.196269965362335 11.823745313961899
Be 12.719766808142563 14.125101922591464 9.936802773422341
Be 13.302286410278722 12.686691805772226 11.567644081794445
Be 10.894676720209977 5.49653969760559 11.282426617542667
Be 12.678499560269163 4.899295433943089 12.081245695489187
Be 13.253002437951018 13.740842392797456 13.403734264046546
Be 12.518802191357622 15.800162283293854 13.045140684567592
Be 13.88653328022458 14.85709894771771 11.717481939921594
Be 11.21477499125429 14.268080958216132 13.711895607985436
