15
Energy = -33.82959064 eV
Be 6.06370514677582 6.325807351705813 4.413917391011563
Be 6.991609457828668 8.128490928539431 4.70825540469038
Be 5.186508389137093 7.742277209691646 5.5938164977922895
Be 7.8384144157781455 6.521254523203023 5.707897253681694
Be 6.574587491098312 4.908958951442793 5.8684631522287996
Be 4.707047961443938 5.731043611892344 5.926138076278809
Be 6.9981490689160175 8.237450013285498 6.795392098731647
Be 8.879780088415727 7.5279553128391274 7.400620215790781
Be 5.550576992708881 4.991253641402719 7.640746919848056
Be 7.386196053260263 5.986220082203743 7.641148427462308
Be 5.470873778526609 7.059442886392617 7.509914533369625
Be 8.250515426126043 9.379659616404735 8.071126202329008
Be 8.688006167597381 6.369951856146702 9.269741823436231
Be 9.13459988066126 8.270877413930835 9.422160731046016
Be 7.124176693688306 7.664103612882455 8.875408284265989
