19
Energy = -48.83023501 eV
Be 9.101460678377501 7.345552925381603 6.187871423801348
Be 5.655165145926404 9.332976932618138 7.063796467864775
Be 5.765233550042178 7.335639886383504 7.510008022193741
Be 7.2259176231629985 8.194968993948601 6.2506763701877395
Be 6.551913911786101 6.917118364201944 9.315905010874948
Be 10.527125174507704 8.431688029322965 7.378451565612803
Be 9.737032123075059 6.510743785180869 7.910169848135118
Be 9.338000169379303 8.474322982630385 10.888292313526074
Be 7.5834321841616745 6.417202701931399 7.51616907995837
Be 10.498018506670974 7.460279520456747 9.451833555674568
Be 9.531592892535182 10.287399331657795 7.804247307492452
Be 8.618719077612608 6.6718728757678445 9.824752586921502
Be 10.343730096838271 9.443398444577811 9.381676877532547
Be 8.38071708351361 8.265355493485652 8.30423668894307
Be 7.487856266250856 10.086586980126294 7.490190298589949
Be 6.357025585241077 9.013274794662701 8.960131158635916
Be 7.350734915086778 8.21982046080686 10.643112889309219
Be 8.275035815582548 9.895136785237748 9.710790872715304
Be 8.966153151744978 9.362883760268588 6.106529884448742
