18
Energy = -44.49958607 eV
Be 10.437976111037022 11.188259741576212 8.502874251541654
Be 7.88676029351837 8.283725687109373 10.15713354635469
Be 12.24662266977835 12.04054678250893 8.962637907816292
Be 10.527394977472134 10.8863455160271 11.632762304216138
Be 7.2725011456897235 10.310038073531866 10.01419745030825
Be 11.16685418419421 9.188864740451624 10.496514119059709
Be 12.264782486210324 9.924384878718838 8.817132441274921
Be 9.31047095608676 9.217063864617772 11.610376673852176
Be 9.820480472145587 7.57877204732332 10.418911529648074
Be 9.361923139469841 7.669687547867805 8.485794364751625
Be 11.348262942402977 7.792095047569209 8.935388812651011
Be 9.065765905248545 9.681718735838878 9.096228761268867
Be 8.49788007089245 11.215028025835219 11.551161505811288
Be 7.269154051286129 9.45355838944328 11.77884384337679
Be 12.290165884273751 10.991543318903844 10.611810404683872
Be 10.617527780335136 9.214360689827766 7.753861828541096
Be 10.594285466976135 12.389670930236997 10.290329175557277
Be 8.770301918385915 11.723183376405656 9.629905754448055
