11
Energy = -24.76192711 eV
Be 7.753979055442974 8.762631384135325 9.80437194833674
Be 9.411900484896366 11.09274762827982 8.461318849452676
Be 9.198762677243767 9.304570242912291 11.20763330375381
Be 10.270360732064129 10.810875895418684 10.344181838098361
Be 11.052637336054405 7.91414566053601 8.689245683289018
Be 9.462312871309297 7.642023225616794 9.971852460140195
Be 9.257649757225288 8.955208478128748 8.27879907448125
Be 11.132705807949186 8.883121429531133 10.468158000640651
Be 7.553008999973218 10.20621851780663 8.345602255547432
Be 11.120878997788123 9.975377433668982 8.628743189802279
Be 8.161509030330224 10.828785854242835 10.175799146734839
