10
Energy = -20.38890035 eV
Be 5.5665089540605255 8.380254918808346 8.203153926985948
Be 6.647114676389838 6.660942572380749 8.073282410837901
Be 6.042499155357095 7.651982058302585 6.40371223372327
Be 7.600464896706952 8.336712167914904 8.936895806928588
Be 10.196830967852554 7.44593746427857 7.6014957338465505
Be 9.112962889865695 9.161199066867933 7.7198529394504485
Be 8.709732866458495 6.559007090480291 8.669304728530165
Be 8.157922550777895 7.48468015627211 6.857590866635156
Be 7.048503880857565 9.263713609393795 7.125513109309505
Be 9.707668074548433 8.17565935699734 9.397839607792578
