12
Energy = -26.22401246 eV
Be 9.51162050374956 9.121913541688022 6.892959553731622
Be 7.354026420759907 6.3984127789881144 6.759243188427802
Be 9.328777280628817 9.228447146623973 8.909575669820704
Be 8.02429288303525 10.18799690215407 7.718679934684925
Be 8.530825280382887 7.691026394375243 9.923789703243097
Be 5.855224360917535 5.384427797285887 7.762283181407148
Be 7.11541987189315 8.632396976722205 8.764999213627386
Be 8.901473828676089 7.481937069170493 5.911325843035393
Be 7.158540334127798 6.503811028289532 8.921350184818152
Be 5.766755695643041 7.4486983112639 7.657980336508628
Be 8.99248967058 7.219464598344622 7.95975001374083
Be 7.301580947940869 8.528847011207771 6.684209679899271
