17
Energy = -42.11384734 eV
Be 11.477928830362409 9.518299509209347 8.941890920980105
Be 10.501053569395477 7.799350622324466 9.777753516514673
Be 11.375274119004187 7.84480008095657 7.8422412768652405
Be 10.110804529925813 9.327856189797073 7.1780913186391535
Be 10.283894662184478 9.800564632958146 10.629683595400484
Be 9.861757535255991 10.700023559208283 8.816041610348963
Be 9.401621562597706 7.2578575222356685 7.865734396111296
Be 8.816861187135405 8.951972916920933 8.91052429249491
Be 8.168793722919373 10.31462975884023 7.4536157481107335
Be 8.17804277118709 10.201080991117907 10.465842945398254
Be 8.97253391681416 8.4428941507352 11.261744022667072
Be 8.297172096546038 8.38520461486189 6.555372816736891
Be 7.19847391008893 7.683212791285491 8.227167824286957
Be 6.491401176351148 9.193675772077203 7.013183227368977
Be 8.486340219759057 7.072426366973083 9.790551568301535
Be 6.717800510719 9.873169736975187 8.939453554478415
Be 7.004494196030617 8.418229068567724 10.27868554348798
