19
Energy = -44.84804402 eV
Be 10.69759 9.546049393596402 8.53722402189199
Be 9.695065277843488 11.275198263384581 8.504029039800798
Be 11.700114722156512 11.275198263384581 8.504029039800798
Be 10.69759 12.612593154237441 9.939443040618778
Be 8.996465202365812 9.760983760643649 9.914144986655163
Be 12.398714797634188 9.760983760643649 9.914144986655163
Be 10.69759 8.347162979397316 10.145415442888556
Be 8.643998716136426 11.90717797281301 10.080997509949707
Be 12.751181283863573 11.90717797281301 10.080997509949707
Be 10.69759 10.62599573197636 11.237348348444376
Be 11.867150017970447 8.826735307781286 11.787008587472807
Be 9.528029982029553 8.826735307781286 11.787008587472807
Be 12.801310118013644 10.685963272384127 11.819056884673657
Be 8.593869881986356 10.685963272384127 11.819056884673657
Be 11.74044678662355 12.498270330038531 11.852148371256108
Be 9.65473321337645 12.498270330038531 11.852148371256108
Be 10.69759 7.195621245634445 11.903282194434611
Be 13.762189663692796 12.509064956181602 11.788363327349055
Be 7.632990336307203 12.509064956181602 11.788363327349055
