16
Energy = -37.35538894 eV
Be 10.35109417396167 8.70491898822376 5.924602846216581
Be 10.057444654602278 11.47011494261794 11.99127528654973
Be 11.102431614504585 9.75905474091266 11.380131666985971
Be 10.36706307842686 7.882600132064221 12.215197307224985
Be 9.248745071103109 12.300084341747331 10.194472601609396
Be 10.49093456225185 8.351428640201446 8.021117382179064
Be 8.410675854420527 10.914371636924503 8.796542044617404
Be 8.752981551067563 8.81883358501918 9.132414010772413
Be 8.660903649547084 8.217769142096943 11.230482568225362
Be 10.174172267951283 11.835086061723487 8.412912168165064
Be 10.802321811816835 9.99757193700263 9.303809157849097
Be 10.442747032323322 8.081854455147987 10.14508688368053
Be 9.391488710723989 9.570869950078983 12.657330351754927
Be 11.16173012556006 11.741685633451997 10.326963628217078
Be 9.633564047135218 10.018093540090705 7.449390181106387
Be 8.848952229357929 10.232912707450819 10.715522349600183
