17
Energy = -39.9716039 eV
Be 7.61440747848008 11.629293257881143 6.282000446198349
Be 11.366589820093044 11.165788107568694 9.666326327599634
Be 9.985932561438648 11.177678604307454 11.360001300483649
Be 10.423152179468545 8.308230944016717 11.636140520018953
Be 9.963924657858362 9.597131447753146 10.045665880689775
Be 11.66641505664661 8.99991130266041 9.120787148113815
Be 9.766763458873108 7.635930894058617 9.575646093562476
Be 10.809035305419783 10.007197467229025 12.822483450083041
Be 8.284251785610405 9.056776553549739 8.862223290200568
Be 8.387873332057525 8.2960977997869 10.988231337914756
Be 10.059756258675266 8.67139495196076 7.839605814656812
Be 11.827387543192817 9.851770962330795 11.117488718393549
Be 8.055861958568025 10.301156811809244 10.630480193085814
Be 8.938503199729096 10.200670139079355 7.121879924879681
Be 10.949066949881395 10.465694346065689 7.793808711853709
Be 8.840001800519433 9.679522415421669 12.37836210655486
Be 9.264134940053411 11.158812281086472 8.96192702227639
