15
Energy = -35.01784397 eV
Be 11.593118895927573 9.237688784620147 8.834231169657025
Be 13.293599681137035 9.005841785415564 9.890609276999768
Be 8.213129997715495 8.370219687386902 9.344913456794677
Be 9.571473590090045 9.69254490665739 8.437766814741439
Be 10.162975731404343 8.5889803485403 10.243448097437872
Be 12.657106604329288 10.94017170602717 9.76388684936748
Be 11.048537813764705 11.194370552264957 8.542005845967099
Be 9.129638494521885 11.68774644891343 9.163424243043568
Be 8.385371766882722 8.748185416544416 11.370928305789114
Be 6.74418185985749 9.331112899781177 10.34612256805206
Be 7.606110647433571 10.32709471736145 8.828142050548665
Be 10.669540203149106 11.44052316704675 10.556363531352499
Be 11.80758984286074 9.721050533682462 11.11296030667316
Be 9.90634151234213 10.034343435011559 11.870923705768258
Be 8.326855960276163 10.795698212439039 10.809846379499737
