16
Energy = -38.62450956 eV
Be 10.338195101892227 7.726237695655496 7.641290231474734
Be 10.967816214294762 9.653542974830547 7.108876020590224
Be 9.718726164035184 11.219998589404097 7.470832987284436
Be 8.36829952553339 7.243453274683924 8.294902609101655
Be 10.807261084424132 8.989624923578969 9.197490111993051
Be 8.907757673903774 9.229263249691227 7.545796599218631
Be 10.015798100731418 7.036783506984227 9.520018250918437
Be 11.367263119717084 10.966059566836048 8.551796235037457
Be 6.900004287991187 8.211509138677139 10.757694927590187
Be 7.533946397073129 10.142868224114087 10.231008567187441
Be 7.85375973113534 10.832598443594364 8.352871534690758
Be 6.500751671506374 6.906865964466927 9.311093744253482
Be 8.963524148469425 8.639535649578018 10.328983010674737
Be 7.062289669879507 8.881301623093943 8.671905897590735
Be 8.148585582049627 6.647677734682088 10.39523062010618
Be 9.501580288292462 10.628238201058425 9.57576741321726
