17
Energy = -40.5219024 eV
Be 10.411103832253218 7.999087238436095 8.06520441265363
Be 9.691460174921712 10.068352746856254 8.125485399569671
Be 9.063211320643 8.763258030908199 6.48016301285337
Be 11.049693587790259 7.35337943948499 9.880680380440511
Be 7.379334033389603 9.433046534628202 5.564760592168836
Be 9.780018218614346 8.998540546761783 9.946602399177713
Be 8.808794022299216 6.73522355202037 7.268375706663409
Be 7.682354958288967 10.187683569352398 7.478224534869417
Be 7.066113384152219 7.869316628357484 6.889108475384464
Be 8.423676153507865 8.43866430146837 8.41759742877129
Be 8.043270934792883 10.140848280956446 9.560791933664776
Be 9.161030382938847 6.681633405412415 9.351902936964354
Be 5.792059218954008 9.503384650903552 6.948450027141144
Be 9.462329704665423 7.422293768777239 11.264421359310395
Be 6.436263199913328 8.878809983429774 8.769856639632758
Be 7.784160332432011 8.114695711799108 10.355102989208591
Be 7.149753754380203 6.808154422791979 8.715068505547954
