19
Energy = -47.2718625 eV
Be 9.910010041098783 7.422180224622478 6.706272432580964
Be 8.105579032501828 11.263171993697151 7.719644485766899
Be 7.281461010875712 9.425378727132609 7.914278877827737
Be 10.087734819703373 10.9549228893501 7.920340797070675
Be 10.675113103218315 8.762882248166108 8.068988194559758
Be 10.743188096952958 6.783426396852754 8.61465283031546
Be 7.145274087093611 10.552760782475938 9.665692657332368
Be 8.815674137658283 10.289254829122795 11.157539459767712
Be 8.607459148654712 8.197672545952159 11.014664708020131
Be 9.18095957631675 9.688140646065433 9.291009368685351
Be 8.968432832706435 6.0038833741092965 7.827524771564976
Be 10.45572810133129 8.226489293254302 10.123820306885419
Be 8.884909259072954 11.730742083054789 9.52205292233175
Be 7.899086954671038 7.633282553621046 6.8119283895647875
Be 9.07221135776683 9.451314312805387 6.870602207910723
Be 6.990568540289719 8.382981752358788 9.688390114650025
Be 8.664498421016054 7.85301093992256 8.646559943978327
Be 9.277724323551338 6.452043214050278 10.034997997732676
Be 7.003537352491218 9.391204587866742 11.440381082845537
