10
Energy = -20.18542351 eV
Be 8.022361114160992 9.214630411704237 6.790093636241047
Be 7.137611414872782 7.388243286952828 6.522489440286567
Be 6.1389405978356875 8.773419195990128 7.606673677183278
Be 8.96515921533732 7.486281795083648 7.586384251868727
Be 9.669729144774273 9.443058957782533 8.020321112137884
Be 6.950938892761874 7.18089015347047 8.603372024708598
Be 10.484349473496572 7.850397228867041 9.015004003453054
Be 7.657668360580728 9.136353379702234 9.036272640739147
Be 8.601427637932495 7.406658875241944 9.830809777507174
Be 9.48454512909252 9.232797696050303 10.10131041672015
