20
Energy = -49.35320322 eV
Be 11.672360417554062 7.277471115188224 8.177797275176777
Be 10.069294384311307 12.487520576681007 11.755904055125775
Be 8.392719375181189 9.109568103181271 10.018098736846843
Be 8.767556527160577 11.355202243823047 12.958405588456124
Be 10.715939548595884 8.264035762501603 6.703817039174201
Be 8.888110064082962 10.789826433960103 8.701918239285046
Be 10.667020983214085 10.608729735697015 12.187109749970542
Be 9.71833201634817 12.495263335227055 9.686046704419667
Be 9.325466201555797 9.53144872795443 13.50656932607279
Be 7.8817207625436545 9.63724653714819 12.137244437918055
Be 11.49891259623832 9.45145977657021 8.277709058023687
Be 10.937506767466541 11.458186388344597 8.438452850913531
Be 9.69927981632744 8.791975493030442 11.602416012598233
Be 10.081805849528234 10.273480388514944 7.001311320972925
Be 8.697785933567548 11.095981093453325 10.826013723734887
Be 11.4774471279459 11.753899867791162 10.456942613977816
Be 9.045175519166307 8.84165991369846 8.016720792986481
Be 9.784597470815367 6.867527619880178 7.8799064701258485
Be 10.52395338206542 9.971396736841443 10.105279961674409
Be 10.181633958423415 7.964738852606321 9.58895474463952
