27
Energy = -73.69717927 eV
Be 11.377053028521418 11.006263120152594 8.625376232389376
Be 10.357751138372398 8.306176299053602 7.157571130008993
Be 11.865910421224184 7.28138708474499 10.274994062286828
Be 9.164947410189738 11.905057143336156 9.423675329223881
Be 9.131147334961092 9.20761021255832 11.487407904299117
Be 7.544134510407819 11.098727851351155 7.951571771623553
Be 7.410610601885535 8.078439937291082 11.57784560754839
Be 12.30755638838498 9.318975793933848 9.586988138152355
Be 8.259325989065328 9.691086305734231 9.557028245202249
Be 7.148161378297 11.701076958851248 9.934269402300325
Be 8.493655872430896 7.465142211284865 10.040057177231924
Be 12.19971403894739 9.451078977540941 7.511525910626258
Be 5.969185378217094 10.214496856912104 9.254075183761907
Be 9.516514982093033 10.392073593867032 8.129285436231422
Be 6.854547649578764 9.99176666862052 11.171432226131417
Be 11.249994411533548 8.928443865747356 11.35959901541876
Be 6.7866697815474994 9.160519538755183 7.7140156220055385
Be 10.671392275083347 10.291160503504972 6.536290017792641
Be 10.15683524333723 8.773674395758825 9.357577930087926
Be 10.038885688524685 7.261949612930184 11.254406414602423
Be 10.407711391622948 10.61932737871642 10.424897776715548
Be 12.009913937856595 7.587993494980291 8.29605756208899
Be 8.535391345600763 9.483057115109894 6.658838602630737
Be 8.577795907786877 11.21256021627108 11.3264164484148
Be 10.232256316790759 6.740996239405205 8.989010040544876
Be 8.476317520522874 7.976329961135831 8.100685514881617
Be 6.620682153047424 8.27386150763014 9.626828443464472
