24
Energy = -64.16659667 eV
Be 7.894638001173497 10.778087404821845 12.777109248115664
Be 9.59853654088592 11.530939548598434 8.485444974223867
Be 10.121429652693738 9.073431484891758 9.013708267769381
Be 9.817474334196422 11.165886368604742 11.98780190829631
Be 9.136155528626652 10.360084127528529 10.260999324924354
Be 9.444750612031385 6.780218746301478 9.332821707089998
Be 10.834528624850574 9.3008863263317 11.131816256804546
Be 11.063398855863626 11.092602269428824 9.934967755036189
Be 12.229552840910237 9.448454453916739 9.554426105981166
Be 8.256268260167012 8.36499974251919 10.07029438978944
Be 8.872550525820419 9.121332093984961 11.976844273243
Be 10.654621970574896 6.944978315764733 7.746021997143978
Be 11.26928096955535 10.412248940940259 7.798954199150515
Be 7.214306567040634 10.250668113161007 10.874719833115371
Be 10.533783745105625 8.617353633513561 6.666096718196459
Be 8.681457593110233 8.073639033917647 7.8450462585519025
Be 9.224746128534122 10.098190180078324 7.125501922072021
Be 9.852363095074345 7.495688395763437 11.181055328530562
Be 7.748451691296014 11.871191696590152 9.481414544052107
Be 7.903617682717022 12.270980531155832 11.463635627585246
Be 9.532523240247025 12.531184133929225 10.32945103780959
Be 12.132656874690749 8.342790800646565 7.863614618208946
Be 7.8905948313608745 9.916031607575636 8.667101085050477
Be 11.41983591560908 7.4856561321708615 9.758676701394762
