21
Energy = -53.98465246 eV
Be 8.52482311623666 7.298601657225306 8.691966693719364
Be 7.264341946656585 9.429997968819018 11.002702312254453
Be 7.19095821964241 7.433859614475607 10.391724142267373
Be 10.646914911834156 9.154141142854877 10.965343172537603
Be 10.336865960860322 8.486337120524677 8.302634243907912
Be 11.426195456135519 11.15941209168245 10.489269641265414
Be 8.893054960372579 7.923787921200729 11.577390497588613
Be 11.161856988405196 12.281266366877688 8.660441001102553
Be 9.04131877330477 10.591521317945448 11.122880225722724
Be 8.851695925836154 8.914869611926578 9.837615055023047
Be 10.04783047887123 10.368957579315518 9.263901258870122
Be 9.551959120556019 12.258115419941399 9.970508086559757
Be 11.190279187845483 10.424486045838371 7.618712416354792
Be 6.980828239668312 8.892268339402369 8.931391985877584
Be 8.59580386562136 9.684645101755683 7.872250956567613
Be 7.880890910949365 10.880887890271683 9.418663255954202
Be 10.425595851062505 7.385371241538485 9.998067601589481
Be 9.308632739380343 11.68785065851221 7.900211426993507
Be 12.724944741530473 11.057399268691544 8.866731010066005
Be 11.903320395698927 9.194099891536514 9.378959866895537
Be 8.753313447475291 6.193548987607777 10.440060386825587
