22
Energy = -57.68829504 eV
Be 9.0700349794609 8.932050977667464 9.128395307655603
Be 11.337971140614501 8.117097118305944 8.955260710594516
Be 8.247086958598718 7.557572775596194 7.811048440694116
Be 8.778746083336728 7.7049174787477455 5.835017429631027
Be 10.643140136210066 10.03520950247389 8.203133739128852
Be 6.75330554060607 8.306954675313332 9.536745578933768
Be 9.98268208643267 7.705968352772384 10.671656560138487
Be 7.991051902218892 8.419994494297141 11.152561787648015
Be 7.700487672264638 10.244979298624186 10.083961115449789
Be 7.12731533201885 8.887537818980803 6.063192786318079
Be 7.144778467999158 9.635924588268907 7.995519262884527
Be 11.039103509148674 9.597978310030179 10.333657953703847
Be 5.82373227231233 8.102241369906855 7.602390776096826
Be 8.213108763644644 6.855056829616631 9.88351282651422
Be 6.646185212857179 6.468555569000477 8.478229423803523
Be 9.012486222733367 9.535781339192333 6.864782340640196
Be 8.694695511835798 10.988454599654313 8.284215377864886
Be 6.770923720186724 6.888303936592918 6.314551101115977
Be 9.792236016847339 11.136084711714167 9.93768425301099
Be 9.3922246596789 9.839893830575782 11.427958926347829
Be 9.935338403022106 6.665857871674842 8.721113217660557
Be 10.350755207895846 8.066343634081306 7.236520835479613
