26
Energy = -71.3815368 eV
Be 11.555783614500474 10.006124001558804 12.8675054203263
Be 10.958875226361581 8.316660553479027 11.861202944744052
Be 12.470700492325705 9.824336278606191 11.018680617742671
Be 11.942717271083668 8.0318049389675 10.08110678009044
Be 10.911612230205574 11.425983718872114 11.53003417116118
Be 9.564677824470026 9.928563277172785 12.44548201361468
Be 12.507163144680167 9.599289766599155 8.903395941304716
Be 10.345456061694547 9.709789269245542 10.259946057168248
Be 8.924212739980579 8.067174332732996 11.654824152158627
Be 11.892808258062832 11.360755387689737 9.726469037743335
Be 8.871154292717593 11.561558933239363 11.283530849990662
Be 9.862751613298824 7.547026780346944 9.898850371619796
Be 8.077682816721437 9.744794199443323 10.932309720775045
Be 10.947974234026564 8.378431854655313 8.313626124632496
Be 9.800244641212174 11.732733675988317 9.453530348789533
Be 10.9139007452531 10.62069191083758 8.073412216570592
Be 7.81145410015566 7.895986324474725 9.854267779417206
Be 8.987401840606612 7.728730465721858 7.793613815753176
Be 8.876377807040138 9.537078218202257 8.853147483218102
Be 7.759988609629619 11.316954238474151 9.491108122583258
Be 8.936961581688005 11.086848000205363 7.437788601578571
Be 10.077609233152032 9.332340786505346 6.750896419239773
Be 6.505938291032708 9.57619864688782 9.56083367675425
Be 6.938804408870788 8.334185934892025 8.010350941968376
Be 8.079024072553628 9.285354603698483 6.589338420139545
Be 6.907202214753669 10.479081267580424 7.783225336992928
