21
Energy = -53.02126133 eV
Be 8.931591877683594 11.686335168898024 9.372547851972701
Be 7.199101681097635 7.977201636697574 11.556430271363269
Be 7.877688798573909 9.912647993955598 9.165179709738794
Be 12.256574786296996 9.305194223045726 9.415888808262393
Be 9.848829687450603 11.460743775038422 11.208809016665239
Be 13.010989324721036 11.357048782022282 9.381774449688326
Be 9.924809749874537 9.737442933743639 9.824520747209535
Be 12.003105414998377 11.848097258417114 11.16672383276574
Be 10.960165823485081 11.682128231426676 9.340802989479869
Be 8.696553953994558 9.635230337980369 11.56434863390571
Be 6.967042584094459 8.046420886279334 9.538019384466164
Be 11.250584314740754 9.838089401077177 11.329638936878505
Be 9.642802419058938 10.295849314230294 7.854596774816414
Be 10.998975616271496 8.70623081691043 7.807407293658477
Be 8.836513544278663 7.914301211045116 10.332117889275043
Be 10.759615661295832 7.86395155735032 9.592564527851481
Be 7.734914611142843 11.319707971811996 10.93609561281615
Be 11.781605453271409 10.619575902776733 7.85197891229302
Be 13.269708631250973 10.301821036108585 11.05537368397647
Be 6.512730157310292 9.665660014014287 10.805434255522067
Be 8.97784863046454 8.268074268528235 8.341499138751452
