28
Energy = -76.76318158 eV
Be 8.115104159448707 6.609833602419691 7.158720095519891
Be 10.606463062290645 9.011936439024078 7.048653078754456
Be 8.356201852330178 8.72499033307105 6.4735330585553355
Be 9.709319254713002 9.87858954605654 10.960755517456265
Be 6.342040411315378 10.269294993599637 8.747932135112777
Be 6.465261491879546 8.733903618672844 10.1637365739411
Be 7.754824741972641 10.593778818462189 10.248859321773635
Be 10.319445175791719 7.593683980243214 10.119536885975435
Be 10.653851524362503 10.991790310048701 7.773642761184674
Be 9.293806101893335 8.035541188190964 12.026645215777652
Be 9.026432299976104 12.128591152893291 7.367177557355478
Be 7.7841964901200456 9.400839085836196 11.92703830357515
Be 7.084317222860748 8.436890716559418 8.121050483053168
Be 7.552778703010203 11.949027947445536 8.669380322270024
Be 9.18209963637156 7.929040466873963 8.266271932176442
Be 9.503329089885924 11.534659680205396 9.46902024835685
Be 9.975035964570106 5.603882377931876 6.958699524587211
Be 8.4658312915052 8.583436783010363 9.977632667593127
Be 8.691494368071353 9.907456522862411 8.354599815412058
Be 7.38027525492873 10.683676859618574 6.936542797143855
Be 9.381814474795425 10.489150211079275 6.200546387260316
Be 7.480652503758806 6.790016832559904 9.394958891446363
Be 8.888165941150257 6.308713924421221 10.886354370680191
Be 9.417576850747018 5.963126660917216 8.947526410289106
Be 7.362595643850566 7.421385466934609 11.599124944714596
Be 11.037198650132666 7.1341643668965915 7.978598239620488
Be 9.886941104175426 7.353184305187271 6.110000579060732
Be 10.622952742066639 9.401826997244035 9.131779511912953
