28
Energy = -75.77499582 eV
Be 9.099470315719218 10.739594409628337 10.83444007496094
Be 7.84815074573754 9.202561180890795 11.055566104092554
Be 7.438246611568165 10.511004763875226 9.401315395999651
Be 9.97850018566751 8.800808749409427 10.781688692498465
Be 9.243250010301377 11.532301028016269 8.999728676449271
Be 6.654065820697984 7.453881778835141 11.3361439901125
Be 6.635772143006148 8.464343175708988 9.5393833366826
Be 6.785987275782285 9.303953092504333 7.640398551522622
Be 8.19783850896013 10.952759499754068 7.34596548104937
Be 8.963319685771374 9.12772107186521 8.649524317350867
Be 10.589385971109929 10.594703841945645 7.738705313039123
Be 8.463263336872883 7.3228302704843 10.255819516945369
Be 7.800523729216493 7.431485253692752 8.132850264777764
Be 6.722753950690199 6.263710439152946 9.638238891529552
Be 5.7672013805734625 7.1684087655968485 7.923122731117851
Be 7.565334497344689 9.791507741991282 5.742519607153202
Be 10.369730939970763 7.007691655504996 9.67957451020241
Be 9.558422835929049 10.303430949474732 5.967156272953384
Be 10.852213620883452 10.465994367177043 9.829787026177467
Be 6.95000345249829 5.231637209718733 7.962907389194798
Be 6.787940081933131 7.837295020782597 6.1764876423032185
Be 8.789753049746347 8.243315835411387 6.337117133004812
Be 8.772270433431743 5.713008633468009 8.856526472252815
Be 10.747545410133501 8.814263947553357 6.784857439955246
Be 11.16348766706642 8.707640361450714 8.82372369892372
Be 6.209039417780795 5.906779739492585 6.262140154382787
Be 8.285623509955698 6.108625219107131 6.589648231922585
Be 9.92597915786638 7.148283711794998 7.735488550208183
