25
Energy = -66.12447574 eV
Be 6.493076847159795 12.386986144653362 11.361915576424343
Be 8.13470299729431 11.64338035047488 12.232399237158747
Be 10.722197257308673 9.32799941175609 11.487369709617646
Be 10.039079015594666 12.03943992415994 9.257444420277915
Be 11.678313928098676 7.3824138851769785 8.253953223729495
Be 9.671665359689221 7.723596845924847 7.367474664133146
Be 8.802601877347302 11.05403240848958 8.028511720048204
Be 8.248246294845426 7.685552000008912 9.071022508731957
Be 11.059622318584116 10.83936253125006 7.849337616116653
Be 9.649140522805364 9.81631604028839 6.616125448721901
Be 12.678441337163079 9.305130280199865 10.748643253708082
Be 6.7947536768865895 10.378476169865753 11.290904982047483
Be 9.726217601130488 11.042180468173473 11.054671891332134
Be 7.364888487383325 8.26709714601228 10.853093895396935
Be 9.993677913474869 6.716705755856302 9.19056462544621
Be 8.106662210269155 9.128152168709605 7.670395485671754
Be 12.340123430440805 9.311106314474008 8.720607168796649
Be 10.070953570534128 9.206547608116672 9.122451599973997
Be 9.36159931909054 7.893742788836133 10.831270198211689
Be 8.03991716590146 11.892788125390656 10.033563201412337
Be 11.350926604007697 8.913076601748603 6.982153908724467
Be 8.022038135098128 9.797123134967684 9.660473335765044
Be 11.446782195979456 7.77441629894128 10.2806953062226
Be 11.491456409083108 10.774428246429482 9.930960478547153
Be 8.582824674297408 9.569858499562134 11.973905693250826
