22
Energy = -57.63578331 eV
Be 10.01279113268436 6.73598671572868 10.187556380062015
Be 10.03193492002656 5.5391886283578975 8.52889712915193
Be 10.122353452493522 8.811345198997284 10.187248986164814
Be 8.313206085744849 7.744399754636565 10.711108997165347
Be 8.228001124953314 6.231111385656456 9.163920227584688
Be 10.617995958209994 7.508027809820576 8.394762001894362
Be 8.503046977989111 8.538211719337667 8.452433607069583
Be 9.941755848778014 10.801336653367533 9.615501067618268
Be 6.576067639349293 8.855186179095485 10.944146860639423
Be 8.997014992010145 6.566562705891116 7.099493913598115
Be 6.5868371736086475 7.540748789091103 9.350899289675487
Be 7.800779787207156 8.222438840698622 6.293766521662079
Be 9.926807782785618 11.49373317689363 7.691029926967962
Be 10.581092292729325 9.585733691060657 8.102168054322
Be 8.275446970054551 9.91802146445879 10.405697615647284
Be 7.047769658399417 6.635114293613626 7.490823189696409
Be 9.924316378601121 8.301397162888177 6.589827484834579
Be 6.549820551572925 9.67818457469907 9.050070053064605
Be 6.0049019120086555 8.362575236215628 7.514278965120837
Be 8.145565238280708 10.941268302109906 8.50114900104693
Be 6.98790826035677 10.051535488109987 7.009895789405699
Be 8.935438798140304 10.076759436969366 6.605271151612819
