29
Energy = -78.56349225 eV
Be 9.090703726045575 9.488444101658702 5.63413468413603
Be 10.657096821611203 9.4809566012433 7.0774873524178
Be 8.94610765239994 10.640573401545852 7.782780362464736
Be 7.233885909406454 10.553985486217476 6.477195542310634
Be 10.650403258734036 10.103095754792603 9.030179921842551
Be 6.948265386886471 8.845891730498005 5.353192998311577
Be 8.4084017910412 7.449285109578716 5.350849221606035
Be 10.093208362707308 7.592324013275426 6.51843409911423
Be 10.232094061676985 8.720324942617198 10.497273368364846
Be 7.991656471888972 8.77222132349133 7.141440155719051
Be 11.224560950839669 7.971763847325866 8.550723052625981
Be 9.3187981060973 8.59321583273746 8.651864486389723
Be 8.676125576675474 10.182902430954796 9.911898705429577
Be 6.920745767355524 10.53315799379502 8.559464322143064
Be 6.7351321341856 9.74939228553185 10.671469090398098
Be 10.344518735365314 6.143899458808341 7.948731516381061
Be 8.258904340390886 6.994797347694098 8.029186143276508
Be 5.8549473962465735 8.968372175193014 7.246704174322071
Be 8.703102327719629 5.717421933765073 6.573525811074481
Be 7.356684148993305 8.535452085829553 9.069433520274146
Be 6.648152290894328 7.057041870606088 6.500924942222158
Be 5.323887995423163 9.195389538388403 9.294725330880015
Be 8.26650258915319 8.159101169983101 10.927029168133428
Be 9.599226880243133 6.758332266908925 9.902390270763421
Be 6.07338963041484 7.8266994420542435 10.619709445833005
Be 8.770864471974765 5.111652132551411 8.726155741208386
Be 6.9232605989661335 5.449926906712048 7.952887464474262
Be 5.797932255755384 7.165478392296004 8.525697415436582
Be 7.4406121769191245 6.355111539296043 9.916369683675704
