28
Energy = -74.88773608 eV
Be 8.832384219673996 11.569629977766922 12.333243134010896
Be 10.27121390795997 10.400740318534458 9.25980582103976
Be 10.046277527074992 8.446019413025608 8.396706862147191
Be 11.324105080349787 8.556482664016945 10.244988364498901
Be 8.937281577124077 9.915380393121184 7.180635136813739
Be 14.153798611732359 12.660688425255172 15.064532045766468
Be 10.949874212011128 9.820388990008306 6.9074386486806
Be 8.185209591226718 9.34288492223353 8.952724192926542
Be 12.02093055467017 12.228016743742785 9.965232144986205
Be 11.950818024676886 11.26355174691672 8.115587986233804
Be 12.05854184302396 9.146488969295593 8.427052417116558
Be 11.660196430421314 9.919712499388622 13.420690754326234
Be 9.3136043230238 8.638215289256229 10.487932316945246
Be 8.522043593099143 9.41689845784658 12.186637821505276
Be 9.651404901850604 10.104082379284588 13.663611024491452
Be 12.68728536326427 11.632331240966398 13.962708487319052
Be 10.717236571042038 11.79152408320256 13.231969861174369
Be 12.571760231741345 10.30378923043023 10.008843144319146
Be 8.817218182809047 12.472699840386358 10.41643040166547
Be 8.223138129942557 10.558305509184837 10.55302148557718
Be 8.458393285177982 11.438494366135501 8.578981082986619
Be 10.512656102035493 8.535557574101187 12.323988855786896
Be 10.51219062242361 10.449616670099905 11.34589366534414
Be 12.38860128934649 11.393719750250384 11.858017968138112
Be 10.302405793603274 12.658771044078419 9.03299703043538
Be 10.594048563772999 12.708328305086498 11.347515972438368
Be 10.069868681386621 11.641180801115864 7.220062073556755
Be 12.510438055742148 9.229425665474782 11.755676569975954
