21
Energy = -53.22018177 eV
Be 10.786299052683376 11.382398779267946 7.18726690350487
Be 10.628182448708621 6.457473670839507 10.676808212110712
Be 11.93446966945637 9.89913502081583 10.322040523499943
Be 11.558040136254844 12.098930486086994 8.998376471200446
Be 10.346911865939713 10.387169735345163 9.014465150301438
Be 9.74220642437112 8.00581091458355 11.993532679264607
Be 10.081806074252087 13.184997153856877 9.898296522153235
Be 8.7700639267025 11.063956792515276 7.7312018080176035
Be 8.287324678153304 12.484128845248147 9.178566942340618
Be 8.172352345355062 8.31838607806175 10.502336097911952
Be 8.988795418926017 11.725832374550423 10.937252848729008
Be 10.676984182502103 8.300179335474835 9.607993944676869
Be 8.897158229390952 8.858701302375113 8.633616646240453
Be 11.082308735540858 11.616796340008557 10.965500441793555
Be 9.571592453602282 9.745729000465271 10.895873460648943
Be 11.078921508194153 9.858591105891577 12.209066916374216
Be 9.198544109116753 6.8503910477479435 9.260685497121418
Be 8.008006854323488 10.388564058945532 9.574170678987151
Be 11.693281911368468 8.098915677498129 11.414759199784053
Be 9.83622863666759 12.934197356519372 7.859559254766026
Be 8.694182594116658 6.37337617952895 11.172291056199334
