20
Energy = -52.53252515 eV
Be 9.71113933058711 9.731064961554168 8.641349856297467
Be 7.899951479170386 7.014218313176135 10.107298558589347
Be 8.976643201870782 8.981354289760395 10.497113628871714
Be 9.868095764440056 7.561788749252762 9.334809291818145
Be 6.727458896245791 6.0033152950817135 8.4653831694488
Be 9.59544814727093 9.375957280407482 6.525823699873856
Be 6.996744961561972 8.917292224936288 10.536281647450872
Be 7.939814483601337 10.451403656537064 9.487323765118523
Be 8.13985964308549 8.199435055447129 8.223193194043098
Be 10.959616970762793 8.378749334491951 7.733480980689884
Be 6.381060900438018 9.524660744754955 8.465867590830976
Be 6.016009870437649 7.661968441557045 9.280560650227917
Be 8.01383651828372 10.336977517332434 7.382401650384587
Be 10.754844956007522 6.303002407662396 7.996301874466411
Be 9.480660026554585 7.30680855982778 6.726944848716009
Be 8.73950820991528 6.026910822932119 8.407556897509819
Be 7.608361591139282 6.399401865998035 6.665515645083552
Be 7.81712957377994 8.41920145219454 6.009499110344165
Be 6.352452600995926 9.704879004008037 6.383150078266863
Be 6.128304122976133 7.740564545573129 7.181984845963765
