20
Energy = -51.80295612 eV
Be 10.36051824867233 7.689204297319035 6.114897584669328
Be 6.556835203820212 9.782323255688068 8.173400133680955
Be 9.591787303694964 7.510021092996834 10.074088264226178
Be 7.167038432637315 6.20779294755987 7.9973786397405595
Be 9.1734973756526 6.021430784041308 8.643451264101458
Be 7.6888524653031975 9.909319088630232 6.420196811449235
Be 8.525974775367722 10.737951436573157 8.065833217813315
Be 8.410193177501341 8.29060308197346 5.495955907772254
Be 8.674853077897692 6.803644201161465 6.797447667877765
Be 7.6530738657083575 8.371509731602833 10.564707880177787
Be 9.40254770167407 9.30022016081888 11.095631427991059
Be 6.7862172971661705 8.040076519088416 6.859489750311172
Be 9.952446210408574 9.524351368562527 9.18210730036942
Be 6.2053321255775 7.815598963442783 8.948981589601742
Be 9.677298949683006 9.364277271208422 7.014979406964598
Be 7.98022382752101 10.296542879057354 9.950351884179042
Be 7.660151964665182 6.44756032449954 9.96137224999656
Be 10.378375097894672 7.693846351230808 8.179342845615354
Be 8.298694736518351 8.346575366616227 8.394458584566893
Be 6.040994861791308 9.525131395225056 10.086933247686366
