25
Energy = -67.46739448 eV
Be 10.675026105655627 11.06089614164349 6.975619833204118
Be 8.80082872914468 8.02239443036292 6.767922468787682
Be 9.001662612999558 10.157739164678095 7.635605127344283
Be 10.99288598855667 10.260442296732895 8.811550406089804
Be 9.564769942063078 11.872540189368006 8.71105949964195
Be 8.887296988805444 6.162489541288854 7.980059247998515
Be 7.304100102425804 7.369432284847544 8.226983225027217
Be 10.366274424374256 6.475153981907464 9.384476009162807
Be 7.200093396218669 9.283066805245584 7.688446010855137
Be 10.74527433593845 8.957356484892989 7.1384297750135906
Be 7.516191549798888 10.96346084525754 9.013575108861618
Be 10.627142111743469 6.962916578276522 7.426074286286519
Be 11.520313802186473 8.241512319699982 9.106891389995983
Be 9.370313269612174 8.40773773488571 8.75620962477286
Be 10.181551116674836 8.019287029988682 10.82593870612157
Be 7.239888028537805 8.94959738892541 9.722810546125695
Be 8.354339098063944 7.082016445857149 10.03881778572693
Be 8.49434151056412 12.282829312753783 10.3690105492099
Be 9.222465120087895 10.02861823940707 9.96567951390173
Be 7.642835477245395 10.625981178931678 11.244499255786163
Be 11.412811238639732 9.643723559790697 10.72535849953025
Be 8.333123286227423 8.631906601072656 11.446308732781786
Be 10.486946714808068 11.606114200627554 10.659515808018119
Be 9.849068066854485 9.960140531940874 12.026051670926904
Be 9.069349461902508 11.831539190746316 12.21199939795847
