25
Energy = -66.33962542 eV
Be 11.168183230414241 8.480238355433697 7.03091963409576
Be 8.710222140511469 11.901695438583717 10.469737089348675
Be 10.582996414382476 11.522943740730055 11.63796272257724
Be 12.409106058726191 8.376702664750145 10.400979353069438
Be 8.561389485839936 11.174403088222903 12.398822295437297
Be 10.118253154739492 10.46222245554448 13.395268259608805
Be 10.385198683643042 8.002495357963376 10.522405068854386
Be 9.232986185156191 9.328341127312905 7.056946775553089
Be 10.569114555194526 11.558351285147028 9.43655472675938
Be 9.014477089474816 9.11068458347418 12.295245262258254
Be 7.518967538921329 10.124392735431284 10.932897091957884
Be 10.487516600175683 9.367195275594533 8.958640371577655
Be 11.721701615664626 7.461885997950553 8.71352598207752
Be 8.448038636815959 8.707333722828281 9.596985740641449
Be 7.213429831734638 10.11513428009684 7.462597755830762
Be 8.897120642870087 10.730712607428513 8.635123375150927
Be 11.898810977260643 10.310251538157337 10.338083120684571
Be 12.561107853271334 9.277209419431964 8.415827033550089
Be 7.673591768908658 8.155955530846196 7.7149167048262735
Be 10.947178620644019 10.536922459360918 7.425987627792697
Be 9.693179800921486 7.5521073296385985 8.285136557869395
Be 11.19352628686075 9.305082384862976 11.979421577712827
Be 6.481076661394044 9.307054270220052 9.127391373525017
Be 9.654690206334102 10.013009383865278 10.631829492422364
Be 6.998585007741737 11.258124014726077 9.277244054420269
