27
Energy = -73.41752465 eV
Be 9.47461701883778 11.297795005665044 8.894200375960889
Be 8.233589709971362 10.702688107382949 6.8253726428577215
Be 10.13979125985501 9.701873666597931 10.312969977697355
Be 11.341177343474039 9.681428507723787 8.608452440106282
Be 7.438603392739797 11.386731869042547 8.712477980269385
Be 6.4576561950579165 9.452100025153925 5.999756183187704
Be 8.353362135522783 8.904412001977054 5.6208358443615
Be 8.09175581702126 9.860992696312556 10.04126392354462
Be 9.454891052119672 9.52332625975279 8.182984483011271
Be 10.189677584386937 9.328160913233852 6.429169771623606
Be 6.003372377593362 10.65611960178655 7.508830501044619
Be 6.0685100182357825 10.015123820003453 9.385132281852195
Be 11.442808202282903 8.05488788242914 9.913281533935265
Be 7.578110981596453 8.990404851103879 8.020445834249234
Be 10.470606236150676 8.184632518816187 11.704646582587454
Be 10.86640468604326 7.786794448312539 7.875253602422739
Be 11.199020001363392 6.175236955952814 9.156476256950127
Be 9.020520674078742 7.9627458600271765 9.270766813542645
Be 5.658138895317401 8.466887133804478 7.87279551768481
Be 6.985616461224256 7.565488856202852 6.349828983143068
Be 6.81172981028769 8.126335772112615 9.865008728096194
Be 8.463100394946276 8.132947719476885 11.310836323220078
Be 8.974505009460344 7.489311458776303 7.084701984331664
Be 9.244964835407984 5.959191612280102 8.614656244144944
Be 9.93284564549484 6.49274815707673 10.714936229667533
Be 7.28258170493188 6.857516031413189 8.2816777753449
Be 7.913629457811854 6.3844694279897745 10.223835486750412
