28
Energy = -75.96682855 eV
Be 7.020085105071292 9.158315614936354 4.506466554883065
Be 5.689838779022682 7.387610551488231 4.358794595302223
Be 6.637951615196183 5.571860948308618 4.024167066861086
Be 7.948617483188994 7.160988638461654 4.595093549534723
Be 5.182705217504874 9.153936156289582 5.439359936023496
Be 8.62150352422171 8.824367633372484 6.009936557002892
Be 4.733329350413375 5.547458037730023 5.087312063468054
Be 6.871938392711293 9.983261053042664 6.3902793534075455
Be 6.693340743037883 7.900408374949667 6.188611497422198
Be 9.736601917130724 7.092612569887323 5.765283117839665
Be 6.512775190199359 5.921521417268318 5.9442597755899955
Be 8.405463061314427 5.292723919461886 5.410048213138609
Be 4.654901061977424 7.248555265089234 6.3194983497927515
Be 5.944626584152707 4.032208218272452 6.2547361511698965
Be 7.664409463060366 4.6185037596113805 7.3275913775279005
Be 4.650843885553682 5.331050989896348 7.26405992573152
Be 9.524873281609588 7.894667679292801 7.788833726874569
Be 6.41817497776613 6.568079811608369 7.839469284510358
Be 7.586732766162573 8.684235536344119 7.971794142117154
Be 5.96097794873061 4.136956998047816 8.397318220500342
Be 5.443867265242507 8.814704495483985 7.610864762646706
Be 8.168581289382104 6.729784053217667 6.877879696782684
Be 7.672882318250911 4.97342820165635 9.363338380838686
Be 4.490203539073926 7.114650998966302 8.455967753462728
Be 9.291249848765833 5.675838042784936 8.147170886783613
Be 5.781452760511808 5.806574906187649 9.635259911381526
Be 6.174345618321342 7.940999414710837 9.404844892799593
Be 8.111674280790465 7.028643981997202 9.215707524971188
