24
Energy = -62.43342873 eV
Be 12.412510268198355 6.485216074125123 11.064131442869583
Be 9.282013816717283 13.563839237336646 11.500184457435875
Be 8.973077839307326 8.382378972304672 8.42079729508488
Be 8.060763808033093 9.775415091305616 10.011776107445309
Be 11.931449106311547 11.210987524847862 10.472353522325687
Be 8.676952315363389 13.698056333841366 9.510401165010276
Be 10.45145043569401 12.721598537183409 10.058114430477879
Be 11.696632236001973 9.233669311290097 9.685356455954246
Be 10.045194555115302 10.622184906091869 9.930211345401927
Be 10.72187244001664 6.788149385655941 9.86708865409387
Be 10.986343656738216 7.916450835834925 8.219582677582377
Be 9.315219300216507 12.029123201401307 8.467891312711886
Be 9.610861360208112 9.793690193940218 11.849741278201014
Be 10.991751590761693 7.904563932562187 11.700859715938073
Be 13.008591270080762 8.432070169080331 11.087129613406335
Be 11.657668720905955 9.812857897118795 11.916789566322421
Be 7.316783572191433 13.2383590720245 10.861512009860755
Be 12.69371291093751 7.38432058901836 9.30651285604334
Be 8.570401477453528 11.530799973129854 11.133925155954694
Be 10.367676392968187 9.924505056085046 8.042794053059467
Be 10.518873329716182 11.74272470507724 11.885059329259958
Be 7.4603231251537085 11.742221816346225 9.382835476312154
Be 9.691559116684774 8.494501520348923 10.275946046030464
Be 8.291009949919317 10.305008258743994 8.081698627912765
