24
Energy = -63.10447228 eV
Be 8.358226073668622 9.112686342078895 7.756267848687934
Be 12.267451538298396 12.734439435240215 11.37394652114271
Be 9.343184598243239 10.164767732297289 6.465674079372912
Be 10.298628256143418 10.953373444513439 8.197286728777001
Be 10.673129517793999 9.00410844564492 7.5729309736178125
Be 12.892111390370129 11.036286355032173 10.467099157481593
Be 10.759330465456461 9.054674224291938 12.53902231149744
Be 10.523983847451321 10.348759762853255 10.4602201264004
Be 8.927974506086953 9.028742813913853 11.38917195198374
Be 10.63840678051142 7.877639297259071 10.921411892919966
Be 9.1810177253387 12.015489247502611 9.588177554225535
Be 11.415085003323092 12.137508551964505 9.548345887049287
Be 12.107101486930171 10.053620584306733 8.844862576853563
Be 8.212225895165641 10.144436218684818 9.70121549571481
Be 10.783464535738094 10.425584097883618 14.09772641169953
Be 8.188686583058477 11.15897269443296 7.887632869518008
Be 12.290858700236846 9.122168962273095 10.955281837450501
Be 10.284210717232883 12.46948069776034 11.244031551829275
Be 11.684885199696184 8.09736962387937 9.199864639943534
Be 8.639490594007997 11.18543508117249 11.496655946799846
Be 11.707441264442464 10.92258045326583 12.220339547157602
Be 9.572622624036697 8.575675421085599 9.340411141965001
Be 9.004362992446751 10.065769505787552 13.235457087331561
Be 9.875323550061736 11.939634852615272 13.126169706320864
