27
Energy = -73.74268967 eV
Be 9.420563648874964 5.986724303650184 8.22020599813424
Be 8.3116068712547 7.044484961890115 6.728605251183231
Be 6.882658811223903 8.324201129852327 7.775667739130686
Be 7.665107794247556 6.801657327724684 8.85096032831713
Be 7.564937428933997 10.320875263390292 7.805799720799831
Be 8.051967368184654 9.11861867344774 6.19117667092007
Be 10.347794819743642 10.012212278743576 6.517562024589534
Be 10.468011024577603 6.583392021995445 6.645075022794816
Be 8.702874935885967 11.094565201218648 6.341372313024322
Be 9.782519770881233 8.21401403361946 5.620794515273526
Be 6.042004886604863 9.822971512138606 9.006275851029534
Be 6.149129930634639 8.013007870629112 10.01488947177181
Be 11.515547430879263 8.348337581027188 6.811361155123822
Be 9.297821151738622 8.546180622469969 8.036768903325083
Be 11.166781227634841 7.251571069983197 8.545615350451612
Be 6.325744717245451 10.146383575318156 10.93675438771991
Be 9.532582379382013 7.0614752033545765 9.939954095736685
Be 8.035299522194405 8.937781279739026 9.674113626218501
Be 7.146166254487739 8.547997382584514 11.913865644525105
Be 11.205949509555635 9.655286588312672 8.450434796286046
Be 9.79228515434331 10.265241381897047 10.177104752997295
Be 9.517082579044288 10.966328705235878 8.270873827402811
Be 7.821939310297108 11.147256222370475 9.688268048601186
Be 10.88153709159886 8.569424974192675 10.152345086108127
Be 8.23144144024783 10.322233507266528 11.576893758856063
Be 9.23329813195697 8.47373090404712 11.475047165239735
Be 7.737682310204604 6.936182972512147 10.896692231114852
