24
Energy = -64.06495812 eV
Be 12.702234014911056 9.8697506241746 9.714913653595037
Be 11.988835532338305 9.73142962551035 11.638977826736296
Be 11.130343844888001 11.375828258867983 10.40120348243793
Be 11.41892827711805 10.605334920455313 8.233761315637974
Be 11.817121269897736 8.391722833770581 8.523730249140932
Be 10.658766568704213 8.134713146510702 11.830640912129093
Be 12.240319932025107 8.00772542145411 10.549001473950838
Be 9.910537379715175 10.112936278302442 11.738749117768652
Be 9.7871286955625 11.80633464344762 8.873464252771203
Be 10.606283034403221 9.424737348138132 9.870743608702442
Be 9.013123048083031 11.69199909061163 10.77264187657835
Be 9.516019908432082 10.487606580261989 7.342801634802002
Be 9.711202659137518 8.424847358298965 8.072584123513334
Be 8.681869541529682 9.918194496645512 9.534209412472785
Be 10.172643520238317 7.385602636670012 9.826535572029162
Be 11.042344913399605 9.224180358511356 6.795284512029016
Be 7.703108369473755 11.137445884330848 8.17373468172728
Be 7.884232582690346 10.14850756687391 11.792903053808498
Be 8.762048870506394 8.3380955787907 11.074795346786418
Be 6.859909603443982 10.92918008821241 10.17716373625267
Be 7.9333722161327955 9.194031764273094 7.335905108502624
Be 7.9325282201032055 7.919015228724718 9.119511730573162
Be 6.756062804780091 8.916499129265835 10.617642324403025
Be 6.4744883454038 9.527734290814063 8.692554146568975
