29
Energy = -79.14486277 eV
Be 10.999098088540393 13.655012991938252 11.437290675214264
Be 10.685797271410495 13.106418457451491 9.293765845557447
Be 12.208482472040373 12.176668329908908 10.614867337653209
Be 9.69550748376556 12.802662510784383 12.812253051850423
Be 11.530768462633057 12.066596963473854 12.637586353913754
Be 9.308311719616581 12.759013291256279 10.832298131757158
Be 12.226975086408729 11.942367706806268 8.541471783988133
Be 8.794864103342777 12.312618059944613 8.915693543419849
Be 10.536538875578813 10.839785749622916 9.740262924155461
Be 11.92826947237586 10.35231522571425 11.606939311710754
Be 9.837962328922735 10.815221671342758 11.883257732611758
Be 10.279305321115586 11.520326999436623 7.723419585635317
Be 12.802488765550454 10.272073019543502 9.66665082065643
Be 11.9381843433819 10.156655531461098 7.721741134357332
Be 8.470466307782024 10.371343756828702 8.448164443161785
Be 12.252499552755758 8.513514557680672 10.890776708728316
Be 10.087199746212054 9.325860175865374 7.845555452214384
Be 11.749133225638662 8.498634239377445 8.94194951734588
Be 9.49444003462718 9.032764652989531 10.077393871488452
Be 8.278886610391664 11.018945810104686 10.467616664117292
Be 7.133077297104045 9.475218559247672 9.816773038741397
Be 10.49514100235812 8.781382584476106 12.027263712928548
Be 8.189416731299225 8.198555115953098 8.588553986220054
Be 10.771278405202269 7.1579265802472065 10.455566319753332
Be 10.142224047317873 7.366488249432928 8.441469281386347
Be 8.193315637847263 9.22009798078425 11.760674683758209
Be 9.02854141001725 7.329347843553535 11.689333940217992
Be 7.344151860012411 7.644225522164033 10.569263815682886
Be 8.875270653530007 6.5655541793888235 9.829742648553102
