26
Energy = -68.53018055 eV
Be 7.332676983149636 7.335289401167036 11.820772639337912
Be 10.091204137844638 10.605304055748645 8.837758092275449
Be 8.642539274767639 9.042940503333073 11.914572816898122
Be 11.093026994334238 12.375115257668098 6.814253512336473
Be 9.449732394150583 11.005999479722679 6.838216942454519
Be 11.467979062660003 8.735931618266164 8.728282655579484
Be 7.821449446327759 8.331930793704055 9.964257123070517
Be 9.513568074649646 7.714993668296592 8.746024165724023
Be 9.856876773983604 9.199501724659278 10.273223529067295
Be 11.941426914662312 9.193662668258325 10.831507367960288
Be 11.091693945797594 7.326774135658674 10.195612189054156
Be 9.165907564048258 7.087502691667949 10.81973536683828
Be 8.32444137420363 9.437495472357796 8.275494185139044
Be 10.525230839361816 7.879090187161341 12.088362265072973
Be 10.071254201021565 9.011753929531476 7.231167238173817
Be 8.061571919720183 11.5033497260492 8.366093288274806
Be 9.19842984165657 11.081846502957463 11.662074401976044
Be 9.511782170775698 12.850174313478663 7.926744728804081
Be 11.559557851243792 10.44796078404375 7.318306124176253
Be 12.307193325677687 10.520204931183821 9.276381577427738
Be 6.004107369890347 6.608370131163421 13.30571953261129
Be 9.343294200107751 12.253479130981788 9.979543601126274
Be 10.65513197445076 9.868809907089888 12.361329601859977
Be 7.999939468501317 10.417401382844083 10.144256692950766
Be 11.284994845362666 12.357847646202849 8.875536581235796
Be 11.086511470433742 11.208792375586913 10.806296199358195
