26
Energy = -70.69362163 eV
Be 10.124030993755106 11.38208497539223 7.993723745109596
Be 8.703894901583581 7.139402591080967 7.962121522141624
Be 8.848917185788224 8.656886142275654 12.753486761308098
Be 10.881813415381128 10.844750510152906 6.217327097500131
Be 8.23842831528995 8.416343060387481 6.290811341428977
Be 10.80655145900704 7.671370949323109 7.801588581152844
Be 8.948517801134226 10.785783300398682 9.81619120897883
Be 10.942412669556589 8.449509697794143 9.721012063323913
Be 8.119487452527116 11.395146512498783 8.032628825254763
Be 7.0625347849677675 9.880207470592554 7.197915353525983
Be 7.099577866432866 10.022389012697058 9.275953419227125
Be 11.47605279169235 9.618333298926341 7.806503185510103
Be 8.883599946731461 10.507387040886467 6.23149973117896
Be 6.527111687718636 8.29861969473395 10.373152438398744
Be 8.668646434104096 8.525211832256652 9.825759871184498
Be 10.312495828993184 8.892983647618266 6.0833244511561535
Be 9.748634878220184 6.934146116355393 6.229132217394789
Be 11.00633998376436 10.476647333887502 9.620564733248926
Be 9.244196262698608 9.344134917087082 8.071001125551419
Be 9.585401817561888 7.338460766864058 11.318574837791356
Be 7.564316441093338 7.4625093160683305 11.82633666728981
Be 9.96767892756832 9.549240868847729 11.233715436088424
Be 7.758827935557339 9.698709751368147 11.350039480844377
Be 7.038707075797981 8.148355995906519 8.3334221516382
Be 9.955320064616464 6.6285498850189155 9.384227380595659
Be 7.833580356169158 6.655001041537098 9.961503556287788
