25
Energy = -66.46308326 eV
Be 10.93564757484214 9.727905855782458 12.579746841644159
Be 12.1894378076454 9.441672459025432 10.924635451763848
Be 10.620967444810953 7.8342944663305065 11.502107334836424
Be 9.012669195341356 9.01609854148275 12.415082917674527
Be 9.435004349038474 11.01343611861226 12.13247353941253
Be 11.373117524091482 11.358709516406732 11.266488474169195
Be 11.886385572760073 7.877521264992384 9.701500174449146
Be 8.514313671305612 7.872792050829446 10.822636304238852
Be 13.050477074930576 11.240584864585038 10.07262949069989
Be 10.002824696561634 9.472235871585884 10.382173881846747
Be 9.969158844313275 7.178771232436387 9.572442296958055
Be 8.030427978172149 10.122644988700925 10.730282966338264
Be 11.106153956723771 10.580250647546103 9.178252789011541
Be 12.40036164333961 11.825266937769062 8.210490950027618
Be 9.58448028371819 11.672963915950731 10.192345767315024
Be 11.566668086285356 12.757783225520393 9.760001684155466
Be 12.779263426982807 9.576166552393191 8.828147434765397
Be 10.662965764135853 8.731334209205219 8.295712937052361
Be 6.1346023479458776 10.527704964493207 9.728935033946696
Be 8.542564387760768 8.392550170205947 8.726972067099387
Be 6.812724755313407 8.555266302230326 9.830861742865478
Be 7.8181481316643895 11.698838043821073 9.112819329233178
Be 10.187322548470004 12.257613427512743 8.311096721777718
Be 9.18364166493313 10.326403069798681 8.45969359515981
Be 7.148651391060357 9.889171424929048 8.210450395705054
