25
Energy = -66.97110914 eV
Be 9.496494479400175 12.14171188583869 8.250286015587884
Be 10.394904573331115 12.100851724063126 10.159772389554748
Be 9.839340716269698 8.745551002383484 12.187428449487586
Be 11.945702357463091 10.699501351070767 10.25117774776403
Be 9.937317794100302 6.528726661493401 8.789628341921896
Be 8.227964283596595 7.672781495727365 9.264390767307095
Be 8.090955913492245 8.124973975314528 11.261895149418548
Be 12.115544184026797 9.065203471586337 8.9480513572867
Be 11.514052490114041 8.836589951348765 11.005459020943999
Be 7.172886205163364 11.436450048402786 10.743583109920644
Be 7.6761459119340705 9.187551129239079 7.988827666561688
Be 7.698969703963251 11.144816122615211 8.730329051200568
Be 11.426258950421063 7.432652727307502 7.743898370127982
Be 9.406309188816348 8.104381652048705 7.51077911575757
Be 9.272222102560844 10.299389298278765 7.4365580076202376
Be 8.951813467369723 12.065745310662752 11.687349412012649
Be 11.056915702722181 9.378891590473447 7.14054101505934
Be 11.128629892819504 10.95514689217951 8.41934837673209
Be 8.398206077682945 12.809898753220208 9.87594328733458
Be 9.905179304726346 7.315201434409135 10.69874393097832
Be 8.325766895663255 10.100750129292326 11.819000209240626
Be 7.211634617150916 9.467144824157774 9.980281436327187
Be 9.621635500288425 9.63358525970979 9.68803704464286
Be 11.72469961577406 7.161940834292337 9.735665342875217
Be 10.503521887555316 10.633634291289063 11.726097200741071
