20
Energy = -50.02485406 eV
Be 11.13553212656999 12.147374863624858 14.086795161764327
Be 10.339308588978845 11.164536392974073 12.388197490584528
Be 9.870481520467564 9.135238713298087 12.170682072876037
Be 11.454812335271704 10.00049284110613 11.032885764298609
Be 10.78340057041945 8.00736836109134 10.774798613473592
Be 10.125986671281183 11.697333592008912 10.373123252999433
Be 8.583060293824184 10.482225019780746 11.342704638048046
Be 8.576436494171816 8.280254473987636 10.703532214931315
Be 11.662103015147775 10.959772064716006 9.205968792944278
Be 11.83480696633297 8.8676200518436 9.222522748788773
Be 9.747283710643938 9.698544096179626 9.568341629578685
Be 7.189823572190512 9.76137114475618 9.940419311577626
Be 11.295414785297108 10.047413141655095 7.459644013515395
Be 9.83307922268662 7.593232089584545 8.996075296477615
Be 8.194308661989142 11.57401873147242 9.611697990008494
Be 7.9376088406061305 8.37631783092446 8.674022213640212
Be 9.745078861570674 11.332004420069008 8.167973390707116
Be 9.417602094788085 9.176121545905106 7.424874278338839
Be 7.7954035016846905 10.372060643401788 8.040234277571155
Be 11.156054983612263 8.00428679915462 7.493093665410577
