22
Energy = -58.9309863 eV
Be 8.83507917127606 6.312427751200126 8.83649904248855
Be 9.619917327687215 7.130897590041085 7.181729258996837
Be 9.512736875441856 6.900496770573549 10.678332603439927
Be 7.765468163217885 7.784629658501973 7.837248511721281
Be 10.687428588921346 7.503353134934937 9.073266400313349
Be 11.095644057434654 8.540383685888614 7.3160335650005255
Be 7.70920350031864 7.595005211289316 10.067311205894788
Be 9.225959950473333 9.16694109726863 6.839956936270743
Be 6.506863397118053 8.978945195489734 9.058976276451265
Be 8.576212294873711 8.293565612956847 11.849635582671251
Be 9.110475182522896 9.191559866148895 9.148863417137203
Be 10.527186076747682 8.70480047281005 10.909747841018069
Be 10.760793933816625 10.553140925426826 7.203502577930528
Be 11.387750934782133 9.592988912521282 9.088124663046974
Be 7.506726267158157 9.711661765449504 10.779721784420708
Be 7.304673435605579 9.800220840933186 7.369469357516665
Be 8.879952509675187 11.13162680244033 7.86020687964362
Be 9.206827203892137 10.196674563600903 11.862890113354
Be 10.611479553788495 11.647477814948552 8.875795213010212
Be 7.15156054385088 10.916708114795583 9.071934783092336
Be 10.793414691191561 10.758755385402445 10.706295259801799
Be 8.934916682459274 11.29800916963152 10.094729069033127
