22
Energy = -55.66659059 eV
Be 12.001540959608318 10.353111794859016 8.653630807674807
Be 6.991416644118048 7.159356900886285 10.11175420300576
Be 8.025219612509717 7.734191566072299 8.304633604508195
Be 6.99365422843822 9.108478294547416 9.554116981940856
Be 8.395642833734716 6.659212298461531 11.490609889144956
Be 10.320854681042242 13.342324069042771 9.535475481095492
Be 8.490947870204009 12.324249963747265 9.178162308253796
Be 11.599756063159822 12.3888019521726 8.325333169660453
Be 8.19592131592507 10.23843705882614 8.237856517423522
Be 9.642284490617193 12.071946423164354 10.913118604744149
Be 10.093050111601576 7.183223264691216 8.576341678360876
Be 8.197291823563427 10.666628505765836 10.278709023524486
Be 12.384592023026862 9.887081137175624 10.611553416935115
Be 10.102234421975556 7.622680335481379 10.732155700908246
Be 11.438121980032737 8.536746097004606 9.387262590984697
Be 11.615975460032491 11.806054655626717 10.29322708189616
Be 10.338800338870948 9.207732154536714 7.78165973544113
Be 10.295842530270466 10.032412568039339 10.734341090038484
Be 10.03703783863613 11.020167299813028 8.722081381907708
Be 8.68530770751732 6.139783339208251 9.578018124992193
Be 8.282418352148891 8.712521530728404 11.19789680367831
Be 9.212883820731392 8.958229983947993 9.398938675532237
