23
Energy = -61.45539289 eV
Be 10.491624358616217 7.188880644385797 8.9561858074707
Be 11.233909252916828 8.670190623853328 7.789434743699841
Be 11.706423967607293 8.468344291993338 9.95360872834365
Be 8.398758837250162 7.246686358941649 9.417093275418091
Be 9.214088172745466 7.849237137210399 7.474597907080045
Be 11.712332637831059 10.241295719589328 8.975012697018787
Be 9.9658796029033 7.5242927503963335 10.924461174147808
Be 10.068511168996839 9.156931267486547 6.185201295962886
Be 10.358323315284858 10.680303747698353 7.4887103395843875
Be 11.329629291749022 8.608741475370344 11.957692966821464
Be 11.108461310905398 10.347337609580688 10.944369377936036
Be 9.448569901499628 9.389250655360287 9.392261894757187
Be 8.386331711292693 9.833382997612317 7.067208954423654
Be 7.3309737469244896 8.317348701589262 7.975742843632176
Be 10.183726291431974 11.65994566212189 9.448251008086176
Be 8.676079081707188 11.643944163859393 8.003582358122257
Be 8.061731596809448 7.996848925204185 11.339323431107076
Be 9.457364173399553 9.363301640280568 11.992693237006785
Be 9.407542704771833 11.322297637224942 11.35948561388711
Be 7.267886794450813 10.272152757870003 8.821801320473481
Be 8.029415689222411 11.837276181845914 9.938628290811646
Be 7.730295866637521 10.068802363497767 10.970636965245147
Be 6.7212548285857086 8.602320990566938 9.913130072503582
