20
Energy = -52.47200981 eV
Be 9.086759246108516 8.944893653467 6.201228131390569
Be 7.221495169315678 8.908369819678805 7.012496397810546
Be 8.609967795142275 7.248386398469126 7.297420700410282
Be 8.188605930123284 10.697461530055815 6.832524017924255
Be 8.939160799492113 11.437348616686878 8.570105144200838
Be 10.183450174890009 10.05193913338392 7.5939187662724725
Be 7.167387284555727 10.281224220626317 8.568360214160089
Be 10.684429841203459 8.048275207965252 7.192801148931933
Be 6.882296573522582 7.874443870148455 8.764269618619215
Be 11.11627540448808 8.632305060217373 9.13168064806513
Be 10.315519694700978 6.716347433109645 8.594892222782557
Be 8.613236666995185 10.578858666064692 10.40122589907491
Be 10.637085179029025 10.688715455758178 9.51884905063019
Be 8.844734204142702 8.87837249500113 8.885315984628297
Be 9.602886519014339 7.469586567206054 10.39613781508118
Be 6.87376490270494 9.24253725649994 10.326470299727662
Be 7.375337733840463 7.2922779280515 10.670827439854845
Be 8.326813672844178 6.374629869487266 9.134853078648183
Be 10.398244746121877 9.346183721578736 10.939022926275214
Be 8.470297398938778 8.825592033717506 11.50534943268523
