24
Energy = -62.856211 eV
Be 12.596233644545782 12.224038931516652 7.779753404698849
Be 10.862637220780368 8.306405612090597 11.380748798499594
Be 10.069994051373893 10.066913682352613 12.33223633620971
Be 12.32644182620198 10.345234356013332 8.684841489947795
Be 7.945255096456872 7.792189885365972 9.499518103862187
Be 10.81993370198599 11.512529784393006 7.04369092877337
Be 8.231966831261643 11.054796968554848 11.5975806158872
Be 8.63360685133204 7.709970851143723 11.536084275828966
Be 9.80408899188394 8.188382867155797 13.135257360524818
Be 8.756297106044233 11.640162717782282 9.549587731368126
Be 6.858048217364164 11.074088788474931 10.037927503783454
Be 11.498177415806524 10.230165042443163 10.661222857542962
Be 12.551549032867491 10.720904682999699 6.519336818868635
Be 8.117433549146687 9.324432725043366 12.693501652547173
Be 10.98079442013348 11.864991007399075 9.256098766371187
Be 9.855185008458777 7.184378011788652 9.957052697745539
Be 11.21670772079607 8.642070562429979 9.29861264379844
Be 10.092655309676228 11.744402602304033 11.089227933674433
Be 11.128496941323137 9.335178305171386 7.227687520011239
Be 7.181147240844349 9.224618901187451 10.839110680083538
Be 9.340016338239113 9.491253549735173 10.388467439791697
Be 9.872843019829666 10.280880323503016 8.49244369272842
Be 7.834296640416197 9.75870047066958 8.779698102941238
Be 9.430930010360914 8.288045557611072 8.225048831641525
