28
Energy = -77.22168136 eV
Be 12.390022433500697 8.480578224448742 7.940739745030064
Be 11.628941316844394 10.288646236536943 7.277609905139254
Be 9.50195023042146 11.747356028939922 10.929821712683859
Be 7.465677780655645 9.956310718023131 8.52444629390252
Be 6.333317894638927 9.502876060409477 10.188863856784918
Be 8.538554652638522 10.723512836525515 12.455129440709777
Be 12.210748354158104 9.535184428263985 11.165713831658637
Be 12.81184566290695 10.106221401861717 9.276686873690855
Be 7.149011963478389 7.794846928013229 11.21764960002756
Be 12.466700936694071 8.029091441117119 9.866802452501902
Be 8.728427735297199 9.545120825065924 10.337068014700982
Be 10.722111311480253 7.432313738147232 8.985540017595131
Be 7.126971725587211 7.928766890601877 9.198322802691845
Be 9.280429392131532 10.190694948786078 7.373999097444505
Be 8.882625656116293 7.261381109616933 10.23383286322815
Be 12.049188439390878 11.930188468592972 8.587854516528024
Be 8.822101865273417 8.549395736230114 12.228624113065848
Be 7.415683290348692 11.225545650180214 10.670631085628123
Be 10.555445645864312 9.90041932144052 9.336850918523579
Be 10.40191630537946 12.742827338295557 9.399218391239785
Be 10.339049676916261 11.934426373307083 7.5127629799382065
Be 11.63362340464143 11.488085892895297 10.63991571870858
Be 10.354547310775306 10.083036822005987 11.757765343907492
Be 8.976202136760783 8.432626331443995 8.425231920103045
Be 6.946655769811066 9.623979920573648 12.119887790634039
Be 10.58811517339079 8.55667807061558 7.099267113194464
Be 8.781675303630808 11.49121247995036 8.968730715290185
Be 10.576743742330017 8.196960889173441 10.959317996511103
