29
Energy = -76.9255031 eV
Be 9.438231138640049 9.768560114595088 6.8052573476833516
Be 9.719931791505235 7.626914325217024 6.564595892743895
Be 7.820765358029409 8.464663072398878 6.418410020704975
Be 7.430320858282504 10.447994750963982 6.810034337240186
Be 11.06587659913722 8.836926891076176 7.691565749012517
Be 8.699289343062865 11.272421587789118 8.188971343130753
Be 6.122159396511899 7.397975046647414 6.440255306664656
Be 9.81972612133277 5.552548349795487 7.144246218766826
Be 7.9571080225242135 6.403807707614666 6.727381951033781
Be 6.1239394079908 9.14493033561579 7.6679335294064765
Be 11.412458186079782 6.77608316093788 7.591076385692168
Be 6.598355563702643 10.912810553478488 8.689355267177703
Be 8.582417467708908 8.730801588717538 8.711605524784733
Be 10.731527486761385 11.02062029832988 7.822688289421439
Be 6.84093288905395 7.318994171762302 8.338505825263288
Be 7.8501400707683 12.246624966863488 9.780878371332411
Be 8.457284700300532 5.91600359507166 8.748972081939053
Be 6.377209769002653 8.959320364943261 9.727617367428941
Be 10.658468401503397 5.56540091627129 8.985738282118074
Be 9.98671526843569 11.922990194482878 9.59839444528614
Be 10.998383656330954 7.676874447798221 9.482959280219484
Be 10.521494052061357 9.841835498469521 9.443468642166556
Be 8.79410193552073 10.531296265391132 10.552724175923004
Be 7.651848341092825 7.2793124989472 10.266643692231579
Be 6.694258795396159 10.824609039311419 10.72790025995734
Be 9.590364881441081 8.576294838621136 10.850688811917653
Be 9.583576574596803 6.462766131993667 10.452188349970712
Be 7.591372731769158 9.067269642209116 11.417854158066964
Be 8.57829513789352 7.332589846294446 12.06888108640662
