25
Energy = -67.74922069 eV
Be 11.251262640590783 7.9337305403926095 8.0596041329757
Be 7.534143435668261 8.985644879103114 7.842369431165563
Be 8.852500291543414 10.422283293151315 6.824294505160532
Be 9.363582257841669 8.262970622265826 7.133158106624212
Be 7.22557766180057 11.061335283166487 8.121076845648275
Be 10.771108023686741 9.726109303827318 7.269313933406253
Be 7.965732731449166 6.915087061315138 8.001216564755156
Be 8.751489681840694 12.303558028172102 7.754280332162226
Be 9.713532200410766 12.98216344437278 9.41718232444356
Be 10.609343250547097 11.527694412692654 8.282373670657618
Be 9.912336560675037 6.424354495742355 8.470975060540889
Be 9.207718917539967 8.223590748462986 9.3652117648406
Be 9.11428039691313 10.180467778569733 8.92776245211463
Be 11.228691311357885 9.620009863548905 9.322473930676752
Be 10.239217613949116 5.6696559511049225 10.339844544702613
Be 8.101010729078387 11.825426233478623 9.861524017945687
Be 6.818155413172582 7.83987111482097 9.438088388335265
Be 7.142966495457853 9.838957263516196 9.828235587107232
Be 11.171290588117913 7.518732574437211 10.071058648616365
Be 10.242776849341853 11.19783351110591 10.45231360790174
Be 8.293183547261998 6.376144396180501 10.057818754952876
Be 7.929027637313509 8.333252734317163 11.133244022038244
Be 8.560901374968388 10.303134412263503 11.2826387589964
Be 10.23089248244894 9.154255733295814 11.110204940019434
Be 9.60026070293459 7.204719116605848 11.464718470121548
