25
Energy = -67.91894378 eV
Be 9.850970683592362 8.559971107160225 9.363498004747852
Be 10.522973164688121 8.16261739941396 7.360711178082951
Be 8.074211876991756 8.517827188849624 10.706977546407124
Be 8.60795895020172 10.863903779710903 6.224714822690475
Be 8.688145658737588 7.178391496864577 7.882836627415508
Be 5.614370431314363 9.013018926771549 8.263664602301546
Be 9.911439501534758 7.84783523840374 11.517715588830042
Be 8.074049699433182 9.252213232312036 8.578476455453915
Be 8.886642766029302 6.716256338647056 9.950344564572026
Be 6.909456103201377 7.971838268820554 7.116795350703258
Be 7.9666964248331285 10.66138790376157 10.256456412585834
Be 8.700410495267976 8.784700809251449 6.478795885262362
Be 9.908489425225081 10.128156445096131 7.600105774005961
Be 12.066670716039914 7.737067513055316 8.99619570668683
Be 9.892367745062044 10.813528082646416 9.51243453660737
Be 11.180591561708574 6.704888577819893 10.48349409561793
Be 6.999064103878843 7.452295694678548 9.18723705831644
Be 11.575467311558624 9.680457508282256 8.773143579291625
Be 6.354795875159617 10.852768327502357 8.776253965777915
Be 6.876175490062538 10.084194487489427 6.894812551212142
Be 10.537276270548613 6.423634472754572 8.578629613903837
Be 9.589102579600478 9.86225165192311 11.30055512354689
Be 11.527331110599809 8.907716471974467 10.726540553582268
Be 8.274407696182928 11.391322017416933 8.199290503253808
Be 6.292260096194834 9.313082797040861 10.151645636792331
