25
Energy = -68.40947135 eV
Be 12.067348604746263 7.736821118029283 7.9239161187703715
Be 12.299846534013806 9.993324068623147 8.133934735640524
Be 12.070198069889942 10.494334411877208 10.200424284077075
Be 12.43108949201538 8.558205857978864 9.712831550386893
Be 11.071228006505129 8.893752443458933 6.618620915597586
Be 10.871488331900036 9.01357109613529 11.113688830796228
Be 10.509439443595095 10.725750576387398 7.234730210327362
Be 10.698218677616396 11.550239481385534 9.11980118583501
Be 10.386791012981517 9.377190852281291 8.970295840998459
Be 10.102384788340233 7.4125938005201455 7.5994566386343925
Be 10.335747270172044 11.059480942508433 11.171209002045284
Be 9.323316871861838 9.680822475171894 12.329513320854074
Be 10.658085085528839 7.382445077566939 9.701332836478052
Be 9.00719264085449 12.194643770929439 10.119315690613798
Be 9.108345071335137 7.886748818319461 11.075747442674153
Be 7.954730233328928 11.186338303848778 11.684487360890017
Be 8.787748742527494 9.836100263967914 10.197870181361942
Be 8.919727457217249 9.211882173215384 7.388588446714469
Be 7.417368516038004 9.058700797911058 12.12909308416231
Be 8.786956679292478 11.07148263141746 8.343605030704342
Be 8.639225134042329 7.861550069676392 9.00322565825453
Be 7.173464769751231 11.43142305001669 9.707789946930117
Be 7.084856275371127 8.144262469562145 10.355452286585333
Be 6.288417306527413 9.956797698993887 10.732363393320465
Be 7.280135300977575 9.554888066647552 8.706056323777599
