26
Energy = -71.02671816 eV
Be 7.857283151581407 9.510427631609573 12.544925857229122
Be 9.156823393459575 8.182599374368728 11.668619601690397
Be 9.31047023379782 10.339338305178389 11.306923015494826
Be 6.860156215293312 8.290919275347289 11.247318500963093
Be 7.1583091075359855 10.420728354014976 10.876321596511737
Be 10.729102570385013 9.04535697390993 10.382428458058078
Be 11.712096523681105 7.821472117889938 8.94314805412462
Be 9.946538943201611 7.196578714701314 9.86575813444347
Be 8.062604245331842 6.777569466494295 10.565233022627908
Be 10.285837007227553 10.86637533827314 9.433383215673373
Be 8.435339538879823 8.923362673107285 9.795590673623616
Be 8.488202652183269 11.688508852282956 9.964592425948537
Be 6.23658971598041 9.332106668298442 9.457530301639917
Be 7.57597291681132 10.583725085569576 8.49685999937604
Be 9.735919288951735 8.982336098555017 8.275396910012107
Be 8.555391839915178 7.009593957383913 8.35292786371253
Be 10.487492619195192 6.876244533066458 7.675084703156475
Be 7.46174888670703 8.644910325441964 7.694138049236235
Be 11.826221835200283 9.795583354695426 8.55849361093548
Be 9.201818342598449 11.665035704484914 7.888332944601962
Be 10.736329609260881 10.583005110174724 7.064732568101948
Be 11.409257699858525 8.517884182321527 6.864836113392527
Be 6.699027954613461 7.3842538348349205 9.233216268364922
Be 8.634447497856536 10.09175202419446 6.660307285043277
Be 9.1710046420459 7.97464504538901 6.472746289594736
Be 10.220726267409274 9.435391114334642 5.480304322634927
