21
Energy = -54.83229315 eV
Be 8.33912435222631 7.396086512448584 10.510387646955953
Be 7.377408164914421 9.364675048472483 11.122312551914174
Be 9.28418663571722 9.12907397232484 11.557543526660801
Be 9.795601081018514 6.897169100844251 8.926650415232844
Be 7.809638738442943 10.261798263602538 7.344984994464602
Be 7.989541223731326 11.837845902274625 8.672129158848797
Be 6.852170064570965 10.180703033372131 9.30401697487546
Be 10.39876464106157 7.717894849679396 10.732704076875017
Be 8.829559471118554 8.895495575903402 8.896324412142954
Be 6.344788435884761 8.81967084762268 7.843171020309953
Be 8.726431166391693 10.749340235137876 10.266158905077859
Be 7.698669430079368 8.282359320172958 6.515776579977357
Be 7.663140351520798 7.039765648954245 8.360639957758034
Be 11.6830825102749 8.049070435923344 9.215352469613343
Be 11.310428296628894 9.61010231299009 7.995301498017396
Be 10.609867741389301 9.75584222727693 10.020970833730043
Be 11.08633440275073 7.725781726758275 7.309224830802994
Be 9.708269853859742 10.86413855749771 8.29236553563531
Be 9.209488074841191 7.07929071535699 6.94371004200209
Be 9.591006952776066 9.207876593121917 6.778238287993457
Be 6.560228732039215 8.144309233769123 9.7352279989425
