26
Energy = -70.68943421 eV
Be 8.705130323240303 7.06199526155714 9.95875303922354
Be 6.698772260739223 7.671206419345709 9.908404128064555
Be 7.9635121286567285 9.08253298458608 8.883899146353643
Be 9.185788787197527 5.4390757548429205 8.370021151615987
Be 10.601145039462828 8.542632045206588 7.642854147269999
Be 10.005402318535001 8.701016079657217 9.737051670986858
Be 10.410434192582981 6.484922823770214 6.866008782420392
Be 10.045993647718877 10.32786391870793 8.417046816368465
Be 6.226737453787335 9.585412545512701 10.574933052871781
Be 8.796933368373855 9.692849675106022 6.913997196315996
Be 7.265764157789973 6.0406344106872 8.82974720569841
Be 10.533346655683788 6.875755961326243 8.903758892013453
Be 8.138700185995262 11.163838054601646 8.44879453467938
Be 9.116414127504779 4.85633668469057 6.4301996908295544
Be 8.695905208964648 7.484510868973665 7.756259430476918
Be 7.555567618379293 11.130289918898644 10.488649247432857
Be 8.780757787717473 6.546517021986165 5.346045313904159
Be 6.139762565345994 10.836558315055335 8.977346156700216
Be 7.582343609657689 8.222050690152765 5.9904142507246165
Be 6.685393106684608 9.746847348585245 7.188331918651903
Be 9.44835845450853 10.611521144786582 10.350787521521935
Be 9.767740369761155 8.201441767365196 5.782431066516253
Be 6.514593127824007 7.656266139805703 7.730918862697174
Be 5.382020240561973 9.005180988050792 8.721963635445915
Be 8.24386758973541 9.01586572296022 10.996423711780835
Be 7.467872045999791 5.9751338261900635 6.7432158018445545
