28
Energy = -76.65893226 eV
Be 6.936375601160426 8.06161395236718 4.329836957669129
Be 8.775531894940741 8.882964936566262 4.677980598403636
Be 8.594346854151546 6.826666584458356 4.340018919056307
Be 7.196763112902451 9.64209989819489 5.885737637322513
Be 6.515495422970175 6.307764734354513 5.413114978068302
Be 5.683078149957566 8.249565006809815 5.928892727309792
Be 7.879638702567803 4.944964458278374 4.85779885160084
Be 7.963680401545474 7.500722694539596 6.413373870945705
Be 4.578287455537004 6.402593680568745 6.020266307697781
Be 9.66304686477311 5.60635876777792 5.592513989485947
Be 10.142743428898068 7.6442327455059385 5.943790728662875
Be 9.164095230238235 9.54483228018807 6.530655488903899
Be 7.916443581025918 5.366022274673217 6.893993781306916
Be 5.860020411315966 4.851188489282996 6.783671705004169
Be 4.1367166784133635 6.0133607636104776 7.9796282642198255
Be 6.270940871303135 6.911367857665181 7.587597222792342
Be 9.789153003640454 6.199506409353053 7.511913791088683
Be 5.17948777818864 4.403658975527174 8.684598868814328
Be 4.008304306218404 7.981320876126319 7.169662745907641
Be 9.676431896040436 8.236018911367216 7.948714577417865
Be 7.6283016288207595 8.989418710343978 7.919855982782303
Be 5.577698474682912 9.157717555326204 7.829658688408297
Be 7.0950216044342795 5.076844691900539 8.764447581802147
Be 8.187847571581157 6.952722083137381 8.572443627374332
Be 4.494300525127481 7.8679962300741835 9.11429054303885
Be 5.452930295288001 6.154915388271587 9.73168308052028
Be 6.56766969459752 8.102553949049794 9.497186347463403
Be 7.3381253422303745 6.393483877231388 10.349148919481706
