27
Energy = -73.13211809 eV
Be 11.177056770819148 7.309424894704816 7.684608473453508
Be 10.471732236148009 9.226612753786359 7.667374246853529
Be 9.689335051704818 9.629962585403847 5.799635242028668
Be 9.145149800200304 11.018199651839327 7.290899240537806
Be 11.193061041693275 8.312177557949044 9.614882236156914
Be 8.080069342120618 10.786727395604848 5.494651100106597
Be 9.574793732712592 10.098433093037999 9.318316114720808
Be 10.31259163130081 7.014812233437136 11.043073293160258
Be 9.506074822071364 7.7055459986507655 6.441158613674284
Be 9.525115911817169 6.061154851045806 7.831719512225262
Be 10.993247180478235 6.151650904493201 9.340367158352612
Be 7.662721776608319 8.792567060913962 5.871813084827755
Be 9.722736619480049 9.046415118967078 11.08255939011405
Be 8.996269943826762 5.8878735055720215 9.88440702756539
Be 9.262688356051726 7.880356490181453 9.037053367910186
Be 7.767973849447062 7.065829582382745 7.242171342292957
Be 8.667070320007172 10.992326106005287 10.922309781255267
Be 8.327748461178492 9.195720030017652 7.821988598725635
Be 6.79711405101997 10.448534016523459 7.065917448703786
Be 7.745840615676832 11.165060115751084 8.90625265482372
Be 8.284154976420233 7.491775472168594 11.04422346076101
Be 7.253149175106157 7.0245238479981085 9.180058814916151
Be 6.345016129968513 8.477996416396651 7.744787739297726
Be 7.480550951725263 9.025886026454213 9.789407619234973
Be 5.895708092261236 10.177091200862067 8.901942237796131
Be 7.836804915860148 9.442106046517956 11.876932414234878
Be 6.692488935583026 10.858093331639209 10.72524183962491
