21
Energy = -53.73439085 eV
Be 11.92140499836135 9.669112960181012 9.982440394775956
Be 10.794156254006841 10.109281959568364 8.188231653386373
Be 9.223252266429466 8.482722234367788 7.407831081033385
Be 10.272023071266752 8.382968144172276 9.383231200220285
Be 9.210673857944698 10.60076927825598 6.745416767517639
Be 11.553732633105408 7.9324376677591415 11.118987213127122
Be 11.008779034589269 9.75411753680741 11.745622056075874
Be 10.227768009633376 6.438956397744053 10.335165138303621
Be 10.501517358381037 11.1998641108251 9.997323393379679
Be 9.73755543692672 12.006141388077607 8.175621419911892
Be 7.726942810936771 11.618862253922764 7.651637375075533
Be 9.553919061969808 7.930660153547072 11.601420886112509
Be 7.3881061787125395 9.67586514713539 6.89564255910378
Be 8.395415461477274 11.672471332575904 9.645880285764461
Be 9.195650646926312 9.925422363174963 10.894329471083074
Be 8.872991207610525 9.884049638885243 8.846865578792414
Be 6.878335008702067 10.057079489197745 8.829742867028743
Be 8.896200246247245 6.794130465691767 8.718806023705296
Be 8.26655436782563 6.435776067415242 10.591115272671232
Be 8.056548359302653 8.394954151983178 10.0668124373257
Be 7.328481655423166 8.044365184490252 8.187884851384739
