23
Energy = -60.58159195 eV
Be 9.47462819098989 9.602256682322905 11.905202952516705
Be 11.976198714570488 10.07968405377438 10.171915702601805
Be 7.501308215799575 9.38779661775162 10.887519266101691
Be 8.679943686905737 10.683914296531198 7.824481481000798
Be 7.741532913241104 9.066092471844707 8.780563259534155
Be 10.05281926957002 12.27591988995721 7.6739491642739015
Be 8.048590213856675 7.098960461105937 8.21537021492902
Be 10.940585568930581 8.37652504218552 10.747256568405177
Be 7.005363995515459 7.486651459571997 9.984863146142988
Be 8.421525235041932 11.234196308130738 11.235107875153668
Be 8.345589218717977 6.07545705536955 9.951035196629858
Be 12.544259952455644 10.483446093307695 8.276468441013565
Be 10.50898513994099 11.315648614209467 11.097348437797582
Be 8.873185222784976 7.79700325061391 11.01812598680107
Be 9.22776303902362 12.14794453678241 9.505078390099344
Be 11.416334311356712 8.69354631280787 8.646614121426365
Be 11.304647101049929 11.860099894894933 9.20503615478497
Be 10.70295295867665 10.380647086807173 7.5835348521544095
Be 9.86732407099957 7.4265882807860315 9.206429608124003
Be 9.727959141892633 9.876382379359626 9.616431577352715
Be 7.486016528432727 11.020815979916595 9.49300427428289
Be 9.483087389528835 8.676936532922511 7.624792960140121
Be 11.482232768282016 9.766319546610024 12.162703216296649
