29
Energy = -79.64150406 eV
Be 13.220439455131805 8.740877901011444 10.386910006500887
Be 13.346438181331486 8.417621047110016 8.447838161178268
Be 11.946500763407881 7.526023684942821 11.273648868567536
Be 11.637832497965206 9.730681569183382 11.246872782477741
Be 10.202545258709925 8.21382710001214 11.95531928824632
Be 8.831232823434407 11.96795953812086 10.734818901456315
Be 12.214490179417707 10.057221352018594 9.094562302298709
Be 9.493325281446428 10.037236943629766 11.310778881588176
Be 10.505764927391343 11.039443225031649 9.86144709428106
Be 10.09179420276914 6.802537527533849 10.39010988310943
Be 11.88536651726266 7.168110034802625 9.261903765904684
Be 9.060680478743896 11.985717058505102 8.496693470119203
Be 11.430904007054085 8.561194963013673 7.70417215946535
Be 10.388018400993143 10.392713854559386 7.932366786111258
Be 8.550117365575616 9.978687255406534 9.305340532704431
Be 10.391956050163088 8.84635684067642 9.640686836763193
Be 7.34869695746466 9.869522498530637 11.213828200482356
Be 7.403714956721554 12.819353419826735 9.582375893465475
Be 8.51625975329013 8.247038496320197 10.823241068016834
Be 6.856000287870331 11.90872832203473 11.272117595727185
Be 8.282868123236092 6.889358872275556 9.347721633103532
Be 9.968310091750652 7.0822112124352445 8.217114749000682
Be 7.02189417611366 11.685342434016597 7.990300136335967
Be 9.570456857710472 8.698532753565335 6.981762065064889
Be 6.829550737241377 8.560117555136864 9.567798820363635
Be 6.257092542210104 10.730612179381943 9.655082071632112
Be 8.386963432490386 10.362379205226151 7.091917616622578
Be 7.827934041247244 8.104605167624522 7.7695180684038165
Be 6.557672026501123 9.687496929015015 7.835827596382939
