22
Energy = -58.45438947 eV
Be 7.508550176296706 10.465091161959396 10.042969387718188
Be 8.59432903135504 9.545937098929574 11.588864130903637
Be 7.660205413765947 7.367425960183638 8.582043705461807
Be 8.613213975873625 11.708655179029908 8.7802452483556
Be 7.417230049387656 8.342089657060445 10.442629995351888
Be 6.530946332488697 9.049748756945068 8.7546709747396
Be 10.084760421557228 9.11863296495534 6.886904828052846
Be 10.630016181460999 9.420767053783702 11.410009703629413
Be 9.184170488497747 9.094450849091105 9.07248934192328
Be 8.060296566301965 6.404648140491007 10.341599192739917
Be 11.611610775022527 10.312592737934196 9.900624734537232
Be 7.02417267307223 10.767372157432877 7.917285452419664
Be 9.160945116714316 7.2550405426760065 7.208751608886917
Be 9.487864169021096 7.732413692966351 11.018328854046437
Be 11.840354320292885 9.37915513860043 8.11524926160186
Be 11.090719641472521 7.541312016631095 7.817286435155906
Be 9.626716375391108 10.972323494037516 10.435786034063737
Be 10.502846430446956 10.898522323638375 8.298031375618134
Be 11.246940308627739 8.155562806881253 9.833172228650255
Be 9.725894569433278 6.761362065347625 9.172687352011975
Be 7.891293902050864 8.924702305160185 7.096189334466218
Be 8.844271819763497 10.781640266172303 6.9884149050041975
