21
Energy = -53.30834682 eV
Be 10.475021681315381 10.20890436786777 13.080079863834513
Be 11.837762834914415 9.078259509234764 11.995471296168214
Be 9.83304172615898 8.685715530347926 11.80671602285624
Be 11.300885179187613 7.930204441775972 10.367281116563298
Be 11.43201200647164 11.154350466245203 11.563357864624752
Be 9.316995025364346 11.128405163425382 11.644620329187674
Be 12.617626221663253 9.955245775863345 10.281611054456889
Be 9.190749189641961 8.067653526485582 9.806238297017035
Be 8.295567229733019 9.635803011871062 10.736050714850425
Be 10.441467997719275 9.838512737956005 10.109221241455918
Be 12.732284617409434 8.37013002880265 8.987444556770138
Be 10.792263397853343 8.607719822417167 8.334754534021494
Be 8.87726972504539 9.490811229760961 8.435868403397363
Be 11.472643766788813 11.544652744577936 9.410326069383053
Be 7.0548694493951345 9.130307047131021 9.215856582398668
Be 9.222272704792784 11.424332047032706 9.564807533847866
Be 10.322786360635272 10.76757717015976 7.87721388781892
Be 7.248954675090369 11.298468036341424 10.154152758513636
Be 12.28295631066898 10.182716250545434 8.156967922116449
Be 7.767112573324395 11.168750134182716 8.11438833795533
Be 5.885249314048847 10.731272945197864 8.75736359998435
