25
Energy = -65.16926213 eV
Be 9.309727111390538 7.4191775480047895 10.464113582576461
Be 10.973807332206864 11.493899336714323 10.701314208572096
Be 11.804444849785352 10.34708907603016 12.357778193203988
Be 11.46661248723933 8.308901984589006 13.1352592323889
Be 11.730193126122849 15.077557924983475 8.874583461260972
Be 10.359712814840428 9.450734545929 11.099385932653005
Be 8.706610306123029 11.292924306406492 10.612855234827371
Be 11.60379035686571 11.593972613374284 8.667407860874137
Be 9.560894213719031 8.34597214264097 8.677682209398595
Be 10.101935469287742 9.740843773225818 13.466475926289318
Be 8.305412090403637 9.201387252989539 10.22528214345344
Be 11.396151072467253 9.511901218782755 8.127383237454316
Be 11.102319109584904 13.486962789390036 7.845801413906689
Be 11.030788016912187 7.116646081806095 11.511452375676313
Be 9.695081636414596 13.111776777015114 10.868905942850484
Be 12.494021737968728 8.54928019481207 11.390968407653737
Be 9.873105947547915 14.421819654444429 9.231187098088835
Be 11.673111125717806 13.30090711496283 9.949447398549616
Be 9.87814548761657 10.30720988532796 9.204062608873636
Be 9.6352867749735 12.361473140056017 8.937282621156145
Be 9.416872566118696 8.026222266738918 12.485857797143225
Be 8.445465707437396 9.9474540306942 12.179602979733941
Be 12.23862164322414 10.069927735513087 9.992756811139529
Be 11.349845704621204 8.082585974493645 9.622356074888522
Be 9.887821149302745 11.473150468966992 12.410575085279769
