24
Energy = -64.90301001 eV
Be 8.360880732837686 7.759973096251281 10.959219186743551
Be 7.632206969330343 9.630147436745553 10.696149762122136
Be 8.575628742155173 11.203945344940864 9.779840647338881
Be 9.652853325224813 9.289347053982855 10.351772897546972
Be 6.836496303301789 8.044049120378867 9.577503962515364
Be 10.972648828412307 8.560354900235781 8.834727102669884
Be 6.347459480566433 10.190190741850461 9.142876404416961
Be 10.250532895583468 7.124314871956854 10.351175476389942
Be 8.055624077458901 6.124576287146762 9.759929376662715
Be 7.134661328290838 12.078367078269128 8.627893051374823
Be 10.271480932399747 10.525918328583105 8.814041760637517
Be 8.804361210746224 11.345142548932463 7.5046259951646945
Be 6.717160751364883 10.76558158135219 7.166765791842048
Be 9.861934855488032 5.188335705935841 9.574440315771275
Be 9.947395955845451 9.379601093166189 7.140774329156276
Be 8.171508830138837 9.776346045034655 6.222792482264511
Be 6.542956482525802 8.676312977578078 7.551801365064516
Be 11.003109787371795 6.45164955347061 8.51353017136958
Be 9.053804233391176 5.865307675087661 7.720089821362983
Be 7.130195415910113 6.727203088724081 8.015045237430744
Be 8.252392298807509 9.544668754540231 8.498953583723937
Be 8.297323215839487 7.800476916513545 6.697981589088269
Be 10.286911171717108 7.3856812411342 6.902772432104515
Be 9.005061033801441 7.7270974166983954 8.75988611574799
