27
Energy = -74.3924199 eV
Be 8.570881097181053 8.901931556778374 6.619652786841566
Be 10.397476643861422 7.92985505275827 7.238828700782518
Be 8.828182405182346 11.068445230335588 6.9537205131927635
Be 10.392395101290278 7.568979954595742 9.382274787025102
Be 10.422234475754507 9.881358032079813 6.722666873532804
Be 8.661277651020823 7.405605552377384 8.054701680521207
Be 9.304255927603293 12.16378701861063 8.606867450571203
Be 11.486590605956126 9.133727091142637 8.541264105427555
Be 7.00441866269904 10.201130389771961 6.881570207676868
Be 11.958487130155875 8.454198652011662 10.53330794075629
Be 9.243891491370642 9.668299026767182 8.698243709779158
Be 11.043780465246394 11.167244877599163 8.241703896510518
Be 10.137200812746254 7.61082923466789 11.502416307774809
Be 7.237980649172639 8.883607151347714 8.4075606417715
Be 8.338065046655988 8.531440910634489 11.981076665586597
Be 11.718185956732889 8.280550944655305 12.5771932591345
Be 10.010413278334601 9.574862943400158 10.588047657631593
Be 7.495926935913234 11.082468126971774 8.683109594573416
Be 12.255583255517456 10.442216291519278 9.909292960811277
Be 10.760639976602084 11.80170467847479 10.194666408117808
Be 8.476850766832701 7.933399665730912 10.025281242095865
Be 10.005018355304895 9.358963471729881 12.89413942620937
Be 11.78276220413184 10.17170244534939 11.87167976628669
Be 7.545459573410261 9.737699448680456 10.33927740873613
Be 8.296059029310236 10.504127304231067 12.229005666698876
Be 8.700773543312287 11.471869646597206 10.4282952849954
Be 10.152377583979973 11.297163926459461 12.121323682238442
