29
Energy = -79.63748971 eV
Be 7.137822010347352 8.916988412900796 8.603051999089073
Be 11.769077601480058 7.540292595987683 8.416296235652014
Be 10.322646246785082 10.292622467416635 6.781803999111416
Be 9.367687387814112 12.173416947577406 9.945456606024107
Be 8.010248053129986 7.735041120715409 7.162798221183443
Be 8.259802094371357 11.042702515003466 11.44620277156636
Be 9.78919350132425 8.810242699709322 8.37522926783762
Be 11.368195185621799 9.177043658908177 9.874638567845189
Be 9.078439171504598 8.853988029221656 10.347952098768747
Be 8.919258565169988 11.762575387785063 7.776868062396952
Be 8.239353070013037 9.884859762551972 6.987035044501907
Be 10.294110415876146 10.572718869534622 10.975442427985726
Be 6.8990517335047565 8.069392560023813 10.461848319779666
Be 6.900291136752969 11.067106290484586 8.197031219459062
Be 11.974807399694315 9.571007289740448 7.925492451581312
Be 9.429057812248912 8.49120705846864 5.98961947298498
Be 12.140858264247454 7.325378575599766 10.429217679267152
Be 8.275623138847221 7.218777417547212 9.145148104571795
Be 8.580838704318491 10.377668402340467 9.218595975853136
Be 9.93413879523959 6.890463399010144 7.52421527581611
Be 7.268398319137773 9.214399887184944 12.028842903766169
Be 10.660335697859091 8.219725603042692 11.615712316723023
Be 8.62185770651113 7.443513933986542 11.651088732918035
Be 10.238788351701084 7.070628580244616 9.812062966224783
Be 11.312644444483748 8.247275083067306 6.559329824508559
Be 6.616954677126386 10.201974561646622 10.26264999050926
Be 9.214825574502562 9.423090900066581 12.443926622437747
Be 10.63816099988234 10.897698466898428 8.83950634231021
Be 7.363800895425414 12.134466478256607 9.829203454246954
