20
Energy = -52.60717417 eV
Be 7.570835747336498 7.9455415014231985 6.006468529035031
Be 6.074053011643241 8.618207345081252 7.175603815913951
Be 9.300148324584281 7.116130755236664 6.858144874044977
Be 9.31670341841568 9.022880007753601 5.907401446477219
Be 7.669034156176563 9.928911248587989 6.904194186906602
Be 9.803561026726623 10.451050726944443 7.317613786379893
Be 7.148695146572543 6.674760245567749 7.555771894568578
Be 10.684854684701214 8.63578254387837 7.367054808203796
Be 8.905350059189244 5.762076993180682 8.35090066194173
Be 8.359811963617002 8.461833094738372 8.383899019970285
Be 6.5806681786707255 9.833057006387861 8.889865332273308
Be 10.086920578955963 9.594547918413548 9.240904491187042
Be 8.345459291807945 10.890121934936326 8.633806019754264
Be 9.530323449637823 6.1098542587184035 10.3147905925367
Be 10.182752552622873 7.374502343327987 8.89484411558871
Be 7.690341531638956 6.7746002564440815 9.63564935764934
Be 6.000585780869441 7.8015103381566755 8.95519264284228
Be 9.153869185119039 8.183399312501153 10.529130683916947
Be 8.371162835252756 10.12710815003975 10.437575475209956
Be 7.109509248909493 8.578764191129507 10.525828438047151
