29
Energy = -78.17503215 eV
Be 10.598134268653626 6.220322833105992 9.960861099289312
Be 12.390740904102692 9.135764956955617 12.1825517667144
Be 9.455703419537116 13.273932485244933 9.244710351887191
Be 8.41929489745759 12.533995613284667 10.94788972347882
Be 10.363785545166072 8.837509871774035 11.669131303268626
Be 9.687025594494209 9.14725476766712 9.414835677141436
Be 9.620696470098618 6.944168964130384 11.524140900891629
Be 8.873836568440588 7.322981635323173 9.631935668653895
Be 7.779927161318558 9.681914257001576 9.347139233753271
Be 9.283458630821608 10.575724220205302 11.15486949880812
Be 8.30457319268401 8.685269780813302 11.09157277355661
Be 11.335451089412922 10.166944465832428 10.335187502795982
Be 11.825578315231098 7.336166466668168 11.262166714803021
Be 11.513402972262593 11.118388536062712 12.276327317021622
Be 13.126669757474692 10.799569887090309 9.256940349207936
Be 13.420558304533525 10.65178576449295 11.29043882037714
Be 11.554494716167197 13.302856983171182 12.095806280860145
Be 10.540520067811837 12.101128190296592 10.584243217394937
Be 7.253317876616321 10.704647767848165 10.980441516125975
Be 11.351643019678441 8.072652825332407 9.386251850346762
Be 7.631903210783814 11.797060248377708 9.244620422724765
Be 9.760651613438856 12.427629711425762 12.50554515904982
Be 9.76417846099883 14.132635514061628 11.219888237645607
Be 11.366582426740774 13.941565462967123 10.030634852219876
Be 9.550516201394053 11.129791054595218 8.912410963774024
Be 12.616060395181137 12.35677105774464 10.511991821117784
Be 11.462864405337273 12.072516106712786 8.713704523376085
Be 11.379207098727402 10.032197316918733 8.253496772212317
Be 13.071913707951664 8.799543547412512 10.272955974019867
