23
Energy = -60.0139768 eV
Be 10.413496264425918 10.667811160702598 11.706317812737415
Be 10.80692476371969 8.659737155120368 11.0575546248353
Be 8.77172941631678 11.2626970931359 10.478740763218392
Be 10.479819167032295 8.87803526019151 7.477020486808076
Be 12.24590058933757 10.159411972907465 10.977368285969714
Be 9.021375133234352 7.742625785480488 10.375282760476612
Be 7.054405665466939 8.581945156688786 8.488570763038952
Be 9.533451820796632 11.94942913941554 8.589275499620092
Be 12.02257035816501 9.171746126342947 9.165659390145253
Be 5.852052043399748 8.10073169540449 10.120648201642874
Be 7.3071651881608615 6.832425284373637 9.638423979597897
Be 8.411278128757194 9.065932996496375 7.005969509974838
Be 7.300824837044661 7.881269451966212 11.475626445997323
Be 10.974242993823594 11.658491731371926 10.041002756809084
Be 10.688064889579021 7.614778718846163 9.179018944511826
Be 9.79861117419699 9.702234603386561 9.407176007642935
Be 8.858576612722109 9.396293933871398 11.649770486409286
Be 7.93371637171725 10.637422351518941 8.426241954278474
Be 11.234403691938708 10.817695777966486 8.055696487967625
Be 12.827568912244283 11.117506658490893 9.328739475010025
Be 8.86244341924102 7.4941547372567365 8.247785218535038
Be 9.51757125943702 10.703466857354242 6.970460804791376
Be 7.369565919255078 9.667605748531127 10.261392078911427
