21
Energy = -53.03556453 eV
Be 9.594270263745095 7.243490989575009 6.863872101828061
Be 11.298895771929125 11.100099005056718 12.95287891306151
Be 9.568445665661333 9.457906216131244 7.347705883989065
Be 10.628044946328798 9.280956655430394 12.36038344530554
Be 9.267149901296525 10.919717655714502 12.516304289827024
Be 10.828513103512057 8.318441011341895 10.212278170765254
Be 8.017193713707341 8.393423041533078 6.400075136890472
Be 7.733056290969834 10.236624462642279 10.240560519384763
Be 10.866670926101106 10.078412665027628 8.875636868353945
Be 7.604125494685033 9.505794227111378 8.235286946734925
Be 11.027392740766354 8.167128996309767 8.038109170440203
Be 8.797307561200626 8.503609439187622 9.556801799578004
Be 8.739002474376509 11.98953651002974 10.79029520917168
Be 12.17946701247681 12.1749249714119 11.469595395783232
Be 9.707435687475087 10.041389618230818 10.714708540802235
Be 8.978819664501874 10.989459607896661 8.827549443483708
Be 10.708499030812764 11.85146640981745 10.02541536189714
Be 9.803566924780842 6.844689159869858 8.891759010780145
Be 10.302891441906539 12.655694387643065 11.992275843957449
Be 7.898239165370731 7.363033396000916 8.100049224425723
Be 11.775607375193067 10.208796730835655 10.913053880337914
