28
Energy = -62.41937874 eV
Be 10.264150703777414 9.901896044601465 5.771778389517834
Be 10.309027533932728 12.373793260065128 18.017509345561425
Be 11.839187875412987 13.225366293477034 16.864486381217336
Be 11.815976331990065 11.11998905389841 6.483975756789327
Be 9.052279468786852 10.92804513151976 17.21294180380576
Be 9.075206947474802 8.819297311502984 7.070439068327483
Be 9.719871218404721 9.183637435232708 11.20108363335291
Be 9.749974768930059 9.57005112497305 13.304839601273628
Be 10.996147316697083 10.118085547497055 9.868645693488983
Be 10.986444960991246 10.996357337223785 14.143953124922614
Be 13.203076033607495 14.2208636104547 15.582999969532224
Be 13.202075462743721 12.502143384946494 7.269946556482612
Be 12.315133551939555 11.559176718583593 10.690309111966833
Be 12.287985966406344 12.011756959533106 12.82110328112295
Be 9.419569728831133 8.947418380558009 9.119677295495835
Be 9.46197197674562 10.160081869740699 15.32206281797777
Be 13.376721383876315 12.8230408439852 9.36649688391075
Be 13.482492819844223 13.600776692420562 13.566652833144913
Be 14.539143431812269 13.888295391211642 8.126404160953843
Be 14.51995108257467 15.187397497393345 14.249439926351348
Be 12.158552098366169 11.264600341452304 8.546413256639969
Be 12.126009409723592 12.610272751605812 14.882716507723961
Be 10.634206184437588 11.70488261969486 16.099208083332098
Be 10.73407370336729 9.87079207668464 7.7740432393295515
Be 11.120006645835195 10.445309254847475 12.0319487872906
Be 14.695535000306656 14.727547350229907 12.223865865663642
Be 14.661711086875307 14.326176476237 10.16331519698889
Be 13.505780346161886 13.165516078466606 11.477346847979723
