29
Energy = -78.82682592 eV
Be 10.471206776958894 10.47117514 8.873781847916923
Be 11.552980187321852 12.345075726216306 11.582297227233267
Be 10.471206776958894 10.47117514 12.068568432083076
Be 8.307582084457914 10.47117514 11.582185724241047
Be 8.120308314301804 12.343566289172214 10.47117514
Be 10.025063158224189 13.443319716806535 10.47117514
Be 9.414639314272435 12.301280379479095 12.357130570532581
Be 11.126445557104937 9.336110140405937 7.3877523658917
Be 12.584311492760381 10.47117514 8.585078162635652
Be 11.552980187321852 8.597274553783695 9.360053052766732
Be 9.414639314272435 8.641069900520906 8.58521970946742
Be 9.160657194289698 10.47117514 7.38765280283384
Be 11.126445557104937 11.606240139594064 7.3877523658917
Be 11.552980187321852 12.345075726216306 9.360053052766732
Be 11.65011409523816 10.47117514 10.47117514
Be 9.88167314677118 9.450075053989842 10.47117514
Be 8.307582084457914 10.47117514 9.360164555758953
Be 9.414639314272435 12.301280379479095 8.58521970946742
Be 9.88167314677118 11.492275226010157 10.47117514
Be 9.414639314272435 8.641069900520906 12.357130570532581
Be 11.552980187321852 8.597274553783695 11.582297227233267
Be 8.120308314301804 8.598783990827787 10.47117514
Be 10.025063158224189 7.499030563193464 10.47117514
Be 13.268050199136427 11.570941965061351 10.47117514
Be 13.268050199136427 9.371408314938652 10.47117514
Be 12.584311492760381 10.47117514 12.357272117364348
Be 11.126445557104937 11.606240139594064 13.5545979141083
Be 11.126445557104937 9.336110140405937 13.5545979141083
Be 9.160657194289698 10.47117514 13.554697477166156
