21
Energy = -53.33296794 eV
Be 8.85961928469457 10.814197272976617 8.361537401162291
Be 11.201429877229552 8.097511548722048 9.089977869968362
Be 8.71041325614933 6.165870369785184 10.117216786575868
Be 9.699632218979005 10.937886649740006 10.245513114962439
Be 10.743139086745872 6.136545306142096 9.678246781133629
Be 7.5803379716183 10.11022464274171 9.861148885689257
Be 6.740929366753509 10.290825168208281 7.714206973065497
Be 6.755252762662295 9.405491012204868 5.831839347237439
Be 6.131584271042002 8.763919439972993 9.240954048175672
Be 10.97386627664379 10.311452250876348 8.770058365813455
Be 7.282259131971813 6.866748114375906 8.607610387254647
Be 9.999785533696308 9.000339134905618 7.558991541788021
Be 8.146542579901437 7.876999532774397 6.566844394178114
Be 10.074064658138713 7.486534117911348 10.956434499125455
Be 8.511924139012619 10.056146041250182 6.491882432376876
Be 6.207954918495618 8.175940570601014 7.303258993153296
Be 9.353714697850668 8.968330751865157 9.786693464597736
Be 8.02970195580594 8.799862970055939 8.291077144309398
Be 11.16170418291181 9.417700552762458 10.642662199493552
Be 7.688401468286335 7.924430764946411 10.411269546559122
Be 9.391173076776198 7.16803407794719 8.417950653076284
