20
Energy = -52.30756753 eV
Be 8.86229854713872 9.363815988289497 5.9948931444152915
Be 8.126959588270033 7.587773808490091 6.630928047983644
Be 6.993868054020395 9.311954800402969 6.81010534629525
Be 8.189496643052799 10.762103637235821 7.731991330306341
Be 10.15242376308896 8.045340999260635 7.1467354306018365
Be 10.205272091535484 10.130743026822811 7.2162101586067395
Be 8.703176011929358 6.583968068274169 8.307210501210815
Be 8.811638323472524 8.8215352785593 8.771718034105655
Be 6.842070374215327 7.754005443860739 8.274318852663527
Be 6.617333272142417 9.787865688625667 8.761863148506068
Be 10.552277322439533 7.19756909086858 9.02767217777368
Be 9.839301366073448 11.036148151389552 8.970972768166098
Be 11.060165715663011 9.247803236455395 8.896090703105227
Be 8.897691043512904 7.142332503303322 10.326702260893374
Be 7.113154676595806 8.434674602554104 10.254061341001732
Be 7.12649881311251 6.376099833858649 9.729473419999719
Be 8.114120374145417 10.536662459162793 10.03539068499617
Be 10.627449727366843 8.334896306313615 10.725930962733603
Be 10.146933522712924 10.314464145893144 10.77767784496795
Be 8.75066267916177 8.96303484002948 11.342845751317759
