29
Energy = -80.1676658 eV
Be 13.847449971035266 8.587982795991444 10.010787492482624
Be 13.808031056414432 9.677821322404704 11.71981855934631
Be 7.956777997989657 11.479068650208017 11.572748354788695
Be 9.065937922395596 9.936850614371659 10.104462326410196
Be 11.877262752590317 10.391107878985578 12.367363560011984
Be 11.188359488507572 10.494583451560127 10.257922680984562
Be 9.883535783215532 10.985094692300674 12.107509957776454
Be 7.216804765239151 8.517497829373927 9.36514125689041
Be 12.277872506799133 9.2085158662176 8.811830478932068
Be 13.520852223131198 10.644815231630092 9.645153729816556
Be 10.271142112086311 8.995439824970518 11.780219370398818
Be 10.395275617862739 9.673617814052552 8.218282778549204
Be 11.359987562665623 12.413298792239809 11.409101332932575
Be 6.761525759512807 10.121156674249969 10.681607186247282
Be 8.27901663141537 9.514852789919097 12.16671994185766
Be 8.317118777029997 9.985057665765828 7.996708854606126
Be 7.783639710263481 11.636447184084659 9.433303665446505
Be 9.655850859141985 11.567337640646299 8.45663318182333
Be 9.505314655699618 12.257532831639582 10.470682260119858
Be 10.92994856435281 12.985662902251054 9.254133565357716
Be 13.306730743084335 11.605342216392469 11.509691847881886
Be 6.885463448601903 8.22621135334478 11.365333474766167
Be 6.4432533032540436 10.24487799672635 8.688102717966157
Be 11.835612453257397 11.312555899099344 8.29213636983686
Be 8.794059177409563 7.852796577824836 10.739923625262307
Be 12.227539242208449 8.53415553812384 11.203038752414495
Be 12.766072826929719 12.560087570559888 9.803140558718367
Be 10.6740375584919 8.335207817568838 9.839971241205006
Be 9.044752596876268 8.134248644958506 8.607756944632003
