23
Energy = -60.44036887 eV
Be 8.71809294520141 6.5333335570935445 10.430179422424498
Be 9.123950150838333 11.576328520063436 7.470587780101707
Be 8.469970615660863 9.750130097886487 6.840941373679085
Be 7.221556562335364 10.801265383328595 8.155049516347438
Be 10.713675310991139 9.398319712090283 9.981675479523087
Be 8.01586103057382 12.570658867248246 8.874685306451132
Be 10.581353569572633 10.32659257743962 8.094537015920228
Be 10.590780655041728 7.05724870364303 9.552715595712696
Be 8.827906194635178 6.270124102473539 8.40681226834178
Be 6.919719370201938 8.607091899387148 7.656927715433399
Be 9.825189101965876 8.020323741665102 11.238617375643308
Be 7.041247778142081 6.546877080793124 7.412391325729922
Be 6.874536375353653 9.34209013229689 9.617344739313753
Be 7.7518003920834175 8.242130498245945 11.105663140002775
Be 10.469925276582599 6.989370052277982 7.42408863710267
Be 8.899862406653847 9.893007286710743 10.944544590306363
Be 9.555401149505636 11.34274767143034 9.597876646940362
Be 7.488746904098695 11.175366031727327 10.269937429276528
Be 7.1240405964170535 7.274314497232432 9.331716329146925
Be 10.334296443665641 8.920790151980661 6.669909844017556
Be 8.95741938682918 8.585181985987495 8.829482221037376
Be 8.630870578340007 7.661070922822316 6.7385354352675035
Be 11.52579612116309 8.459295049576466 8.325775250780293
