29
Energy = -77.82780863 eV
Be 9.490362643155033 7.414456588923505 6.887062092042511
Be 9.701969553729507 9.234604001395407 8.244076263008148
Be 9.946073700187785 10.854330187777588 10.944779414082603
Be 9.683585710760113 6.984708366151481 8.993003697075054
Be 7.921663974124146 6.9931318455623295 10.43680426953359
Be 8.763843162815558 7.692154156439381 12.308690765193157
Be 11.859046652727585 10.0330902322695 10.541324514128917
Be 10.813569475721454 9.065732068998813 6.409048215836079
Be 10.552588302948031 11.0775067849721 7.3370489412813376
Be 7.454923030496702 8.764822434626945 13.52639235284077
Be 10.055122950267664 6.944798453379817 10.994817700898526
Be 8.41218985489729 9.150688189957895 6.401878064512512
Be 11.196308527451329 8.207273479946506 9.865233439406431
Be 7.671189815809647 10.02703347950191 8.555030840169385
Be 11.275549765477582 7.711679156772329 7.880695322678524
Be 8.92393774648668 8.849878523619603 10.190994509881682
Be 8.464490128297305 11.118758770689533 7.05506883047238
Be 8.71265742132596 9.771787427937111 12.223186102092377
Be 7.0888151336262855 8.671554797972648 11.52301246611196
Be 11.88046627492353 9.70891367936487 8.330873929873361
Be 7.379322733963818 7.380559379163818 6.357192893597348
Be 10.52819060499385 8.857069723238483 11.77584855573498
Be 11.181687545769146 11.423996411864392 9.316155598474298
Be 9.147559355907372 11.342971925877936 9.056921992318285
Be 6.505537214067876 8.958788210836092 7.31934063468199
Be 6.615814383794841 8.679679239081832 9.576671794466742
Be 9.709731576273153 10.552477830259955 5.520625025734286
Be 7.706247918913324 10.569899643113194 10.548050553648668
Be 7.929825099745604 7.761573194167943 8.31844072230015
