23
Energy = -61.27606721 eV
Be 9.286473527175879 11.308012342406286 9.94021357797192
Be 9.122210893788749 6.897008113204662 8.405766375385529
Be 11.505220038940982 10.123948396789588 7.67869417323301
Be 9.036667411004151 8.37606149758842 6.946486649591317
Be 9.649363609713854 9.687073324513523 8.593232182178307
Be 11.875088906581873 9.061027161532575 9.404019144716699
Be 9.622273872608718 10.556508572699919 6.6607490400568885
Be 8.444606659885807 11.696898871022897 8.003722406903874
Be 8.243331674398675 9.746373192688699 11.21607798092194
Be 7.218613457718537 6.835887687626464 9.684402774744239
Be 7.555009987909349 7.6153250623783855 11.593938611122029
Be 8.720220533254919 8.380023760621617 9.778096267021565
Be 10.458797269205716 11.90360386132389 8.02006455311434
Be 7.267448299292 8.314304472839778 8.18512473693041
Be 9.009686103978183 6.433713300864952 10.655809156827715
Be 9.56477586406425 8.027093705916009 11.795482057184914
Be 10.373966931509361 9.636343784502115 10.747635264329139
Be 6.557189237461509 8.7031607274842 10.159254567890292
Be 7.546146673265834 10.27153890947464 9.21691358212481
Be 7.7014590627097155 10.001533584873899 7.146682652309804
Be 10.841096672463305 7.963143303674235 7.933241999264779
Be 11.387331959860882 11.031339759202993 9.5931839286363
Be 10.691926175601393 7.542740519564679 10.049431672144554
