27
Energy = -73.3754707 eV
Be 10.698754084532954 12.51725695311803 9.08207840365702
Be 11.917149755333705 11.162629370684572 8.062422325397353
Be 12.15774760701261 11.711424875282466 10.256922565752497
Be 9.699022582618019 11.215800396344004 7.794354965345826
Be 10.380674454680658 12.616885949313463 11.121672849466282
Be 12.806616980471125 9.891521193019972 9.523355914208736
Be 8.943800554603143 11.7275794257945 9.79673324454646
Be 11.851687758232009 11.797294231495997 12.290580336896486
Be 10.907909673013494 10.263282944805855 6.398863913671098
Be 10.567660501234656 10.266818798866659 9.631052624825417
Be 12.178207630700173 9.88127614278582 11.46042341657153
Be 11.788669713935855 9.040510555460795 7.970468080718106
Be 10.007346802924738 10.509534508121634 11.620698066062003
Be 10.533980659016652 8.247952071630145 6.457517316137398
Be 9.039482035262694 9.471374714938621 6.813217488511665
Be 11.418780417262473 8.365087254540692 10.122561078210694
Be 8.496331785555684 12.127985103975284 11.788784961371766
Be 8.509970611233074 9.795221695024223 8.896075153203098
Be 9.928524584937271 8.281264306491348 8.496969076005511
Be 7.996522305940565 10.21607913290357 10.903962601221687
Be 10.69178925479368 8.55086761086906 12.146393579895896
Be 11.368305669333898 10.187000410731526 13.400396753421472
Be 9.948746026539384 11.807636221901719 13.32352049957468
Be 9.329760860427902 8.60079754287217 10.493699081933784
Be 8.05631070561991 10.662668890220225 13.117273818634747
Be 8.543662464580224 8.794366574882163 12.39977685545162
Be 9.541942315799874 9.599240919521908 13.939582824903747
