27
Energy = -72.16688889 eV
Be 12.672638126073617 13.220885902566271 12.4566191143688
Be 12.535705425335033 9.575605877984403 8.198186498576533
Be 12.406750395016935 10.937092311306127 9.932212357222449
Be 11.369638846584417 11.880982886521297 11.521553782913413
Be 11.824266252840044 11.445580717807488 7.971666723221099
Be 10.729927157656471 9.758382865950143 7.116133482560303
Be 12.426846313583983 8.837767085927442 10.065876867664167
Be 11.222158599534914 7.914799643013206 8.585251894108959
Be 10.651029929849361 12.174027220690462 9.530717252171382
Be 9.435175002364753 8.25965729589861 7.789173069388572
Be 9.862682696115554 11.660481352797934 7.651465226558997
Be 11.245207702653365 9.804176039486304 11.446437758564436
Be 10.451567274478883 9.944905807991097 9.225739283468199
Be 8.624749289973458 11.437305635852251 9.287584169795092
Be 8.611910522523651 10.051414240981504 7.66554754620267
Be 9.566667276452618 11.006778971750652 11.008998187417065
Be 10.531134545100326 8.08868020932477 10.563226283118436
Be 9.297573625697353 9.230342379308707 11.99998880986984
Be 8.661232881339767 9.167321676088733 9.881820787111183
Be 9.207881672568663 7.027986354507362 9.34606259842325
Be 6.912917344180732 10.381142176196814 8.76158435666427
Be 7.418683876537404 10.507474505565806 10.900717244570252
Be 7.385748449076758 8.312582508120958 8.360375573511094
Be 8.805204916381188 7.259027651610832 11.448347988483366
Be 7.2804014056115305 8.571772188801182 11.7349051389954
Be 7.245183935423318 7.185440784691601 10.11225166795947
Be 6.22716340180313 8.96843257401528 10.047603201847704
