28
Energy = -75.28182847 eV
Be 6.120656767732609 9.694391759284155 13.026940386416967
Be 9.005324388809107 9.658551294236418 11.634788203678708
Be 10.264050984200276 10.79549331758082 12.769832999791774
Be 9.773249600925332 9.489269970851065 9.744775345708378
Be 10.66084147663587 10.984376093826441 6.955002971274085
Be 8.655174414044271 11.782805165098342 11.980457520097954
Be 12.09350975460418 12.111427921257096 7.957881026115836
Be 7.744532721296714 9.00441795693524 9.895497394009746
Be 11.476978585887458 10.351764932217831 9.303661827299319
Be 10.016465071293126 11.866676366907452 8.72546751852433
Be 11.031539272108017 9.17003661468902 11.465210447081493
Be 12.886332157625501 9.107318303688238 10.537727073399784
Be 10.965735160083902 12.567201975507027 11.905180653741194
Be 8.982668803278703 10.126565309083357 8.000974516481042
Be 9.304422308184094 7.929259606026439 8.641030335126375
Be 10.89622117974367 9.004542176345845 7.776968686714768
Be 10.200458272251662 11.237028506172788 10.695222745689762
Be 12.581634739307434 10.314189507474406 7.260775336671375
Be 7.367677244598828 8.481520867666315 11.885011874908155
Be 12.889198079794909 8.792972216529293 8.559840519431708
Be 11.248935226477752 7.994591280219475 9.663735367739994
Be 12.236503993485783 10.917507089418738 11.366616742530296
Be 8.075989117995178 10.260053627255793 13.284152309133415
Be 8.260846247293342 11.09337925613883 9.860455750046441
Be 9.237913149780686 7.776370923813727 10.753055242738293
Be 13.422057318830916 10.906834470660616 9.278497245745655
Be 6.993999340231463 10.478682243540751 11.373802109111805
Be 11.863383958763285 12.359070582837973 9.953737186055859
