22
Energy = -57.83248014 eV
Be 7.554918707552139 7.76478756097409 8.211780183746074
Be 7.190170267024704 5.971489163784712 9.271233784999962
Be 10.226223249735634 8.938988027988914 6.383707206494827
Be 7.0795127738258445 7.691052329219549 10.53742191121078
Be 5.416083886029764 7.0214294151195675 9.685226531827823
Be 8.006698958690638 9.36211732957523 9.904549808537418
Be 6.062858597461138 9.004920342527853 9.091731096717158
Be 7.4558888541585775 10.328461490496274 8.039617644043501
Be 9.350454745699373 10.777363465202546 6.989409069350029
Be 10.086218307307277 9.019221940897014 9.89392536879514
Be 9.037595730178944 7.18960756609378 6.55710374528982
Be 10.918245057882784 9.908774028628665 8.127338533091343
Be 10.451704723060923 7.556956547462832 8.225351814036232
Be 9.304309189933669 10.836405848074385 9.08899533916252
Be 6.1723100069745485 9.07409889548739 6.996326260633718
Be 7.032394809695215 7.488346815587007 5.992012720232518
Be 9.042439908688996 8.955280426527205 8.04983311478513
Be 7.432644063499309 5.844301502460535 7.137242283022395
Be 8.961956212580912 7.262632076074585 9.827074041987125
Be 8.093127213979873 9.21757255062959 6.16060930348844
Be 5.730445212580369 7.014800837577392 7.659279173909242
Be 9.139595148563677 5.94707492664937 8.251551756946096
