22
Energy = -56.36570424 eV
Be 7.054808865266214 10.172741510951786 7.768936057918543
Be 11.928938163312482 9.993409978375068 8.29503033028649
Be 10.507591544226056 8.712443636865373 7.6516634193773765
Be 11.815437068490759 7.93550900074353 11.159666254896791
Be 7.516950791997835 8.81423647801684 12.030673323674314
Be 7.390811206322328 10.69341484690255 11.479650922153407
Be 8.70918894556115 9.529617149643217 6.480916451995901
Be 10.351131338409841 8.656114943371776 9.74493020493316
Be 9.2803924214205 10.27877396906009 10.601787934018404
Be 6.958578433287887 9.552341942932136 9.92229619602648
Be 8.585380593212696 9.075111362515633 8.589888127386969
Be 10.501640125741288 10.488310422078731 6.656204916177401
Be 9.046849978322271 9.966404583696416 12.715235499343942
Be 11.300378679022197 10.75437683468573 10.125740445575067
Be 7.929160767056879 11.209233823155156 9.291569997639167
Be 8.544927638913087 11.375965901065383 7.075497490072408
Be 8.399387079011555 8.13059830693422 10.389251339709691
Be 12.294216361893978 8.173241330966118 9.010600785147286
Be 12.842176516829507 9.526547801969715 10.360928125938743
Be 11.091269412562449 9.70337722829739 11.861897026742305
Be 9.942890510191585 10.761795520229471 8.607896484689133
Be 9.743216686632397 8.231756555228065 11.915061793982506
