27
Energy = -71.00545327 eV
Be 12.052508147898987 9.666498186216296 6.499550590127514
Be 8.826176041520421 12.035136919671583 10.703600662752361
Be 13.300872704490377 9.635793692490624 8.214162595511176
Be 8.334075207582067 9.972137589669368 10.245321493660812
Be 11.1904236253399 10.788612074834896 13.751465187827444
Be 8.737725138616291 12.613639817281735 12.827431433259209
Be 7.886921997279619 10.798837052476182 12.109756156427789
Be 11.524451984308206 9.650962125556589 11.625843307998702
Be 12.519195557187574 7.96008155486523 7.535685859963719
Be 10.496474452728389 8.367973169648456 6.630741540744205
Be 9.148300782688148 9.04779224735487 8.306499775485406
Be 10.777409632749583 7.761119799287956 8.497625025611637
Be 9.279334181000863 10.997015707275262 8.787102266830685
Be 11.701420956855603 12.823586088000487 13.476578774068209
Be 12.197052575625827 11.605138578687805 11.879034152788101
Be 10.04096680601702 12.291927091385576 14.571057743946623
Be 10.795971573144106 11.463222120194732 10.143046709549887
Be 10.121307443081001 14.046140170411347 13.518585572202634
Be 10.555152673709076 13.14960057402507 11.675887806727218
Be 12.639083545620876 10.451702782671187 10.118239863800348
Be 10.032903475128009 10.277101909675633 6.789977038358971
Be 9.001600237930788 10.707583438306663 13.829140534131444
Be 12.270356472716822 8.482237720972263 9.769646092747898
Be 11.27411500601179 10.198932032541054 8.519479629667268
Be 9.303808901233161 9.348325996467242 12.065328824746507
Be 10.223384976606399 8.999642525966866 10.155284723270722
Be 10.137607320652368 11.227860451788144 12.122528055516781
