31
Energy = -83.32825488 eV
Be 12.533762843224808 9.297959401660327 10.077432178141516
Be 9.019478411379929 7.354241701081725 8.396674476685009
Be 11.048753365892054 9.840998406167174 12.528629291105167
Be 12.060448730937715 7.307822059581619 10.172094209683115
Be 12.3599218837719 11.355108917566227 9.521853440062415
Be 6.279145305241022 11.530750632113127 7.431872459407774
Be 9.083209342856437 12.599892023429216 8.277633456593149
Be 10.715523281952896 10.314603240519816 10.326325705724507
Be 10.170735001243125 8.413233777581238 11.131583061092385
Be 9.084737224642291 9.252968539174931 7.514398714901655
Be 8.903045681336192 9.456201319739785 9.75148896792013
Be 8.868042325448968 11.724803670844741 10.213405606280503
Be 8.430720775192759 7.520691657193362 10.332839196295854
Be 9.527335630343003 6.472799065450216 11.909334976362336
Be 7.512633354222667 13.012390640371907 6.967865524572609
Be 8.617127863542338 11.200019236788762 6.825309028784174
Be 7.18768778726275 9.73883287380905 6.915255362017661
Be 12.415588770661019 8.38990259199835 11.953082885101196
Be 11.50753286463009 6.363947884056819 11.826799138078924
Be 7.1442372408807815 12.702965963222493 8.919886397745842
Be 12.592863945914848 10.730823853933465 11.564936991633731
Be 10.682595901674555 8.52334272556988 8.93744404016388
Be 9.138326897917468 10.143863293938148 11.710996177846768
Be 10.68382342247557 12.506124455762414 9.696603587377846
Be 10.221716447436727 6.477210867563076 9.958256595449242
Be 12.247623013016337 12.70570740730703 10.984683961699567
Be 10.751146347235046 7.7609096349132285 13.072408635983157
Be 7.5474153222179226 10.660930425482345 8.835681852302471
Be 10.552614816210518 11.76993511524763 11.792015769643228
Be 7.399546248290344 8.563055382424293 8.607895958979237
Be 10.221907695530696 10.817210978089962 8.354560094947177
