31
Energy = -85.93489006 eV
Be 11.549316052423464 9.492163638058392 12.401845299653273
Be 11.819877101029657 11.365123247053939 11.605686108772076
Be 11.870649020757291 11.87085687162326 9.56414588397951
Be 12.60416452801162 9.737939728269572 10.540671760939288
Be 11.049653819100454 11.414363126096301 7.710597808795238
Be 12.037079354335072 7.869160362705353 11.323647538387132
Be 12.223472717715252 10.039793736725738 8.599209597318568
Be 11.936177545920971 8.01371317057099 9.200824980740888
Be 9.873093365928803 10.576832242106484 11.917028477453838
Be 9.65088861552987 12.552650939169625 8.741023125764203
Be 10.619541794005462 6.778720391769795 10.393451007701705
Be 10.470028434905688 9.297769438358719 7.87365687846889
Be 9.954356813489305 8.180706257944927 12.003106721354781
Be 10.298478619155475 8.90124200043603 10.12593588432814
Be 8.664053874915998 8.503673449982902 6.972289265772691
Be 8.391873016748209 9.474547184035313 11.030610625949155
Be 9.974232698700868 7.355801373391171 8.394367191105417
Be 10.327309607644027 12.444526083720444 10.799294344221057
Be 8.604078459228484 7.508754911915306 10.43889621304798
Be 8.466592584415476 9.29985203383208 8.88960831460239
Be 9.860101690641027 10.701035452697257 9.46330254923901
Be 8.397551316077438 11.62958584891288 10.666754087103094
Be 6.750593024529417 8.39569612722117 9.745357601083157
Be 9.1340971381171 10.814473051491527 7.356768453450864
Be 9.118307460301079 5.799661605905469 9.4333020121286
Be 7.874911091449305 7.147979079851714 8.453539499341524
Be 7.674759650600621 11.449555107526427 8.693817813163337
Be 7.223009279055001 10.213970990166187 6.996370485764227
Be 6.744696657570292 10.447522314108376 10.303913673754646
Be 5.929229333643377 10.022861534858679 8.507800932857162
Be 6.581623502931868 8.373266868372943 7.526974032637296
