36
Energy = -102.89004425 eV
Be 9.77328953389366 8.14156417580638 8.823744409321987
Be 9.88410100296336 5.864052269383261 9.053810121639849
Be 9.533770965373465 9.288246298791439 10.58105361866156
Be 10.254169192177601 8.83958088918236 6.734470734997018
Be 10.130219901880237 6.688252876886055 7.209367824457888
Be 11.751174381269344 7.857493500009294 7.768954282872569
Be 10.454462721019876 9.961781154943727 12.665084898391665
Be 12.165926831815026 11.203182777980286 9.194408873970442
Be 8.223732155745674 6.085825947030111 7.836595751128561
Be 11.892838460348806 10.041504567515664 7.443957309071547
Be 8.029113737986984 7.093945331560087 9.64743232445314
Be 8.005531061211748 8.114561139894274 11.458344923227951
Be 10.287005737681413 10.982919472125355 6.4080594965434345
Be 8.462390016772392 9.746089848468957 12.732942403251847
Be 11.245814996209958 12.162531822582807 7.730135943951013
Be 8.560895411787387 10.088545000178906 7.0273469761446545
Be 8.273578448540382 8.033076565831516 7.199818699031416
Be 10.001828225210698 10.269921743512171 8.736380704415561
Be 6.571289605464922 9.41398911196704 7.398114528100731
Be 6.5357032733423805 7.482597205174663 8.252742589718164
Be 5.056312326398684 8.931616656917422 8.651750127756385
Be 10.293596082298848 12.195045943745292 9.712438108124983
Be 9.18503891076456 12.101555798568459 7.781099440864443
Be 11.50061149549443 6.999233509584721 9.660655830431375
Be 7.190295615365335 11.38956621284455 7.777053689440831
Be 11.721114297081206 9.113762070845098 9.430610772508926
Be 7.988926048778824 9.293235971658772 9.048003643893486
Be 6.169811379435666 10.524633205077535 9.329813406147737
Be 6.30747763405632 8.502416705981817 10.187837521159194
Be 11.179667073344055 10.598662199784565 10.847636525922821
Be 8.183676852266409 11.560389432253316 9.608558849717586
Be 9.72023592527418 8.087233719083331 12.671821165141012
Be 7.376572497350483 10.16459877146208 11.025759751395864
Be 9.788481127777901 6.978406973339632 10.859988172086696
Be 11.369356018814939 8.404794418907343 11.393616578234973
Be 9.234556512822886 11.2912730259116 11.460581868826829
