34
Energy = -95.25185509 eV
Be 11.614786751617418 8.118162439105081 9.263868686764253
Be 7.023147733002386 11.69116675624307 8.970205009497215
Be 10.002286803891195 8.504725830843519 13.02497079056563
Be 9.137215394728688 12.841498665905728 8.823059160363217
Be 7.892521446204312 9.375740161704755 6.886541020356759
Be 9.70291796274472 9.28250468144606 8.706326238485092
Be 8.816869787334953 12.026306027196226 11.968111224742382
Be 9.77516136505959 7.217304815508179 9.760930655468869
Be 8.187830880973614 8.592998487169629 10.3842091015519
Be 11.350754748509083 9.19559446109004 7.397203615566896
Be 10.613232509648615 10.569645683081498 12.938645793477596
Be 7.91406639951318 8.386447935088153 12.528800269419577
Be 7.340770042444578 9.664442284647198 8.818494345872237
Be 10.559582755223904 11.327875861109252 8.01615755455831
Be 9.238833377945323 7.157614550390768 11.709594148796894
Be 12.692208336435616 8.949262251886624 10.774753829858303
Be 8.910408634730336 10.851209279085172 9.82008027683125
Be 8.491795072543608 11.170238215455358 7.707891950719105
Be 8.315260568365403 7.745496245793313 8.209328146267861
Be 9.66430320926484 13.477322576938162 10.73040215137327
Be 11.707665337848638 10.288872441946854 9.410503404727164
Be 10.975385396871017 12.631510492905281 12.029994504160085
Be 11.981176612839278 9.011630108269785 12.643886193039283
Be 10.458631605289499 11.115723690820927 10.992675723715267
Be 10.44585669513331 7.288804112328095 7.833378265643184
Be 7.146641959659106 10.721279092295443 10.907069300998641
Be 11.323314139104616 7.340332423435136 11.283299960600218
Be 10.357435583498926 9.105773300871157 10.815532392435818
Be 12.342039008774742 10.806708230704857 11.558035804751945
Be 8.835061460518741 10.018850693628425 11.915201732384864
Be 11.160954417279733 12.523438984906255 9.692541919316014
Be 9.782294288076487 10.208943461696846 6.422682189149832
Be 7.689268097504157 12.833201700001611 10.462859986228162
Be 9.492296600540406 8.227246562033287 6.380333416719965
