35
Energy = -98.67173277 eV
Be 9.635043545519565 11.089214507198932 8.23942956515035
Be 9.93762950636369 9.729228833587982 12.7016387208411
Be 10.02962462922166 7.8474620105615704 11.641924906157566
Be 6.387319932834213 11.078086431734132 9.652772510207345
Be 10.454741149961212 9.01015021861576 8.486423007004285
Be 9.63825425046613 6.467963035144908 8.019760576600538
Be 10.327088950494415 9.912970181715346 6.57948214488187
Be 12.776581372747314 8.941907676974266 8.729118194186182
Be 8.193220997506323 10.268351468521297 6.821736503449639
Be 11.755828067742081 10.732571652176068 8.24327676105587
Be 6.8441785504621695 8.63097567626773 7.177739861347036
Be 10.014603335733463 9.840008324659127 10.379802429909448
Be 6.221867504453519 10.47206993171552 7.657498563895134
Be 9.41168533769362 11.48944012922624 11.756562679669477
Be 10.62368536207313 6.396078842099025 9.86346831126558
Be 7.643658804599674 11.829707959950913 8.0807535711723
Be 11.362533291264924 11.131604870299928 11.92103261193933
Be 8.294347813775246 9.252759464990422 11.42933570190493
Be 9.184137013598958 7.97958346693603 9.789150328103192
Be 5.9460938740837905 8.792145460993776 8.997763763272973
Be 12.233545713651344 10.271227642662714 10.264900283350558
Be 11.672360311848927 7.199328074042155 8.15529082665789
Be 10.747543406215868 11.832856049829841 9.995174100301115
Be 8.560420991356684 6.080499741375552 9.859197019975607
Be 11.743884554153992 9.097731738008466 11.985624900765067
Be 7.351377658036072 11.131049641879045 11.559411581046737
Be 11.498457731863533 8.194735722346469 10.134030312312051
Be 8.541069085091014 11.696562673369987 9.958444790577857
Be 6.2601591716855 9.506822121749458 10.939047663828463
Be 8.070444006329106 9.595146137275405 9.081137887424171
Be 7.470314052857005 7.145895685504003 8.485401640555908
Be 10.605868674902467 7.7688386920476615 6.466045909080393
Be 7.169225700752698 7.726227250973313 10.441946681477782
Be 8.815536406378087 8.322463314899704 7.3163252959496905
Be 12.135247725472952 9.029971408284448 6.862633129189623
