37
Energy = -105.23054239 eV
Be 6.175470883929895 11.003325145696559 7.732466304049272
Be 7.857730205810772 11.855209446938384 8.595933075077747
Be 6.886950285540352 10.205302291381381 9.526706072722078
Be 5.39869544547096 9.171041499958669 8.280530598788038
Be 7.994407310047796 11.12855093934134 6.70754845546455
Be 8.960340855473373 10.89990466595233 10.09495634078897
Be 7.824328068447234 9.7767722791995 11.578416250732602
Be 6.446390963197792 9.583773497035981 6.255732100686522
Be 9.928547820454694 11.699031759793145 8.27735927463753
Be 9.037677524492041 9.790585764162946 8.161112225484992
Be 5.103934541260771 8.061104603535549 6.5868167609958075
Be 5.9837812017431995 6.966496224758299 8.147439984638872
Be 6.2329253934304205 8.19218071338586 9.895420180658327
Be 10.003776887333848 10.147908653948218 11.726451399934433
Be 10.019544437352186 10.702525420929684 6.43538767504516
Be 11.123472517582496 10.966364314651699 9.959048867357442
Be 7.477356733550734 8.436855165898107 7.95700426092047
Be 9.168557396084244 8.398128883093815 12.336600580837121
Be 12.046944335768055 9.950497160577614 11.547516925888251
Be 7.554887368084721 6.591198030151077 9.606306583132639
Be 8.262517088288849 8.697734035796302 9.918126543448098
Be 8.497961078543886 9.209206775980238 5.986681740321992
Be 6.998570059482282 7.4681862641283585 6.110767222342352
Be 11.111584935334324 8.09678658955645 11.515728717592363
Be 11.37047358765403 10.138888453277424 8.004057870848126
Be 12.342950957484835 8.909025587498288 9.821081219821354
Be 9.368574932960371 7.68142025624578 8.497715069549386
Be 7.487399935784338 7.56188944451703 11.516117209620022
Be 10.302174188170762 8.999816247649715 9.720499462144009
Be 9.397624155197219 5.653838946780263 9.18344478568981
Be 9.378289962938855 6.984300161419899 10.813112733506914
Be 7.988172753358084 6.146337756585156 7.627712705518981
Be 9.052121970006919 7.281123451527483 6.326223484950337
Be 10.529492732420977 8.688101188364847 6.518346881741019
Be 11.582260175868887 8.078350271626517 8.089294922389016
Be 11.11419402106496 6.946254956239138 9.660975842243367
Be 10.545833129056946 6.3451645310568825 7.516001676317922
