35
Energy = -99.75746534 eV
Be 6.256403960824037 10.116858359855845 10.888021453134622
Be 10.89687974478167 10.057428193239842 10.862904084433035
Be 7.763603783511036 11.394033375734228 11.577944943152199
Be 10.537583559289885 7.828417384219582 9.827694725724132
Be 12.166200111391673 10.301462055123942 6.850765717327397
Be 8.356802977389245 7.936464838984141 9.407723557200592
Be 11.564156695948084 8.78856425211762 8.167201970720896
Be 6.963082471249886 9.67421229807254 12.726913564056758
Be 9.871468054830217 11.544216239647822 12.139267064134149
Be 7.119594416962269 8.238835725044297 11.209773378761044
Be 12.44893957371844 8.897012586662555 10.036762496746077
Be 11.923950999592059 11.237350377549735 12.510937780958715
Be 12.435341544328717 9.32834109015157 12.170535704053416
Be 8.853961521507209 9.596274287000108 11.09963768477413
Be 9.243878620511467 11.380782100140685 7.989167184095737
Be 8.730560556148694 8.524099574566236 12.965373060713882
Be 11.319092740824084 10.812924521110563 8.909802817763401
Be 11.406528170692296 12.164437781616563 10.711860095270076
Be 8.622155941120468 10.574304262437272 13.40161060504528
Be 12.700938189592465 12.174770287922234 7.448184081375498
Be 12.960520927135368 12.364436822338316 9.426029601142915
Be 10.557077160382908 9.767669641946158 13.212565648842299
Be 13.3657050004116 10.403255017870435 8.692640763666695
Be 9.00768188969348 7.26686331344044 11.200215405665203
Be 10.127255944213688 9.800667295344445 6.935746257522275
Be 10.931314628783449 12.824619460865803 8.661963929665072
Be 9.49024337173143 11.61570273657935 10.074318473487759
Be 10.664922160197658 8.164257500666448 11.926415845993432
Be 9.643610049052176 9.656895180827282 9.153468896732699
Be 13.075222366952413 10.755650642362633 10.781935684866054
Be 8.130189193979193 9.393669043997875 7.7563671032256
Be 6.611357154385008 8.904934828748424 9.226959712888164
Be 9.693401135768685 7.972313719572213 7.797938589660001
Be 10.81775889384716 11.836907545378214 6.740698670908511
Be 7.700970463271079 10.65972163288335 9.46900742031076
