37
Energy = -106.23308171 eV
Be 11.89991262232148 9.726620388995336 9.105749108754377
Be 10.80100721070851 7.9846731489332035 10.21400693118709
Be 11.507565492803971 7.505236911856997 8.33884719286014
Be 10.218051614746532 9.92083552108234 10.680175646356957
Be 9.711351507935511 8.296688812798799 12.029145444053546
Be 10.674773388815 5.962097542098708 9.635867306985983
Be 11.804961792600519 9.057129134205681 6.958747436882929
Be 9.166907270593796 6.47529208071722 10.955712145182924
Be 11.136744020401357 10.936075692760584 7.349117242466151
Be 10.358399800869798 11.370525210938927 9.198406392874755
Be 10.388309839650786 5.841066636204337 7.592945218586364
Be 10.103382772762064 9.206877417332414 8.493109916701068
Be 8.955993346167679 11.614339496550839 10.8144249603234
Be 8.683413793931653 8.4157039157573 10.220958110956936
Be 8.18877330273741 9.888183639779589 11.666821623606308
Be 8.638457433000015 5.40343463637336 9.13096669711155
Be 9.171762560528421 7.310324292256386 8.598893430472637
Be 7.748877111769368 7.725838980204885 11.951480671028849
Be 8.651277901045054 8.788156423933854 7.184352846577699
Be 10.351310058664907 7.604231197715885 6.494995505547365
Be 10.049619976270757 9.683522259427372 5.980847790339862
Be 8.464462821784112 12.202379806909109 8.888737326633784
Be 7.210942741458726 6.854308142049731 10.0439530215682
Be 8.574928444797221 6.496658499591897 6.681228142489112
Be 9.027593400404083 10.956583231667308 7.301842868364419
Be 6.880355793295396 11.03340570508486 10.288343307628077
Be 7.30009136305051 8.56912700166827 8.616992683349071
Be 8.474953561173466 10.179496899585454 9.280526470252179
Be 6.564369954980348 8.858895488429992 10.588409037595916
Be 7.074978749531248 6.427795886097747 8.066006562591525
Be 8.614596177993295 8.083404069388914 5.307815453704304
Be 7.456803576433922 9.913332899793122 6.03557182790333
Be 6.985471665499899 10.85474238873831 7.929066745170898
Be 5.495066202127717 7.798050396634704 8.547334430823343
Be 5.545801024144155 9.900296049021092 9.113777470467863
Be 6.804644003221495 7.742871335526251 6.48431354079108
Be 5.711322026988556 9.374295714251737 7.127275070725129
