36
Energy = -99.76887887 eV
Be 8.051815026763123 9.700824474870142 6.587570697682486
Be 10.249136649434858 11.653205000429054 9.163582415384752
Be 6.088513124006489 7.174859789014057 8.337853322425648
Be 11.408823067258986 6.370889647741397 8.989152693945863
Be 10.981891085598628 11.617831296913895 7.16703497510013
Be 7.887114093827792 7.515480643633826 6.972757121519765
Be 6.169847572356522 8.819257466470468 7.029881549019897
Be 8.80266243775772 11.547742839488945 7.539546128191905
Be 9.605880285978575 5.539714509130419 9.663222571560445
Be 6.864395968453151 10.125785096714372 10.336990350276194
Be 9.70929038209374 7.968229823490252 9.426544809909018
Be 11.361166171325179 8.164637119720785 7.8412925395755915
Be 7.95822931427308 6.597380135655489 9.010476820781527
Be 7.873036195629551 11.272546868627494 11.796211659116953
Be 12.82938113379659 6.579591780465885 10.556571181717297
Be 9.719494204956927 6.688423186014443 7.678217061159493
Be 6.824097644162808 7.907235350175665 10.389030209704226
Be 8.127235288411674 11.792824015891487 9.634247768402934
Be 8.05169020999648 9.047040898952444 11.817504042067684
Be 10.172675586161027 8.587626345212263 11.587403871987213
Be 4.763528747117605 10.32226937826104 7.587004706926174
Be 9.66067098468836 10.438779107593705 12.465493987532955
Be 9.086763392238307 9.926139975596792 10.120031006074209
Be 9.799687033246624 10.576161950391446 5.78685773763363
Be 11.693080428482029 8.458609757369967 10.002167920116538
Be 9.737691099939418 9.688060687274422 8.093477238314755
Be 10.762631171453048 6.609729668733402 11.062752288184175
Be 11.759057289263405 10.169106677061563 8.65455022166278
Be 7.8456782441133885 8.823510419892669 8.707643901337015
Be 8.646363740848567 7.0504289067233294 11.08287970498405
Be 11.087952830918415 10.41390258150073 10.745559799313607
Be 6.92553671661338 10.66884083247552 8.20812541625353
Be 5.516294785908529 9.037148613404796 9.102675628641313
Be 9.695856265036888 12.087065793990911 11.169469557661454
Be 11.587281802517966 9.74403107697164 6.461402538785647
Be 9.80029954363122 8.419837802405329 6.329566075309385
