36
Energy = -102.01415816 eV
Be 10.204386687233926 11.007386072291814 6.228665450652175
Be 10.207800180871555 9.597643373516302 9.544028210248108
Be 11.378501116312039 8.165633099713935 7.990171102527531
Be 10.405691226714682 11.861837143651186 8.109763777181543
Be 12.255287875781194 9.14291534882174 9.571710487631051
Be 9.34101618916542 8.824342944203671 12.800247125244857
Be 9.463362269900232 9.596564187968283 7.680971717014577
Be 8.447841431911877 11.711720562788253 7.61961215041377
Be 11.380514184892766 11.170134253577727 9.769900308885473
Be 7.729366977297242 8.039112621285463 7.489293467486394
Be 7.221260577949219 10.063648676120472 7.137868726203377
Be 11.43091952594438 7.165270714637756 9.915488972327072
Be 10.961778223665217 8.725653495092008 11.27420301460835
Be 9.758455373645065 6.933145302583627 11.342948963293253
Be 8.274322151175063 11.080179437130951 5.681208526721487
Be 10.766426467210241 6.188695705116414 8.090425411534556
Be 6.474830163811036 9.091550174111676 10.662878209786488
Be 7.163041133424878 7.450027849044278 9.549204865603738
Be 8.703442525799183 9.078252093703401 5.81505198005402
Be 7.714477641630171 10.75921148793282 11.06994205275489
Be 8.618461535478408 10.74574378166411 12.98489232839075
Be 8.031975488489508 9.484520132188374 9.146690208832563
Be 8.61152804424344 6.043512975589812 8.251312500888313
Be 9.640040223052106 7.466780316626486 6.928086500320505
Be 10.843044609024295 9.025997102278993 6.176984139287445
Be 10.089591781646842 5.496435114765043 9.819077367887918
Be 8.234335213288853 5.931355611860272 10.369460952465005
Be 9.874846546665559 10.554637628139094 11.391754995476614
Be 7.30606124195016 9.308641978383731 12.548457863304426
Be 8.766402136646057 8.767460353781454 10.866192075724319
Be 6.911981708811836 11.1235325905238 9.020784034160503
Be 6.117050962019685 9.049921063742358 8.583130987107866
Be 9.04316438841819 11.578563429539143 9.664762912231083
Be 11.632202677379677 10.237510302356924 7.814150155154593
Be 7.5331574788725755 7.376328850738178 11.729809889053817
Be 9.369386409736979 7.75542113622068 9.118995570606277
