39
Energy = -111.1353794 eV
Be 12.03488975817184 11.896158175476264 7.775346066325924
Be 10.035992976912798 11.270545089362312 7.873439502190936
Be 12.787905656909892 13.187171641499832 9.426597951142583
Be 13.187695030328774 11.07466780713935 9.431642131016455
Be 10.819310902237268 13.601046076591409 8.433657396990984
Be 11.108781104167113 11.909249131762179 9.606730580977047
Be 8.920626359832118 13.02983208997754 8.100166563123931
Be 8.776181784274316 11.679945729941865 9.64826384777634
Be 11.663122047375584 9.926833904517355 8.54630318065096
Be 12.354591843612535 12.110716485393743 11.394159140732626
Be 11.255004129831912 13.9797827039175 10.55620935665887
Be 11.231234759123343 8.326103127277081 9.908544433328098
Be 10.241532876348376 12.201625668949845 11.38465651974997
Be 14.542503267470767 12.565603293486719 10.315136737007034
Be 13.168447874461572 9.073853156177394 10.144254513867033
Be 9.277250781979125 13.740171666094115 10.016674826873748
Be 14.682502175738852 10.601348685479008 10.77718308224172
Be 11.479433994540207 10.228910775726924 10.682685658386873
Be 9.741203100647821 9.870395657622032 9.488882407925633
Be 9.8779175795744 8.923113818181678 11.410384144462073
Be 8.779708244584802 10.625090078957626 11.476080653468653
Be 9.636590286154902 13.950433059842116 12.242527398191946
Be 8.212918773332106 12.663623309644816 11.44838429977115
Be 13.180702736434293 10.139273875899 12.070014586964064
Be 11.702852286523903 14.498969870498126 12.471785231972627
Be 14.397980524836296 12.052493498663573 12.324667300806428
Be 13.426709323405431 14.062890835322463 11.301542250602655
Be 11.920168229944304 8.419559594817226 11.948695160164878
Be 10.047682878411615 7.740962807183588 13.052397583711775
Be 11.065183275015588 10.628082723708937 12.574466085580445
Be 11.047295211429047 12.803027816245379 13.482077322784246
Be 9.170332862682145 11.875154432211138 13.22473208118206
Be 12.719355795230959 11.532919026970683 13.565647000331289
Be 11.80004828496869 7.493367654407557 13.99211706104815
Be 9.212846742344732 9.700859904364869 13.348471758930977
Be 13.207493964545542 13.470396747292048 13.29513969081646
Be 10.426568709277197 8.7669447708527 14.791608087511714
Be 12.240019071059102 9.488468520396989 13.939687443226905
Be 10.645844885591751 10.916836877457527 14.55547105081693
