36
Energy = -101.92776147 eV
Be 6.069727983499975 6.181876503692976 3.548113901599976
Be 7.700460261675332 5.913369631397021 4.75148683436606
Be 7.772779812086617 7.865137378616399 4.074284810492586
Be 6.842057471827522 4.066991066818058 4.589968554495676
Be 4.805461792200374 4.733174813826243 4.312256570698727
Be 5.635372784274886 8.461918097919595 3.735129270373712
Be 9.566673835787629 6.644861044545068 5.294283103284901
Be 6.117198936005903 7.362149441634335 5.229449275558852
Be 4.285028579646456 6.74703288561961 4.565826861903898
Be 9.084304648749457 8.805760306908986 5.47057628888381
Be 8.892359583260017 4.469414728022371 5.502238052477992
Be 6.908564553047529 9.359986742285272 5.36017731445149
Be 3.922865780147755 5.075059444186729 6.240117327886793
Be 5.245696463061141 3.4600453991303888 5.8847632832570875
Be 6.01279948582791 5.538820346481434 6.022207784729788
Be 4.778647811048961 8.9129339490536 5.681088094468958
Be 9.659021213671776 7.513123452627168 7.243666784361826
Be 7.857973407900995 7.443520952075395 6.218076231648486
Be 5.8318975034455836 10.071893313133513 7.197405842911143
Be 7.919058297724734 9.318903144723619 7.2512034093597695
Be 6.195511262874425 8.185439218342617 7.055063893564448
Be 4.417682243676396 7.038575150551696 6.600380683052759
Be 8.022565551525481 5.636864925009318 7.049874318035445
Be 7.142082020481085 3.743769632266795 6.688277875469786
Be 10.12545950731075 5.525058344264232 6.951577467272735
Be 4.470233997260936 8.384257824675124 8.151366177592758
Be 7.898809954751965 7.564464809989396 8.345340322058988
Be 5.358369378329706 4.342636237127839 7.789632752491193
Be 6.37617355738573 8.748442670271821 9.0401573884486
Be 6.1398972509650775 6.412908692725274 7.97194197268687
Be 4.055102963066745 6.0599037467865875 8.374758764722936
Be 7.273661581622761 4.700031073138328 8.807799926602394
Be 9.086172322753118 6.009488332933761 8.830375144107574
Be 5.150604621502516 7.258802834483888 9.799979149946587
Be 7.175666647109781 6.49560533855983 9.933552424037527
Be 5.481293984559104 5.225015576241672 9.714839192763836
