37
Energy = -102.79750157 eV
Be 13.113145788812608 15.99136778987525 12.558047004629728
Be 16.877278609253562 16.063163728687936 16.19541493592959
Be 14.68204441490019 10.863634379027307 13.059441478047667
Be 16.580759652496564 16.113212733176848 13.585650193333871
Be 13.03587735751961 13.945196836253078 13.232084364679471
Be 12.85324818571118 17.760135371467136 13.69074288417887
Be 12.294804185843969 15.6153112537715 14.35776131064831
Be 14.51460577479912 18.772579275079487 14.57667583732986
Be 13.882194182803158 16.799204333618682 17.984366214765664
Be 15.787687956879113 17.119276206780878 17.474801067129835
Be 14.319842481182855 18.518236327028905 16.758723387251198
Be 14.809595005723468 13.043962757842278 16.360080729054108
Be 14.996938486664408 15.192552855777773 16.943191859713345
Be 12.333767837095657 17.859567290448094 17.144955728432038
Be 12.946072038289246 12.541422006945618 14.887670189164568
Be 16.271856114474755 18.257684255316015 15.833388782455629
Be 17.918379449515818 15.034451780757667 14.770153775783651
Be 14.854601722889095 14.973996251558926 13.183623067023907
Be 17.8359547340362 17.217443528885227 14.867642916313754
Be 14.823244034649619 13.037460547427674 14.23246193737312
Be 16.47056338942198 11.898242185727886 15.898659032878104
Be 17.73609905459233 13.007701467766202 14.864715825459283
Be 14.746382464114248 16.56871967132813 15.18619857695727
Be 14.756353631022412 17.182277140067303 12.982621736339425
Be 16.913990101326924 13.90496527336731 16.60361714718916
Be 16.42791793485981 11.736571272689263 13.742280947851283
Be 12.977320264839957 10.570143504588705 14.16274812703317
Be 12.69819807992331 18.976935565841334 15.490380917347318
Be 16.710872612233445 13.87208954049788 13.284222787962515
Be 14.899735833155864 12.8405794424717 12.250710122217145
Be 15.834086431145098 14.669151403846952 15.046115019838425
Be 12.828995796419532 15.875398468548573 16.477753725685677
Be 14.67380958657981 11.163815897879362 15.193292161130028
Be 13.77807174087773 14.511853354355367 15.250053702027165
Be 13.012051904783458 11.97255168700855 12.734666174486206
Be 16.341256355581006 18.1848474359794 13.821478349330382
Be 11.572607027608191 17.31957897658469 15.336985245133578
