31
Energy = -82.93326022 eV
Be 6.923154480464335 9.624307651700127 9.952734551099415
Be 10.47853483951209 9.155386853458284 12.210225234799307
Be 7.936618474929459 13.350471696808164 9.400425879652243
Be 10.198786493508889 11.521666540952468 8.595520448758815
Be 7.253306345592446 11.753750900374035 10.400426015239601
Be 11.99495621693523 7.89264391365315 10.19636769320769
Be 11.259440681372697 11.36042673709261 12.239479241327148
Be 8.910727501430733 8.674201999209775 10.750382606717633
Be 14.17180895498349 10.179294703654438 10.312962241595036
Be 7.194302086190754 9.465654695979637 7.903798201639762
Be 7.017242346010484 11.55295638794002 8.373756098376449
Be 14.43409157914908 10.358994298496823 12.283224622321544
Be 8.610915824833135 12.777226193789154 7.62696122944466
Be 9.256621419134534 12.345263158989138 10.766887131299333
Be 11.450305869985439 12.078830494262466 10.216615869209363
Be 12.145750742173199 9.988949401291656 10.799576714808383
Be 8.365754146611971 10.452792591236424 11.549157486381107
Be 10.801850982354885 9.386426489817447 9.229568452495398
Be 10.329143014061446 7.216744994464813 11.221933792131672
Be 12.499876552028091 9.671985052134453 12.943403663539598
Be 13.70452453366801 8.587197494192335 11.520291317002167
Be 12.013747124319867 7.761918253281897 12.274728631777784
Be 10.166052943508854 10.56438363936833 10.78026089317446
Be 8.764570125580562 10.280941714699795 9.330470323135259
Be 7.921241525795206 7.950240439712106 9.109610643995035
Be 9.235269065494762 8.828281806086366 7.8052766204985495
Be 9.94748551282249 13.476795959365596 9.087977279199261
Be 8.596224354595643 10.755834372271963 7.211675871485075
Be 9.990118006655697 7.5028637155306805 9.215540533888563
Be 13.10274738217032 11.602174670576174 13.286628054984032
Be 13.23882590602599 11.795388211508884 11.318127688713993
