31
Energy = -86.56416133 eV
Be 10.858337558048975 8.505140033405352 6.658789372890675
Be 10.429571793585652 6.516896688373672 6.689966142699493
Be 9.162955193842778 7.445916872701761 5.277939895843489
Be 8.477901565289718 5.9455997212910106 6.6195215727689884
Be 9.623512488636017 9.480664644087682 5.296937895465004
Be 8.723517519198113 8.18658963779618 7.32093465785803
Be 7.685791345361902 8.8339160763804 5.3742908464209735
Be 10.811029544719787 7.300732088193678 8.538134160766457
Be 9.562860178888062 5.503912022310839 8.383551395920348
Be 6.886668090483876 7.243151376747105 6.545315994508414
Be 6.529858434502004 9.276393152215006 7.05659790053272
Be 8.432539918197742 5.3970946793190375 10.163961865411775
Be 8.767021193085393 7.502897087801835 9.286813535050353
Be 10.274482576021258 10.501421461968805 7.000234295889292
Be 8.243240529006512 10.399245499719473 6.785444583408842
Be 7.4315250046796955 5.986007071778441 8.377699805171396
Be 8.916030095825064 6.857654525732968 11.515973608380634
Be 10.345063503551327 6.133000356405524 10.254222689310673
Be 7.840773691443442 9.341192312163072 8.88031260268386
Be 6.442035505472903 7.772997925040172 8.585661421048849
Be 10.071172188413685 9.267366190510971 8.672952758477917
Be 10.271120031900917 8.221345629362391 10.599125563565954
Be 8.946011025906042 11.157707113815952 8.60964635642179
Be 5.31504828440138 9.523201002647331 8.674785654121777
Be 6.76385001774807 11.07483904560271 8.27651167922806
Be 7.083242428014064 7.034343076884055 10.46237795137263
Be 8.203953522561957 8.852064362846336 11.121147984144985
Be 6.259899963864513 9.03914053901373 10.429844713525998
Be 9.568847517616986 10.20209068627325 10.40232921673095
Be 7.631518154194679 10.875976203527905 10.318422774973573
Be 5.598036264290082 10.967050105844606 10.00704153562661
