39
Energy = -110.32086962 eV
Be 8.20651917322855 8.838420024342158 4.270270808614009
Be 4.465206970062678 6.579137861568443 4.808577312876736
Be 8.51614691073544 6.776526524183591 4.937929189323911
Be 6.4096066364786575 7.715179133419625 4.948361100684404
Be 6.399097056696975 5.447246244043811 5.262296031193473
Be 10.01533877985089 8.263540683631463 5.586308233097073
Be 10.464000975386526 6.1109222014497275 5.934941852101081
Be 6.523851524935649 9.898394000499223 5.53303579553821
Be 8.60850597528304 10.363874044983115 5.811291666685137
Be 4.509129881450165 8.538849414866105 5.8467273097255585
Be 8.622657404480085 5.098756717685477 6.4136847302425615
Be 4.483120870355273 4.979967722219676 6.258802358706774
Be 8.046690106338193 8.512787641221102 6.189444876705271
Be 7.312967302640384 6.631896694597141 6.641141192636928
Be 5.36118397161335 6.757560143154822 6.606150534353179
Be 3.3431178528131205 6.8346161446343325 6.61026935488294
Be 9.161331287333859 7.066542657949392 7.043158250634015
Be 6.212194596688876 8.470196879742364 6.998689784992206
Be 9.535666972999755 9.230956441546484 7.561196683552055
Be 6.308166741517222 4.960992233628088 7.438393668557674
Be 11.052570666959635 7.603689194041728 7.669329296162819
Be 8.499389039491934 9.346412435435502 9.683805487847506
Be 5.15606700913246 10.072541558695342 7.348070027164406
Be 4.480936166304785 5.83121532447654 8.297817049563662
Be 8.103483147504349 5.696992849023865 8.429208240516006
Be 9.328057831980086 7.391841674201897 8.960511593825464
Be 10.630178880731874 8.890468785075344 9.420207007012742
Be 10.226061093951849 5.571613808832504 8.063395038943955
Be 4.375866159214118 8.116863109735524 8.048772120580418
Be 6.255695604003318 6.9417463403753725 8.3833119193478
Be 7.7856869301146885 8.215523400914533 8.17527616851314
Be 7.415079028110072 10.173975460424808 7.584826747460264
Be 6.417491922881369 5.417351777111307 9.64952888911036
Be 11.023452710787321 6.693842886162306 9.674401194357428
Be 9.457120014797159 7.904024744868337 10.903536105943205
Be 9.03924666946062 5.859514018283143 10.282165604205746
Be 6.142106463489597 9.023818069255787 9.095120056752636
Be 5.102178466587478 7.270886578764779 9.920103125140649
Be 7.433628423807698 7.330111795153399 10.13874081264546
