33
Energy = -92.48500669 eV
Be 6.180690514916457 8.900419559631628 11.67942811483649
Be 11.477149027686735 10.015699215460717 11.977403349932441
Be 11.258116519328963 7.737856750489227 7.488638892695816
Be 9.470154145463463 10.206567286200581 12.15051149505196
Be 9.47207409363919 6.651229865313659 7.920747054376191
Be 8.190780533230386 8.531002520023955 12.367943040993236
Be 8.58786730665181 11.341382623346455 10.65710156491294
Be 8.340923210338943 9.12484541519576 10.2585219168632
Be 12.148413457217067 9.0220534328152 8.806757195248249
Be 10.838516238883082 9.89819372274761 7.2038537073467
Be 7.561948279392471 7.199308601892636 8.830680479016992
Be 12.207332091248059 8.540081595601578 10.789099309417468
Be 10.155191565164095 8.336612029316338 11.3268445730912
Be 9.757606138390331 8.092087645103222 6.228241798321767
Be 10.98183470740064 7.440057932048676 9.521326857057813
Be 6.616168703655531 10.3678267591726 10.132599041155135
Be 12.46351057748448 10.915279936281083 8.280922543191332
Be 8.35996376482472 10.712868288247797 8.73107348524845
Be 6.007185583336426 8.376489825552255 9.708722895332077
Be 9.392380034634714 8.680678131048968 8.50516120032661
Be 7.251820815108987 7.298067795383492 10.948924734412602
Be 9.753537836123735 12.382120261025003 9.205975262854624
Be 10.63081460400991 11.757991436668252 11.157031426394024
Be 9.109764067296457 6.971991639020993 10.130134812694088
Be 7.396839491752652 10.429194549368004 12.122164868847955
Be 7.912875496330487 7.745728553925471 6.903689906316614
Be 10.346020347232697 10.148038855407561 9.696751053798602
Be 9.41285950373877 11.584133981691316 7.277098518929101
Be 11.845241019872816 12.397398365153098 9.62135509391509
Be 7.101053783900026 9.210400177961855 8.211906622001809
Be 12.561546607469799 10.543647570056045 10.358791439755889
Be 8.617264836391389 9.731330074724578 6.753136465723378
Be 11.208848263652177 12.32570876989085 7.663754445707467
