34
Energy = -94.78061143 eV
Be 10.869910362721773 7.908983462983777 7.93547397187757
Be 9.607227995412227 7.684086646513494 11.35699494139168
Be 8.678141649562349 8.589657900732623 9.469000182649825
Be 12.328212911969063 7.013524379107505 9.054795408257968
Be 7.782941880029134 11.909777935610853 9.035023828748397
Be 11.678358484590996 10.97182505874146 9.082979602449138
Be 7.264910142829846 10.246321033784414 10.29223617357904
Be 10.338610433614715 12.81708647934976 11.76122724673538
Be 7.381818777937649 7.779240198540093 7.984289758294725
Be 9.021452120291363 9.689464237347497 11.279951049131544
Be 11.960661354625323 7.8651872454491905 10.892374628843498
Be 12.070918241454276 12.237584201463712 10.678207531746812
Be 10.656088444688095 9.094536144156438 9.880776845420765
Be 6.484582223944579 8.421240386218265 9.65085374826483
Be 9.720612398618584 10.992849668770528 12.743427195688543
Be 11.90041770704568 11.128134800122396 12.474559543315475
Be 10.542522387266732 10.958358698675632 10.851094125171722
Be 9.065975042722162 8.867595427773981 7.316343482319619
Be 12.472681526036972 10.014951277919437 10.764512795962398
Be 10.859760596410304 12.369495135971796 13.683858197926618
Be 7.555966354996473 8.2632479373216 11.329712132128192
Be 9.140471843920245 6.822584220588929 8.157623720782533
Be 10.68701337575741 11.997246209797762 7.61960438279643
Be 8.96510543276788 12.93902242457753 7.726164264701543
Be 8.085374516826711 6.712366205426617 10.00136910223118
Be 10.861232047971141 9.917367975556397 7.506798524069175
Be 9.374674411900035 10.570308885332821 9.135551483339405
Be 10.94094588615089 9.294710346793561 12.12882954722011
Be 10.078419689150227 12.6111369826195 9.585216521209635
Be 8.906021910865165 11.010161798175501 7.047096741267692
Be 12.505265356176713 9.024352700327402 8.852327081149397
Be 8.620595515518211 11.792788761757498 10.992521728181583
Be 7.377919754258335 9.918585741912642 8.178736020379596
Be 10.39046131509055 6.741491583701618 9.725740585889648
