31
Energy = -85.27612297 eV
Be 13.059694338431882 7.300671059780927 11.957261890192
Be 8.627419249336535 9.11220020723261 11.208824265976286
Be 10.160226637858514 13.594687182989448 9.203878127745055
Be 13.126391119762904 9.060524460107846 10.909214683160954
Be 8.355009636703585 8.400580289293295 9.25273075237773
Be 11.881641926439695 7.159216972204736 10.205447120826902
Be 7.806007742212331 10.517431822699328 9.308903026348151
Be 12.182016906080262 10.764765019638837 11.72259466341691
Be 8.380299310232498 11.105993458761176 11.19770732020664
Be 10.09895874319346 10.474430619844613 12.249453426387184
Be 9.71843441657958 7.378650374283472 10.61216325798634
Be 10.834494166789558 14.241186735630492 12.20097000092888
Be 12.02304976666184 12.991098401712302 10.662832904544995
Be 12.308628165976389 8.77031593468511 8.955969941500076
Be 11.386539294143637 12.131239029688379 8.576532429559746
Be 11.954903738763289 8.914528516593045 12.78333995116644
Be 10.995443456301494 10.132247120960733 8.004693882227619
Be 12.149132093219999 10.646455300339325 9.719423860173046
Be 10.437328217016631 11.750350403568227 10.531182491964417
Be 9.37587232166847 11.685718937342989 8.402629332527136
Be 9.812231102013513 10.008749391447667 9.723694749489011
Be 8.960312774344501 9.669912548099612 7.81077093455819
Be 9.333723142913836 12.768108846599992 12.08629959086253
Be 11.181007452853255 14.948204224897673 10.385114509688757
Be 9.295718528465946 14.490688361319421 10.872913259134364
Be 11.062766772058424 9.033489609923386 10.88059559057915
Be 9.9016965904705 8.387313585141737 12.650471307675707
Be 11.143683091891493 6.950725576700039 12.132746998246088
Be 10.369601790540257 8.134760578525468 8.752894676296316
Be 8.406949393599378 12.736964859930119 10.003337453543237
Be 11.269704096867756 12.337676553450308 12.634293584102144
