39
Energy = -111.2560603 eV
Be 8.676853914797107 6.002143203314414 4.431271473855969
Be 6.551075784743251 5.947610714715307 3.7394210128039997
Be 7.342805700424093 7.99220437851169 4.161531195806914
Be 5.283290491006047 7.531328510876749 4.684785656539844
Be 7.273206804953927 4.42152936132009 5.1396262908955235
Be 8.13390392007877 9.809269539479494 5.541083228656114
Be 8.769488231332138 7.710238853746683 5.835964037633919
Be 7.0131364046174145 6.446714687925824 5.579234563381353
Be 5.149484121423371 5.429246777600329 5.323932736729276
Be 6.05524318237729 9.649281530268594 4.829144218008006
Be 4.668589820266035 8.817157714732204 6.324040935530191
Be 5.47803068495293 6.922040149545379 6.816996044226766
Be 6.416242923553409 4.959297437754287 7.071359228219574
Be 10.253829226005838 6.170173607753966 5.881902833017885
Be 6.73171536315576 8.384020108007912 6.149425120341915
Be 8.47557900845295 10.853506759356081 7.365040103117623
Be 3.6680839531334466 6.841950932227194 6.07410820762576
Be 9.37330690937309 4.259149928166891 5.399959333039888
Be 8.46518004110077 5.606828817507371 6.611042009228856
Be 9.833952585380432 9.314865268966646 6.810630325825122
Be 7.562216403818338 7.001864146611271 7.698266703452055
Be 4.320401029851051 5.3393718592555235 7.5316631651685615
Be 8.014398299376747 8.913426898411334 7.536812702836303
Be 8.129280144560813 3.676401013837544 7.014778064415918
Be 5.9138439000928615 8.590904958224362 8.143258526815291
Be 4.023167673842709 7.45080524860106 8.19117169718005
Be 9.783913739146573 7.29385498399875 7.687409629592378
Be 6.463350877535001 10.320052544301928 6.8829133857956215
Be 9.75387412636237 5.190018981902848 8.030300405399474
Be 5.934410808091805 6.4009210174712425 8.665244200756694
Be 7.770108550484342 4.998313933382116 8.73018124784376
Be 5.668530697489416 4.4452055947126965 9.009276034288662
Be 7.217907640981953 10.117282313925765 8.926131642062932
Be 9.236057127689682 8.791321944742815 9.08543304128871
Be 7.332685358713422 8.04461432156949 9.665028924508746
Be 4.202443320134412 5.870594619656167 9.582928518498342
Be 5.2018195182833225 7.748339678893991 9.969895423922198
Be 8.915929095257418 6.63669857444416 9.51410432061004
Be 6.908955825854797 6.067742292976324 10.330997019775738
