32
Energy = -88.15917086 eV
Be 8.567997003605864 9.164550537255124 11.698421408208581
Be 11.12619658755478 7.197779082495825 9.111848104709411
Be 12.28777561356541 10.780826090568837 10.207256813041482
Be 10.194786556321857 11.206960873000671 6.981490889784003
Be 10.662512978683097 9.407028098888652 8.614703105045889
Be 11.680378418255643 11.525459659933285 8.398512696546696
Be 8.537309329124449 10.003659286726224 7.395443972513852
Be 7.5839849155580445 7.011756713606619 7.977114186263253
Be 10.136928903729988 9.174642125963329 6.349310676564518
Be 7.348918141320224 10.899041395393263 8.900977377464672
Be 8.451050266916692 11.148549281640603 10.758211026007382
Be 6.502444934808095 9.504759003292133 10.151205308829637
Be 9.43090771984019 11.155140385689855 8.907213092981927
Be 7.1553998206463305 10.51119562230707 12.38860711455906
Be 6.380945308598709 11.481452672316351 10.796284172500544
Be 10.11229831369189 7.946603179337647 10.717779255041938
Be 8.954127400305635 6.690513960265159 9.47486903379812
Be 8.650806547392335 9.075210084976577 9.423830754780239
Be 9.669118707880893 7.576735520701195 7.645759872268266
Be 8.239765329983811 7.15746687925747 11.364222203203905
Be 6.918275195272152 7.502881591623682 9.861239509619525
Be 10.705281447436661 12.051797030693159 10.18074704854094
Be 13.07844809734552 7.679854502897597 8.817627238336092
Be 8.086175304522715 8.28378598151324 6.48701815152889
Be 12.039982398783293 8.74708652490775 10.29272948241492
Be 6.805899213877503 8.898795467829505 8.147900500657427
Be 10.300941514960613 10.049389189026332 10.709110622883202
Be 12.916054105818032 9.678968874350998 8.547661363501259
Be 11.797178714930983 8.1443582324746 7.294455116265317
Be 6.645478259657302 8.399853197315357 11.952404846308712
Be 11.935796159012853 10.150520629212377 6.809295726418804
Be 5.323874321172437 10.020415855114207 11.863786859986075
