35
Energy = -97.87201965 eV
Be 11.496645784435222 7.586800404406965 9.899849618507247
Be 8.447647755806015 12.245206941553272 11.45614785913049
Be 10.06246902468183 10.582425507345011 7.9338719435668015
Be 10.804733659678236 8.646392440861066 8.122073824307087
Be 9.986781588065472 11.953691440425409 12.925391628047988
Be 11.12374406817754 14.298107156029872 9.82018736935907
Be 12.244568570591449 9.070329232436725 11.594292418071912
Be 10.50778886301813 12.905254650381346 11.201726004642646
Be 8.517600432362348 11.449334170896309 9.411067507866026
Be 11.214910927197709 9.746446897638847 9.826251273859082
Be 11.830764094445572 11.226138044844205 11.470156001837436
Be 9.105918024438518 9.351539605361014 9.428319561632167
Be 8.555858264626051 10.55483548249275 12.911242319832704
Be 9.14355525711873 13.421551805319316 9.708075058184454
Be 11.55008802775571 7.070364529381256 11.86988354140155
Be 9.626113148113202 7.333035577723883 9.155835485577928
Be 7.913626397092039 9.953769101142214 11.031430136595134
Be 12.08735704519822 10.373393957822307 7.958870538182429
Be 11.305304213459483 8.195473395273739 13.463288030874324
Be 8.24485017379364 7.757388960057338 10.776650016712429
Be 13.234794971575043 12.011574606789116 8.304633104634284
Be 9.825352715453844 10.805498637669283 11.00534819816625
Be 9.364299004491393 12.522418583302432 7.845264150715888
Be 12.698526204617535 12.809533364364885 10.20847681404788
Be 9.893009184548182 6.452472636943266 10.9721346766976
Be 11.389139802582124 12.28207159198359 7.261116554445887
Be 10.901552035125619 10.133597053548858 13.026290058053135
Be 9.529080269445926 7.208040959494472 12.864229943269633
Be 10.450642912141324 14.185827836302094 7.990265895762453
Be 13.059266183876009 10.685735722072819 9.877515357324475
Be 12.431351005491194 13.866113441844444 8.31943134871766
Be 9.490178700345679 9.027759297754276 13.966311957561924
Be 7.979130239081719 8.605193749257126 12.618612443907914
Be 10.041026683044063 8.765340723803483 11.398576693885998
Be 10.949585405868916 11.92460313122084 9.384443302363787
