37
Energy = -106.08833332 eV
Be 9.07515342993981 8.740721323406254 5.527434228158083
Be 7.113253585141886 9.019592120749142 4.766758235043386
Be 8.112179488049502 10.69880391265093 5.563485331573683
Be 5.832682776629964 6.916048993576802 4.634537909186027
Be 8.14187010495291 7.039702814206164 4.777792096693563
Be 9.086144141679604 5.2425929535754525 5.3787133172951345
Be 9.6228785222134 10.405400876958213 6.939070175924052
Be 4.142518556872173 5.1930531687628365 7.458208452168816
Be 5.151044821620624 8.808764420854278 5.460007711634599
Be 9.91258662811195 8.41506320365239 7.449958274586239
Be 4.969189758872141 5.162471631458793 5.599353826927301
Be 7.884087482194174 9.008879946043361 7.228543615865615
Be 10.257448714053858 6.9004542013185395 5.886622042406056
Be 6.311408379724824 10.207929791127796 6.496932574243392
Be 6.702397074179102 7.692183923841304 6.310061569286108
Be 10.220403876513021 5.037492479349117 7.020994226372836
Be 7.0003055020231715 5.410119591896256 5.54027640173294
Be 4.571292103197077 7.008871366234333 6.4538893008260665
Be 7.919497939070996 11.193547532002517 7.588568405177267
Be 5.921897390368015 4.102481696685439 7.261139398056834
Be 8.132740642051274 4.667111101555345 7.211280955436354
Be 8.449193873858446 6.812106628272472 7.084514543900056
Be 6.348099219876463 6.068348035352672 7.434016596097369
Be 7.068904423122274 7.63408034596253 8.55418855664217
Be 4.723475343401772 6.911440745142266 8.667935718309984
Be 6.753451216031151 9.887525759499585 8.79390892816751
Be 5.535084179498105 8.542344126689636 9.775764659387981
Be 10.769769428619146 6.681871027538292 7.999005373213224
Be 8.863733920164936 9.755431062453061 8.959523464815193
Be 5.220089911680697 4.963931236109702 9.163697205980064
Be 8.155034786111983 6.501982290259769 10.439419302507622
Be 9.3147055263931 5.545411712731527 8.860551702853758
Be 5.364634867362144 8.697777657605808 7.6171809971469076
Be 9.376618635481188 7.751860265645821 9.356325246138683
Be 7.257105966087987 5.177811268550458 9.087498300710367
Be 7.596570590789843 8.562417050481354 10.373490432141814
Be 6.112593059283094 6.624419603020474 10.269396788614207
