33
Energy = -91.9584444 eV
Be 5.84269390391003 7.155717478456264 4.156078566892316
Be 7.495412915853413 8.293408418610126 4.846559056369807
Be 7.485253258142198 6.066991329514473 5.109063589249813
Be 9.282426853632128 7.323607339676022 4.609871056133033
Be 5.404911055983424 9.098936177620049 5.077838996087085
Be 5.30813270537209 5.708700960066812 5.500987893784383
Be 4.145477753979271 7.411333802714701 5.522495336074713
Be 10.47681193704445 7.356558444501767 6.287524469893248
Be 7.152972573245683 10.249751518134403 5.175062627689904
Be 6.1723971642137 7.534921544718587 6.188959108959104
Be 9.10572600536775 9.010619621064793 6.005077660962728
Be 9.600912679190554 5.608185450174369 5.643392827097376
Be 8.244246417833397 7.240364776052371 6.803552022036628
Be 8.312031593295298 4.817772209652366 7.088276180045209
Be 7.2028632390217915 9.266706074445347 6.9107817595035534
Be 5.504085284441115 10.431218478485869 6.631571578747624
Be 4.563051906093718 8.686775426329554 7.203061418774696
Be 8.0707768622669 8.895822055058048 8.733571551628788
Be 10.07897765126839 5.798813143389079 7.701718516455615
Be 4.6575142343127105 6.5867340778222365 7.474231043993282
Be 8.070537854138474 6.474648439030717 8.680527860477989
Be 6.5412547624795 5.778873021177795 7.2092612618176215
Be 7.0570868278715935 4.5569148648608575 8.88781443273031
Be 9.81749176790789 7.815604870892632 8.27413790546476
Be 6.503820117530272 7.654037069789037 8.117620561165124
Be 8.789163036377357 7.81914584297761 10.307135875403578
Be 5.90879608055343 6.17493356883171 9.449179241284865
Be 5.979900620470654 9.57604253147641 8.602355184667534
Be 9.079063590888197 4.512766981105273 9.064443598048083
Be 9.931636061121 6.2330038488981545 9.758525466036996
Be 4.737088343102138 7.91452527258923 9.189497079531433
Be 7.707644252040891 5.959205752140408 10.599176254772402
Be 6.746597383317523 7.964116302008965 10.16740671048804
