38
Energy = -107.53978802 eV
Be 14.972535031908718 16.114997421938746 16.226058560788474
Be 14.117597448197095 14.404704592068148 11.230166108954831
Be 16.743471181979917 14.837622398297924 15.424971612825976
Be 10.581288602042264 12.956057802115735 13.211387510129757
Be 12.497388379418004 13.219537274268108 10.280030744069428
Be 14.535800768744357 14.295064991149125 15.162980880206812
Be 17.537691717533747 14.899891403255605 11.203872580660999
Be 11.571103914369063 11.937037876823299 11.429320138251216
Be 16.105662423163924 12.112368735611266 12.831982789899675
Be 14.087973640316664 15.173404430465517 13.175744089756462
Be 17.556995813651657 13.104407405811363 14.335310585618627
Be 14.19241772613156 13.062143732725037 13.379728822265681
Be 12.658617551210426 12.966767425996244 16.78697917285662
Be 12.41905033121902 14.090608044929983 12.26647440989593
Be 15.795327479390368 15.546921545400625 12.015913238799694
Be 13.846180618546834 12.25468322777703 11.480904426827166
Be 12.521616856629999 14.190785553557118 14.369975975010892
Be 15.925619101745683 14.117554964665723 13.533992607727116
Be 17.72726022169942 13.256954976946968 12.287747859197006
Be 11.400351782089036 12.504162018269076 15.166717688571149
Be 15.63418379645831 12.433981918206474 14.893710738485792
Be 15.619802316851986 16.11701833229967 14.181981527928976
Be 12.301377756911235 16.09849983671286 12.986901701068689
Be 15.901564097955461 13.44101950166283 11.242488002521135
Be 13.523125106077579 12.171787806700305 15.148410214703736
Be 11.370415801098012 16.10165307056086 14.853405316694614
Be 12.410116709049177 11.994434276980968 13.281051359640555
Be 17.638060358608715 15.13087172504785 13.272160544431832
Be 14.752387174480798 12.74525219921876 16.807367977310687
Be 10.666549960383005 13.775215223730571 11.269758076928758
Be 13.534729721354138 16.53118997406268 14.64519029060186
Be 10.2672854293494 14.230544320809114 14.908257540024186
Be 12.80672074279726 16.27903829094386 16.497980980177598
Be 16.87367099773735 13.01566447077926 16.379267095248004
Be 13.701742402858825 14.63427930109138 17.338356947514757
Be 11.582469801502452 14.635784824524826 16.437525438104707
Be 15.768850472822662 14.490545583736678 17.25229318106168
Be 10.579907042786855 15.01432604423726 13.073003992762967
