30
Energy = -82.14327989 eV
Be 10.418431978036878 10.291358744220958 6.6439683048313
Be 9.243142801905687 8.515236994182708 7.8506772131806795
Be 8.550867720999392 10.823790615374332 7.402702269379812
Be 11.975643849593844 10.913828753270728 7.845187096497958
Be 10.312017004829007 12.188598593242434 7.668563227909376
Be 11.531968793698365 8.866067699971738 7.782123990074136
Be 10.815920591032011 7.032353547296278 8.342922340358426
Be 10.151915509244052 10.225123939246371 8.681863654478358
Be 8.000288072822636 9.80536747494235 9.17023228313157
Be 9.798017654284093 13.499935773771666 9.71040800680527
Be 7.8676390740123106 7.806504719807747 9.570509913720878
Be 12.309502720576658 7.880885830007236 9.436922802205473
Be 10.001439536231894 8.590460036296955 9.947375943924305
Be 7.001139248874562 11.73896738155755 9.07584812875869
Be 8.912871530004269 11.884207901781691 9.099371111171122
Be 9.233312308021777 6.364630732001346 9.37532549714472
Be 11.17166901014422 11.905902570356277 9.661353388815042
Be 9.946309586139286 12.410434363177194 11.39805514470503
Be 10.96467955783482 6.615245953928389 10.497967505594612
Be 7.011842011912472 10.808404525827491 10.880622000532814
Be 8.01569964118849 9.036267345808598 11.295486272064982
Be 7.9894011111142245 12.58437567058254 10.894950612347076
Be 12.009593114379728 9.891200756885937 9.71239295858846
Be 9.416032698043221 10.535116971391478 10.593930801505328
Be 9.853672911552705 9.039699976071136 12.174816026515037
Be 8.925352210876891 7.102939712011115 11.28734367632049
Be 11.796553373827383 8.522029937713423 11.369878137461146
Be 8.516672802978405 10.968590081357107 12.299701851893339
Be 11.231495840791313 10.588065618516502 11.510763791667218
Be 10.628992093700953 7.16649213805145 12.420820407067424
