30
Energy = -83.5416252 eV
Be 7.43468655643299 8.334172576132959 6.791397871777938
Be 8.064344798158565 10.318296833736014 6.774087534051778
Be 10.150765887759686 10.826246749917162 6.584715354182022
Be 9.556391215829478 8.634317354339526 7.150064192103205
Be 6.145231554245618 9.69614328802725 7.5131436218990055
Be 8.169259854923332 7.048587700210375 8.173687294100283
Be 11.451624685322573 9.983055681275731 8.025397430965363
Be 11.533693674895051 7.956252144566712 7.844832314176931
Be 8.825512894728135 12.160219304818147 7.501912885832649
Be 9.366579626877046 10.25655422235421 8.486465610945809
Be 7.852790253643911 9.05419287532541 8.896754863780503
Be 6.148360423493668 7.961871138001103 8.84910716008759
Be 10.682572852569532 11.89573515683905 8.260976842326103
Be 10.069576908331216 6.590112939782028 7.639001306446097
Be 7.867520436219553 7.244285246898836 10.234907663363433
Be 9.340422660165482 5.926960234460836 9.436472098141326
Be 11.313932114077263 6.616655321253153 9.406490421899816
Be 7.197867742403332 11.196069442455878 8.52490867957581
Be 8.895288711568229 11.889492770522724 9.634173678309791
Be 5.688260352468594 9.898334627833284 9.485258626633179
Be 10.784351601362966 10.451302316449576 10.007834465050838
Be 11.997636877078891 8.741792656978102 9.724936707083664
Be 6.749341550760253 8.870787847716901 10.868513863930858
Be 9.791470511286237 8.334977481703516 9.416278105818728
Be 8.62194753162256 8.269834706771293 11.81549679101238
Be 9.933875532717789 6.8315333315184255 11.157973603088049
Be 7.071384079324869 10.955585063282705 10.563778168865063
Be 8.847101083434143 9.919955869271087 10.6419835328823
Be 10.616256303671124 8.887512900692512 11.42863656058132
Be 11.921289647999034 7.338500140237984 11.250150674459139
