35
Energy = -98.49430566 eV
Be 12.543703085236697 9.763644786783669 7.797241048242818
Be 12.428487191404525 10.800048931396088 9.653089609582931
Be 7.274916324695766 10.722609411002502 9.469481013476319
Be 10.641701762653593 9.655141888746343 12.572699642858048
Be 12.382994649431051 10.758896913462738 11.97945530865663
Be 13.884655781055637 9.670799149838711 10.989050703851062
Be 12.433887288136443 11.976550132214067 7.8124580936080275
Be 6.640561973014447 8.708344790340476 12.245738116499092
Be 13.142787354076045 8.58166986107234 9.38830517908398
Be 9.010752773420352 11.793459930570606 9.17786423440688
Be 8.673725821720474 10.372485941166635 11.316631946348872
Be 11.780239294330372 12.531285509296255 11.134699069693749
Be 10.590031956152885 10.647795711589945 10.540956558090452
Be 7.544959389289935 12.321038958273222 10.656070080678811
Be 7.437706237633646 8.851260381567506 10.339916032137182
Be 8.918363617718542 7.6214814669431 9.474725196091331
Be 6.491378871712984 10.676959318644414 11.471022124341838
Be 9.157066048137168 10.573121950013977 13.678440714787353
Be 14.475760153895049 10.176306587371071 9.03986439070096
Be 9.864276944265836 8.532108766761981 10.993108950086256
Be 9.09729046857441 9.68953223775749 9.201348721266331
Be 10.924234260464697 12.603217141700899 9.25458918664418
Be 11.988738806117466 8.859782818886867 11.10311241053975
Be 14.438876960038728 12.214050591048863 8.749914315457493
Be 9.613521872282993 12.693423886964624 11.010507949277113
Be 8.103478176316928 7.312834692503644 11.392257704514993
Be 12.876114695160052 13.196989648593222 9.488562830264433
Be 11.055817087763195 8.852138048807765 9.154609102639153
Be 14.142807146516285 10.9275132346116 7.197849828219037
Be 10.506287504615324 11.756877780631143 12.654154448342812
Be 8.638175393415455 8.75744344549697 12.80208967332802
Be 13.910847313976932 11.832686489020716 10.761673750962691
Be 10.670960881647295 10.778556943685668 8.241903759689192
Be 8.234993792191007 12.092066185133962 12.614992778968029
Be 7.1604886051955186 10.378465950358194 13.322205008921308
