30
Energy = -81.71642656 eV
Be 8.294271423971376 7.467434109355536 9.693551902450304
Be 9.214684733223416 10.060140265392103 4.996834674861322
Be 6.868082549387333 5.5988534238648135 10.192184552924035
Be 9.309115707217147 8.056838487762581 6.113998544255193
Be 11.540626474378044 9.315645007750865 9.441702022177138
Be 10.97166291309942 9.665323202105743 6.058663075950446
Be 10.017540637237454 11.487065929307487 6.273363596290939
Be 8.426485666785327 9.27325384119365 11.16147211644398
Be 9.083452353476178 5.657211448003693 10.025389399106704
Be 8.006843481918319 5.790577683375415 11.785898821758611
Be 7.596469849009805 5.973250319616577 8.346056234752684
Be 9.441944006607278 6.979068133502999 8.016396780574107
Be 7.9691649553179325 11.326460092318788 6.164375846097051
Be 10.905993586586261 10.595744097138525 8.01150568205949
Be 6.141491945740542 7.1929273128196005 9.18543746898266
Be 9.212775087974064 9.13417987287315 9.0797728813158
Be 7.074745601768818 10.308842784120257 7.788832552220213
Be 6.898903714712284 7.5453156672298585 11.228718597321508
Be 9.003045765534038 11.574271151246231 8.189557196002015
Be 7.491154846923658 9.339929042500081 5.888994896010532
Be 7.008884096488782 9.009694045547134 9.35935679605974
Be 6.391003895193522 9.657720929521995 11.058100566389248
Be 10.891558425068691 8.36820434160059 7.740493397082356
Be 9.370513332925231 7.342130225682376 11.517127135095249
Be 9.094273555679464 9.74787015652907 7.165794256063145
Be 10.437470196432535 9.061588570608906 11.094663875177417
Be 9.993940224860086 10.871052048469378 9.982824676472806
Be 10.552168072324914 7.44438227736048 9.747484525329119
Be 7.840360086365843 10.832057017594318 9.79064493944433
Be 7.693937797112494 8.065533498927747 7.64336797465259
