38
Energy = -104.62441735 eV
Be 14.633278975383954 21.997329249841847 15.9675505858396
Be 17.943311301729338 15.759012207766267 13.2604455203118
Be 16.77290967294887 17.286921441967692 15.789661197483648
Be 12.88435939090827 16.571266557131455 15.865264071534394
Be 18.957716415929077 13.847068694992904 17.899561752660542
Be 20.239307745976404 17.00498970541111 15.924303038077996
Be 16.682332813498306 17.431823905898305 13.658820136713622
Be 14.936543745319575 16.914561402585846 16.978620007109328
Be 16.226989768658957 15.329110273539056 15.87919340713245
Be 16.818319357770797 16.4173480539968 17.689797145962004
Be 18.79534905661926 15.723809824198621 18.657430542596114
Be 17.726737212414214 14.410483569484917 14.687172077817408
Be 14.819520598527706 20.085622400398297 16.772807140405977
Be 18.31418680745185 15.793015359682123 16.398092492852797
Be 16.38735255051418 18.61913018666115 17.46022272514819
Be 15.822744447185942 17.648473996524007 19.233696709779455
Be 15.961307599647027 15.44639318415797 13.83080399576191
Be 18.671647542381088 17.632291023223694 12.815086665942726
Be 14.290175784533572 18.70156684561739 18.18185041986174
Be 15.2480288644472 15.587105880041234 19.230475862898434
Be 14.797308925562897 16.94289389481816 14.726265801646775
Be 13.62811620392379 18.493181341165577 15.99061755307131
Be 17.056323730359196 14.440270229446545 18.686678260896354
Be 19.298293765111758 13.819324982545522 15.885117718368667
Be 15.255874146353396 14.540747378820111 17.49425798524308
Be 18.58213699367568 17.22248121401883 14.759500163411255
Be 20.35175948635341 15.238727643488987 16.97661225380165
Be 14.244934022206944 15.102396534805441 15.67561304948423
Be 12.629190003833864 17.615679733558842 17.58855520816936
Be 19.713711162633256 15.426222258135654 14.656843141228396
Be 17.24923936418685 13.78583899863803 16.723500745677523
Be 19.960802588478185 17.184401653175428 17.940356929293884
Be 18.44070194714873 17.99246828854428 16.777148912250823
Be 13.332427159093907 15.559508372692063 17.658809824058128
Be 13.769529993901873 16.979231723282364 19.13950250328314
Be 17.17502933513977 16.16911565066311 19.85842508726329
Be 15.588591524135177 18.807119577920137 15.380533660088233
Be 18.055873069329376 17.761438631492314 18.80486131579668
