37
Energy = -103.35252948 eV
Be 12.5240454077842 8.775172205696554 10.600276241923702
Be 11.303394128153316 10.586599257802824 10.572045093010681
Be 11.278550686348808 7.568504769579312 11.782610726973685
Be 12.512588206065097 10.532723783919115 8.830469332333527
Be 11.37888634958875 9.476014127713885 12.24995901291403
Be 10.474312620423508 8.636214920798476 9.84492704672211
Be 11.646780342587345 11.822891360309246 7.395013215422408
Be 12.30295521167232 8.513172834205612 8.590371784318052
Be 11.386869240808153 12.246166918134396 9.284479233461722
Be 11.383600875252476 6.928081435633087 9.723055983266724
Be 9.028483613376304 9.698670102375106 10.717267242761167
Be 9.548527626148523 8.776154376522648 12.811626553963645
Be 10.556185198103542 7.865918092355017 7.833553758852572
Be 10.152325930872479 10.334424731443164 8.65433814818843
Be 9.304262255639582 7.352355716404232 11.2037902041231
Be 11.481700137187268 9.701969702308157 7.02666980187877
Be 9.831223765162392 10.990174098495697 12.261815550390446
Be 9.485867911068873 9.153764234984198 6.515861044792297
Be 8.670797823205316 8.862129707434697 8.524017059588827
Be 7.656280374314718 8.348579851944582 12.122829818542655
Be 9.99887400864936 11.14375905336302 6.464664134382485
Be 9.481129357493405 12.278270416905896 8.156485989403985
Be 7.41468760492909 8.894431326019609 6.586944397757703
Be 8.21262031406289 10.680041046785039 7.337328894600228
Be 9.162046119969002 6.886903317221935 9.139228949464295
Be 6.733518916683577 6.9549778120985115 6.24591256481339
Be 8.704297360024494 7.252080233558659 7.010434820619332
Be 7.918814796505851 11.022339714748606 9.33657881906528
Be 7.9268958869834725 11.582907037526525 11.38375843139985
Be 6.830130023954181 9.90932782450102 10.89622316357839
Be 7.6028562576457945 8.055282090153403 10.156969349528282
Be 7.919484644074095 10.207617775470302 12.812116290253194
Be 5.5144377253209 8.255035164175633 7.164213773094558
Be 7.068823179696284 7.251017919836433 8.345794202132037
Be 5.336175240870826 6.252458212219274 7.594015918647101
Be 6.662512892872665 9.424479148903314 8.58708124605047
Be 9.655432104852615 11.82976381680337 10.287646340131785
