36
Energy = -81.73032138 eV
Be 12.370106737468987 9.717205953048136 12.1007592320871
Be 12.232219456935514 10.5953734038043 10.100701969427861
Be 12.162811875670672 12.776681856707585 9.861230018641983
Be 12.229633690245757 14.077586034426803 11.625453962167322
Be 12.365770899078777 13.197140145712922 13.629297327238644
Be 12.437176639249802 11.012436499495672 13.864382395593992
Be 11.827409380870929 13.608403051760153 7.961320096596651
Be 11.96151869805224 16.141666475551478 11.409134313005298
Be 12.222760922275025 14.425366299366393 15.320194299749945
Be 12.356051019405756 10.173430404861644 15.784943367693806
Be 12.222473771192396 7.643748826691684 12.339241186639624
Be 11.95517091578223 9.356301041180359 8.427860808486852
Be 12.369657190404391 8.908319869212942 14.052422417730382
Be 12.170333652696073 8.504547151480386 10.377970887162881
Be 11.973591207275632 11.482493419602463 8.194367241338135
Be 11.979375819220303 14.876273875475905 9.683604943122086
Be 12.175996044754118 15.280846797905795 13.359600497584193
Be 12.37349169147009 12.299458727255297 15.54475979993552
Be 11.545804052713693 5.729612995519975 12.58890166846815
Be 11.736924043843775 9.394540900174322 17.5622664750102
Be 11.160855665202998 8.218263478968668 6.940240436973059
Be 10.964137186752554 14.354559017617483 6.27543820675434
Be 11.152933461487471 18.00410637438525 11.24794167580755
Be 11.540173985622527 15.527127851744593 16.883480951144733
Be 11.434396505734817 10.248310318739943 6.60023109315294
Be 11.377966114673574 12.315421399795483 6.368883358590335
Be 11.636655801852935 7.309023861709646 8.751164630758197
Be 11.761123589746347 6.472275491904091 10.650486983040162
Be 11.958095475718125 6.872889306474043 14.27749449946395
Be 12.026497179689292 8.101353483189426 15.950716185815757
Be 12.021732082636046 11.449174369109164 17.42005595707134
Be 11.962571954605366 13.513439711105683 17.196635660227745
Be 11.76415309066137 16.455450121863542 15.037151863183796
Be 11.637894582888192 17.291165162207644 13.143666231029533
Be 11.442320511017154 16.889130721324857 9.510389015439703
Be 11.374449317886922 15.661487240994493 7.8430925856437606
