33
Energy = -91.49160341 eV
Be 9.697689577898023 13.115791237301872 10.208425535167814
Be 10.487960005212718 8.607217879429431 7.353985419249329
Be 10.915764802752856 13.542853673543396 11.779150731104252
Be 12.554660976531817 10.473175595417459 10.83719287339371
Be 13.461744746521815 9.46528727796853 7.605580668202577
Be 9.536154235604334 8.568883897516736 10.831539109188078
Be 12.189358784879975 8.71180979640191 6.158337400766447
Be 7.849826728768706 12.01663988070345 10.644641837104828
Be 12.894191670688505 8.910285687220613 9.480926413937238
Be 12.379298631692178 7.6912777617712775 7.856119184032378
Be 12.807971407920473 11.06159074230114 8.827608191600664
Be 10.896589212949118 12.050014763062146 8.347815237383736
Be 7.885755114221148 9.937699018789692 10.5811629896557
Be 8.979345170759135 9.058817953984564 8.868677922623183
Be 10.652287036981434 12.827278538359021 13.61961087199548
Be 12.0279806996148 11.896441108041934 12.414302153494816
Be 10.280123013214205 8.777359089926076 12.88569973440443
Be 9.35427777853654 11.318537455967615 9.456252785500698
Be 10.782948446160324 10.761124064372536 13.9396108225342
Be 8.9110338040258 12.944518680449312 12.2049698977087
Be 8.917448533943803 9.865216030915294 14.036553282476609
Be 7.744749171728992 11.046576676705143 12.48495542971345
Be 11.640152597251019 10.46866908782086 7.151820344643634
Be 10.948796611644507 9.990129577570885 9.425013795494234
Be 11.566055636844519 12.185677115632467 10.278868168744673
Be 10.105339841228988 10.778743391200132 11.530050801566789
Be 12.077674891440605 9.787419822141228 12.69982339227026
Be 9.60791342014714 10.511098856310099 7.544330969976087
Be 10.83230208538174 7.83439238492235 9.275294640642375
Be 8.92027224013448 11.87420733164985 13.978669062507135
Be 11.54831548767668 8.62854120045787 11.125132224743103
Be 8.256004128298558 9.035157171685974 12.373556881142342
Be 7.7419468047784274 10.709500545892327 8.646254522464703
