37
Energy = -105.25866708 eV
Be 10.129330053180253 6.944282366199674 6.613565859654756
Be 8.098058384441515 7.165341393876271 7.034479633824176
Be 11.224627956070517 8.630168457504084 6.04961055616956
Be 9.056984181755121 5.462464084878202 7.780881422573339
Be 9.155930708413267 8.550995441318737 5.489932881651424
Be 11.03231204960891 5.897763414893317 8.295829067171159
Be 11.537901924021622 7.872814704698418 7.924517124276981
Be 7.332208423167426 8.42975863291692 8.52673972438367
Be 10.406554522120782 10.412824753775682 5.622220598524735
Be 9.52698514963893 7.476497676485607 8.696714162034882
Be 11.386506490485921 10.161766827381218 7.5442087171857235
Be 8.453075301569122 10.64161056041629 5.885627243332592
Be 7.426342394351083 9.048664317233461 6.594870522725486
Be 9.594993971755198 5.49125184648388 9.721099791987914
Be 7.721513808481796 6.470568873199469 9.197108198886331
Be 11.05473393732095 7.1520013391396775 10.052200521194264
Be 9.532828874487842 9.169423741776079 7.560358627036732
Be 11.025366558742158 9.144990796593113 9.43690970342907
Be 7.983902707642161 10.513277451813712 8.095616202348399
Be 9.643376709173996 11.562193227364778 7.218470376703853
Be 8.956832382958018 7.227624320339773 10.853705918757534
Be 10.037408064975494 10.93656797480549 9.111825828089273
Be 8.854760308410647 9.177963503757951 9.688878442759822
Be 10.301115736288398 8.754797811146783 11.339796400799976
Be 7.102292974047556 8.22985394482692 10.625483719362446
Be 11.041941873386431 10.689317981179833 11.00728778310754
Be 6.809659737749802 10.19496853102993 9.783600567087602
Be 8.172512842400053 12.113384076473164 9.41624894974296
Be 10.106327872182945 12.598971393190984 10.44028931817766
Be 8.85870084274131 10.764065613018404 10.956861728367691
Be 8.377009137074777 8.940858599561269 12.143787787103133
Be 9.940849509938898 10.221913830238694 12.815518463564453
Be 6.65828611515847 9.979754222809042 11.822757158574607
Be 10.062513444687069 12.184473135383486 12.401650673914382
Be 6.817914855781744 11.856848223597767 11.076078648051986
Be 8.424069802917652 12.970457113709426 11.51529160338954
Be 8.083166965661313 11.246208074101121 12.816737816056113
