39
Energy = -111.32621569 eV
Be 10.119465461549984 9.7567952653239 8.084143428712252
Be 12.275832321381593 10.162344114985618 7.252221152367208
Be 10.51049264529738 13.14848568689326 8.510515737300382
Be 10.565287386244227 11.529926708856115 7.217563617340658
Be 8.723984886194925 11.604868690190449 8.215299261258142
Be 13.659404120820755 9.20623301482877 8.550503308824979
Be 11.732651737186021 8.55429057674097 8.549512731387605
Be 12.366640496792964 12.22611704328879 7.627525687532428
Be 11.928491570712875 10.634003128389345 9.302275356416496
Be 8.39068451531424 9.656586188038323 9.284306899047536
Be 9.96343224162225 11.29406981143483 9.820533054711959
Be 14.466883959357162 9.880613613580014 10.264238713484335
Be 12.371327650138772 12.736106285098026 9.626122199983236
Be 13.886639965928584 11.26161031035965 8.715388823320659
Be 8.803303900652145 13.15960210794907 9.673796611424127
Be 10.644200569572378 9.278042648210306 10.22845672656712
Be 9.631366597121898 7.908983637050492 9.099791512191908
Be 8.151855579562854 8.00268334764103 10.521583929859231
Be 7.835191679113438 11.432270328766787 10.250332570393685
Be 11.372216154440835 11.213642423281032 11.352247707353705
Be 13.573013392016266 11.596506422012238 10.926452859185265
Be 7.065270558439871 9.658955657703645 10.939924893702912
Be 11.400714784013484 9.154580368587764 12.174107570486171
Be 9.285179753285899 10.14248400198728 11.562241597588653
Be 9.165988326976025 12.318123508922117 11.638488440269729
Be 12.709594351777366 8.826545281822803 10.501835470591972
Be 10.64744882344719 13.513610361493566 10.648239421419081
Be 9.824778996198376 7.860993665916118 11.602491091016
Be 7.939300583706535 8.659464061048554 12.565735553608386
Be 12.426892863476489 13.174757631285797 11.648961092943766
Be 13.411642717661396 9.936905932155112 12.181196928538307
Be 10.776718801966034 12.91218083142819 12.822564162980509
Be 7.37610234756708 11.099308065058016 12.394219808585309
Be 9.873879874571152 8.916800503816537 13.478495438044941
Be 8.798412951507224 12.150776955250608 13.64427778464753
Be 10.463300737405035 10.953270970472795 13.422217097674505
Be 12.138494378329996 9.827107977990138 13.89988034524324
Be 12.59394289066323 11.667962868544103 13.091602569607566
Be 8.345755857767209 10.198176433377714 13.92649527416743
