35
Energy = -98.85841683 eV
Be 15.645787776280354 10.458132575894794 12.176132320948813
Be 8.958866428324802 12.40916308423413 9.308650725561934
Be 7.314338788424503 12.166243008793709 10.425223820455814
Be 12.421534103738235 9.716140126214881 13.195696385533461
Be 10.927181076036938 12.693486663348871 12.129542088850384
Be 8.983384935176437 13.281910427120081 11.293616859068536
Be 14.203891523074834 9.01700940483363 12.372892979616452
Be 10.660344811664862 12.028826263646451 7.963148508632885
Be 10.713439912958998 10.969663838477738 13.356958061938483
Be 13.665277798978103 10.501359346659527 10.81617982548781
Be 8.709243204106185 10.380160990314767 13.06436807861346
Be 10.798531151818574 12.549630587798825 10.082795568796167
Be 8.576314766443978 11.27803430565366 7.67777126842254
Be 10.188025680100944 10.457346678082418 9.328092031062909
Be 9.254591210081756 12.4231914435656 13.250151533177254
Be 12.371860982454383 11.439011570003006 9.25566952900618
Be 8.617782764393404 9.259475722545956 7.534355698894947
Be 7.937674934126605 10.30959157026468 9.529377915450844
Be 11.828617906739483 10.28361418821532 7.6558681431330164
Be 14.341264822750066 10.665122365452769 13.62825625993014
Be 11.465428100227022 10.645692196445475 11.140230526687066
Be 12.273350020916407 9.364771257577361 9.449527918941769
Be 9.412111460980002 11.203111364394168 11.192033871935584
Be 10.5911583800263 8.559122012659687 10.38134899462267
Be 12.723859777772075 12.51204691293328 11.01234995358089
Be 14.472236324218956 12.09141975980355 12.05701142759281
Be 12.410716473685634 8.669625935308945 11.41839506127532
Be 7.4226071020592626 12.222729352667667 12.45734322868651
Be 10.080033581614524 10.351180307565532 6.684326797236164
Be 8.851118448991505 8.422452963171738 9.31411891843831
Be 10.588020187921867 8.636023961994091 8.13730459620521
Be 12.638532285992751 11.80173018991305 12.985180044147231
Be 7.1936619400442305 10.455997421554514 11.540988580811467
Be 8.767088744533512 9.12493348774035 11.229539083879502
Be 10.480134343652216 9.140060465459019 12.443565143687467
