34
Energy = -95.88783515 eV
Be 12.203213029379869 10.124087260786911 8.277083086666549
Be 7.668886544964853 9.345275804198998 11.701733620407541
Be 9.41964886768124 8.159220946831283 7.262021112025894
Be 9.073259353551638 12.560124703947988 9.593553921208123
Be 12.72310156235356 8.707605001776741 9.959605040656507
Be 9.53822447386726 10.436338354480279 10.79816736364553
Be 11.90020851906246 10.597740120962694 10.351915011083983
Be 10.644647368804456 12.243451066655176 10.999152077952306
Be 12.740751718037743 6.870829521006888 7.093377831410002
Be 11.536323780817847 8.602410415129668 6.986365883859148
Be 10.168107662387174 10.160620911660228 7.29464097180419
Be 7.237330825867475 11.73494068162837 9.514597941382387
Be 9.832464871481069 11.86302485128778 12.916323958265892
Be 6.724875457921707 11.159446832244099 11.380905205078243
Be 9.138352804845983 7.3327943495215 9.138180301639503
Be 10.476973704940232 11.252566600532335 8.990436628311894
Be 8.652804784155517 9.659563987850087 9.086313459336848
Be 6.4613296330721495 9.702470150589455 9.830871640997504
Be 7.506335694646926 7.998007985973331 10.14073995383947
Be 13.459505384621378 8.493261449424212 7.994291528057458
Be 9.352203321178145 8.266748904434667 10.987270138317935
Be 12.82963925667411 6.8081513300314604 9.114465318733977
Be 11.412212863718016 10.732141812885459 12.340669153263637
Be 10.933118583713318 6.920229244593819 8.161092979642882
Be 8.391074350663006 12.445383169150015 11.494624885759547
Be 7.319417551128444 8.366203624204688 8.049866894146014
Be 8.201015241092371 9.730685147530487 6.726303404462582
Be 10.621399144937506 9.027918984846545 9.263487356361864
Be 8.601968877794711 11.482115832931877 7.8531262585237
Be 11.085892354094671 7.158173044021708 10.2369997811854
Be 9.66136893419075 9.548277204607668 12.753604672466711
Be 8.059695361919509 10.934035494717463 12.927844147832827
Be 11.297703435770837 8.879065539913233 11.486278231110882
Be 6.716982791168048 10.425132786373606 7.904003226043617
