39
Energy = -112.39828933 eV
Be 9.138680759947416 10.543787486158696 7.164152236001847
Be 11.801166545207941 8.418299905832653 8.619953761126405
Be 7.948635752111207 12.048445260480197 7.696210387590612
Be 11.025399662536058 10.450123152011589 8.08734506950208
Be 12.16676517959983 12.27198237113096 8.416999744520682
Be 9.572244138589582 8.879730877022437 8.276848490353094
Be 10.080052237261105 12.351512068277351 7.793178162671049
Be 12.765395488823597 10.289803935947166 9.254610253516258
Be 7.629383621952824 9.892269977267931 8.54629182262217
Be 10.888077649538886 13.632774593486577 9.22091303142954
Be 13.651041825450845 8.532226206303141 9.751940139287392
Be 7.029299894219028 11.765461102569379 9.434704992526637
Be 9.22060765858739 10.989678807526879 9.49636768844618
Be 10.675138654413457 9.507480512704923 9.974737772527204
Be 11.988152136562407 10.000738293397042 11.455832461483656
Be 7.4473877987413095 10.310138303970133 10.856386774437924
Be 13.469436834507617 12.027849520072579 10.110264566184755
Be 12.001411385708534 7.758499198868057 10.737418905461375
Be 8.674180961759347 13.18760296055629 9.296321356562506
Be 11.212820683153984 11.528929546905601 10.160798150617666
Be 10.200536660748845 7.475490574883342 9.69483864350048
Be 9.96344180835815 13.088801462439484 10.956393781129062
Be 8.628010991030346 8.806095209828406 10.127370912698792
Be 14.217631178678882 10.209278492378239 10.973978882779603
Be 12.11458315030155 13.328551709377043 10.92111638433434
Be 8.136806356047135 10.862589632692394 13.004885010232957
Be 8.084090493162801 12.20176332082176 11.172080743707108
Be 13.188922699052148 11.720793745032717 12.118734406746553
Be 11.994348421571072 8.42723767481857 12.926212763051545
Be 9.743070791654258 10.64730837077507 11.52712009376721
Be 9.167218017793045 12.740998106527437 12.858308930736607
Be 8.342655790692591 8.978121558079193 12.200968579999426
Be 13.777786515305719 8.30796966673154 11.783593924477804
Be 13.693625163007898 9.8625431799004 12.996750147835606
Be 11.193615518656578 12.18053051822663 12.454536666093217
Be 10.250720208745047 8.303597173055952 11.67428838821299
Be 11.813846707453353 10.518825875443149 13.591538481595705
Be 9.90799012631624 11.34199481557801 14.058510001769807
Be 9.993958114582796 9.408312414751745 13.4056350722936
