32
Energy = -88.88399275 eV
Be 11.063817914569832 6.74365377971267 8.981462304637324
Be 12.188734060151669 8.43719340369809 9.87929908977123
Be 13.101346281199708 10.314530250547783 9.739017134909439
Be 11.097605121739381 7.501370171237071 11.290577771385047
Be 11.684191661709244 8.661810815525858 7.920697954612095
Be 9.541650275063475 6.450171213989171 10.484784763634904
Be 12.520439482603031 9.6855614592383 11.63153403543043
Be 9.945035154988556 7.854134638769767 7.260871864935456
Be 8.863954492918744 6.786589289713713 8.602299763944659
Be 10.019635768188369 8.445910790136828 9.428163425793844
Be 12.410051989778946 11.804792854782884 11.03490790755893
Be 11.14436422153661 10.253430486660832 9.085177474386862
Be 10.54414994239973 9.584264013965088 11.064537727063776
Be 12.024919238415324 12.109556186972485 9.047983387562264
Be 11.191661260392644 11.117798401503592 12.545171750883544
Be 9.138820192758372 7.942935641249599 11.789656596192131
Be 9.066927328250125 10.197202666258326 9.473377517106623
Be 9.804325598496861 9.658920243991954 12.94608926045245
Be 7.951279049686428 8.053295288518271 10.073352552381285
Be 8.14666407261222 8.767231601987532 8.102535809567588
Be 10.180483676805839 11.571752452395128 10.509970701326951
Be 9.829712342896826 9.886629817350068 7.4866330223020325
Be 10.81987612184927 13.053600358662791 11.95383418468573
Be 10.693074756573004 13.510820445775924 9.858150039903341
Be 10.047361896041519 11.925547627465573 8.332517661009712
Be 8.252451276323253 9.778997582806612 11.458252597879037
Be 9.140745856281736 11.605902398098436 12.405867902547477
Be 7.052774646084549 9.868254962175147 9.560849899571632
Be 8.986425395935266 13.34862551615657 11.163735481329388
Be 8.008224889557363 11.249774474003468 8.144733274048793
Be 7.864340230901904 11.713314840836286 10.511088749045538
Be 8.60948727585704 13.050957798381608 9.167399866706615
