34
Energy = -94.65742366 eV
Be 12.732630666728495 9.827184623941008 15.348530376427384
Be 9.94438708037169 10.75265449278194 13.177337324447425
Be 8.567497294933677 11.843387630183571 7.725346344132515
Be 13.117043694012077 11.443528272735664 14.26223001544039
Be 10.334698012637721 13.001158455111648 8.061890500780619
Be 8.136649618128796 12.618390168160436 10.633333951195118
Be 6.994010814134447 12.537804617810716 8.909575837937128
Be 9.598418168731877 11.398637546181007 9.591417877304183
Be 9.84775114947946 8.900822935401203 12.093711381480952
Be 12.497523554634112 9.84408024300479 8.17893374619537
Be 10.815396651993053 9.719433866432713 9.240531579544102
Be 12.434360087846036 10.832147948671071 12.413422285612835
Be 10.338168038299175 13.395344795082574 10.130246510058312
Be 8.659662263823442 13.6907280064812 8.92127605954584
Be 7.623501680693852 10.692490190699605 9.545269505127067
Be 12.781095879421436 10.482409829052298 10.34695494339815
Be 10.755256911881194 10.543378081925079 11.132576989685113
Be 8.589842522162014 10.705673875842438 11.472461921735281
Be 12.778904061422285 8.510935212610677 9.819888247232734
Be 10.825179466330157 7.919239748799433 10.401648288668989
Be 11.415009064001234 12.38167689164771 13.291338726097294
Be 12.094693593452876 8.821566887850484 11.821751226293058
Be 11.310358164517332 9.256066220029757 13.731010954411031
Be 11.902723174737979 12.391332357937896 11.187659327500329
Be 13.400493573230555 9.426404603921458 13.50428221649656
Be 8.922060520288404 9.80465789130814 8.110788362811487
Be 9.694932959983497 7.88963970863156 8.598024307753855
Be 8.992001929219072 9.178529964827359 10.171379925150614
Be 11.700807349622902 11.774540282191237 9.163700093978784
Be 11.67339855844543 7.7128103066755465 8.322916679275952
Be 10.596310527793968 11.013517286687858 7.5534845975103675
Be 9.826725697930254 12.39029841008802 11.881930183492535
Be 11.158009357320507 11.033585630049034 14.838156332289122
Be 10.665548733810763 8.990993839264343 7.1420442030080755
