39
Energy = -111.63415274 eV
Be 10.96672191205216 8.592143677133734 11.307175795531135
Be 11.72447275650639 9.603211091041084 9.68963560325533
Be 8.967046013005392 8.995491758911736 12.005641350167869
Be 10.104629853485038 10.457869834525013 10.888503458607477
Be 12.71390525777707 7.7980514424266 9.211030493503927
Be 8.294256150956146 11.051623612312369 12.25114643298263
Be 9.575271821866746 7.094808330059713 11.232643052278153
Be 6.934502868687919 9.381962145395496 12.149633081728908
Be 11.68703004234694 6.63988591874711 10.861348199944162
Be 10.03460223321313 10.22827094594537 8.69432940308338
Be 11.476024301681788 9.009824839611232 7.66735076734411
Be 7.474743968392334 7.7777947474730835 10.9334596367256
Be 9.039974340946001 8.728132242624493 9.850684392870505
Be 9.412145076769159 12.106303948253403 9.485559598580235
Be 12.05228377800662 7.03055272520646 7.386630320031421
Be 6.380898678421127 11.219431871076683 11.447787318849326
Be 8.146719484955414 10.509745825145833 10.282150809428721
Be 12.026539818518089 5.825976421543739 8.98826241184274
Be 7.781830115329287 12.562224061394915 10.74190470448186
Be 8.643457349570726 6.704508278487153 9.448380208072546
Be 10.633099907100373 7.614063939772845 9.231871508987217
Be 10.263969045768052 5.503133006058934 9.906502610753828
Be 6.244984082272745 9.4317305037759 10.091626710622469
Be 7.721600749290286 12.913214384002583 8.72618565560206
Be 8.003805435749122 9.91744899196931 8.31018950873533
Be 6.361519327329167 11.40492387236209 9.334545769311084
Be 8.810977767819802 11.730614585583442 7.377906862673308
Be 10.08135535746018 6.107823689875263 7.746603858258977
Be 7.043784532563486 7.960603484134271 8.816059351368427
Be 9.694056559185075 9.895121717859839 6.63851010779962
Be 10.593510160466007 7.878081369972839 6.143652233525712
Be 9.16557820998452 8.15326209573088 7.815217201006458
Be 7.8565591519226 6.361903838468908 7.6158744658082576
Be 6.038816051973954 9.736752449649867 7.852581982620025
Be 6.752415538577641 11.692123579825196 7.365969068911752
Be 7.648692311298619 10.187093309015712 6.202425786277284
Be 8.93205267307657 6.714015689842828 5.968700092957576
Be 8.75657558916289 8.616270199443587 5.3457930667275955
Be 7.216877292619307 8.210032091258151 6.710097465468518
