34
Energy = -95.12021993 eV
Be 11.566026366999624 11.898379726240787 7.175362742200182
Be 10.143879595758142 11.878185416036288 8.660737055824866
Be 6.542943124081681 8.27771158020935 7.037369670024063
Be 8.142156837940638 10.735249210987313 8.536573529058249
Be 11.984179216321476 10.786961880337369 8.91223584366557
Be 11.7717746804317 9.361939101960575 10.461852106951651
Be 8.968465136239567 10.715981756061767 12.11092479516352
Be 11.257816851908524 10.761742495559533 5.600982833499248
Be 7.402535861606242 6.62567316895142 10.314753578516049
Be 9.518106027005745 10.863105470292476 6.866826545129028
Be 10.004970509859088 7.617638423475697 8.040909796926208
Be 10.747336813995902 9.099970131033693 6.7574896973240035
Be 7.856896226436081 6.874517509823636 7.911968693644538
Be 12.592068084689046 10.126404189550566 7.0160718303948935
Be 7.331859043082025 10.305897850659868 10.463884851703574
Be 7.3893983289616125 9.420503122041284 12.298929044067153
Be 9.294629407396236 9.054705628697567 10.800318832446738
Be 8.850862623138065 11.591359742476822 10.248673205234946
Be 9.30326357306628 6.820102468710887 11.52339142353365
Be 9.227641131184743 6.4132710945914 9.475731961835452
Be 10.788213488811765 11.18064744542289 10.641873047665323
Be 8.630859516223053 8.894030543695969 7.041488738841599
Be 8.133239176984013 8.548329915732724 9.165374819894481
Be 10.799845525104091 7.5795086262925055 9.953164947521275
Be 10.025522496861509 9.613828638750444 8.862377427942288
Be 11.938226861221425 8.63367451646045 8.414679743736926
Be 6.424782261665556 8.452314459592264 10.638150949160506
Be 7.099422609018531 10.197060024762084 6.821617109884418
Be 10.841253885459816 9.8795084956416 12.297122055939745
Be 6.1165219742484735 7.453239019218787 8.849920751588655
Be 7.494791569086848 7.434022781261631 12.225253700370695
Be 9.20842665688308 8.600253484035484 12.939697570821501
Be 10.993384661699741 7.929196694248308 11.9500261515163
Be 6.254010592267333 9.590721264748153 8.705354055449789
