32
Energy = -87.81436867 eV
Be 12.254683960293868 9.57417246753289 13.80465049214168
Be 9.031266907815477 9.78438837113354 12.396092981952549
Be 10.675899702862655 11.71362127852099 9.934113448236715
Be 10.523888476742929 11.018621360559319 13.52424175613679
Be 11.096203394233216 8.957368395272114 8.347885442005982
Be 11.153228928738436 10.280289536328537 11.69513390088465
Be 10.146960985392917 7.990977239877013 11.731103444561965
Be 12.029273488408672 8.047535638422376 12.535237653151816
Be 7.1755750154334725 8.756034555664533 7.3349374499090025
Be 7.883707519262313 10.454140373951065 10.478317846223064
Be 8.34524815073865 12.059440734670206 7.21356595524557
Be 9.231324706929419 11.607331990384296 11.507866169475305
Be 10.050430679691182 10.751371509323791 6.611772194984844
Be 11.522128345639837 11.007588201083522 8.120741571518616
Be 12.163723556273396 10.00653077558353 9.730492648309443
Be 9.257722855336302 8.64710062194296 7.342163335091973
Be 8.08071944430366 10.219551050817815 6.406416061105908
Be 11.735016757318983 8.170508991729488 10.442852071321328
Be 8.585857526852543 12.197094461439894 9.439745229703155
Be 12.628794910924885 11.631622720982008 10.792338695161979
Be 12.971313005482843 13.163849401262086 12.180668707626955
Be 9.415010643708923 10.440830307844301 8.55583308934833
Be 10.124940917791351 12.492096624559844 7.975403762740191
Be 11.041349457301125 12.437281753779043 11.941951052758618
Be 8.244722279811615 8.418557426119483 11.058273415879269
Be 7.2759284995488205 10.667971406382577 8.375105063374306
Be 8.08495224864429 8.869967601317 9.146125140169506
Be 10.414476983942503 8.867613037363064 13.617054179105063
Be 12.597212227880593 11.33928884029049 12.94420856488515
Be 9.787181562736977 7.735500699990083 9.403215934569824
Be 13.138836424465772 9.642746047558777 11.666481820798422
Be 9.893464333971302 9.610050476792594 10.307054820101262
