35
Energy = -97.5046316 eV
Be 13.092840715711898 10.388661434195843 12.011084043665523
Be 11.230881707528175 11.610361622014892 11.662597998999813
Be 9.01875604382476 11.476866058002544 11.181853985743182
Be 12.278060681768682 13.413033515421876 10.752421073510718
Be 7.424204157695065 8.539377059038753 10.380424399528374
Be 9.185293425590169 12.075631533337864 9.127423220336661
Be 8.76663637854667 8.325582395448922 7.1180591940545375
Be 13.007068317582451 12.450086736349371 12.48549242002629
Be 12.062657934699267 8.614318961936505 8.46862730350927
Be 10.473726241143185 11.481725116559986 7.60986788337579
Be 9.729787194880396 12.648458801674515 12.835660473839809
Be 7.995472836997678 10.454218325229451 9.695978312257008
Be 9.76708136721878 10.440993198952066 12.82548625798817
Be 6.9811307854844475 7.261326646151187 7.252774444672638
Be 10.15812776243713 13.230161269653154 10.736515120251537
Be 9.200256873719315 8.90034918037184 9.06233129343481
Be 10.621160342915813 9.428300316099664 7.325386192905768
Be 10.190894173288724 11.606375025505924 14.514651833802837
Be 11.345000510433856 12.43470686446768 9.22347916973763
Be 8.706967253858334 10.456574433876046 7.672947808970947
Be 11.83367832790139 10.766835237460825 13.612999689077089
Be 12.59623229643735 9.460489372323803 10.237066039817503
Be 11.28313397046496 9.355737893718917 11.92783430201724
Be 12.24113855419875 10.6763280569237 8.406983016396612
Be 10.603814173349747 10.462779062028158 9.923146647085801
Be 11.33662858771394 13.844967966604173 12.479310380386234
Be 10.95659680497191 8.15796643058527 10.175865670259236
Be 8.59035395322568 6.380347951716182 8.086575441154974
Be 12.947814675908411 11.530152894495036 10.311278870707492
Be 10.399167870405877 7.374237597236126 8.221637323041396
Be 11.754962609224885 12.766711328317419 14.096237484512667
Be 9.303640943173757 9.211534421523323 11.153726442980409
Be 8.975823533665634 7.1190107510495055 10.053623762687085
Be 7.017284628895833 6.921325121927958 9.244205128399177
Be 7.1833608194306695 8.994103874095398 8.386083825159515
