39
Energy = -110.38810058 eV
Be 7.00594817721009 7.465781929140929 3.294744251524538
Be 7.193440606613897 5.30837663563886 3.398338563445222
Be 5.212834230711018 6.249466307323143 4.1209056486930145
Be 8.995260620270706 6.672393299849108 4.0806752626261895
Be 5.751690764702091 8.226519752232495 5.034616569532317
Be 8.083209281018167 8.45884174828043 4.988346404345863
Be 7.108458181214743 6.461524012849171 4.961832116532033
Be 3.802473083848417 7.4222490561402115 5.823658349098381
Be 6.145547073797316 4.498809114790919 5.199825741417123
Be 8.465747850049112 4.75901788768076 5.192184086081364
Be 10.16433935938245 7.914475777868779 5.596329634730169
Be 4.049104887101937 5.111113127860779 5.785224824413241
Be 6.694890943751805 9.617719277453482 6.662341995885464
Be 5.489920750508334 6.330645155519507 6.132136500114644
Be 8.750059920250285 6.697609005196484 6.158059074062754
Be 10.407762089295026 5.756330227098961 5.744263211864138
Be 7.062081713154027 7.603372248453772 6.548217269392466
Be 4.474211107354616 9.578730149372138 6.3491894716670725
Be 7.23844547906391 5.469934014888011 6.726488981330274
Be 5.263357190735658 8.009110910418258 7.196761211702942
Be 8.751339929582361 8.65980573880076 7.213467031211214
Be 7.465008457950915 3.551515939086085 6.791526135483583
Be 5.449873283163016 4.512052943341891 7.3603223708515975
Be 3.4774503015841067 8.401585817430313 7.885745046054637
Be 9.174230862581458 4.9270298159177015 7.39643826753397
Be 4.044466849345349 6.25374615181804 7.737718215029381
Be 10.132713993835576 6.944200085403024 7.699781350905525
Be 8.14457829718418 6.708386457655458 8.067675856326991
Be 6.132475460263942 6.394868223656599 8.064194280638139
Be 5.389633881091427 9.689752993627565 8.436538057159797
Be 7.636069488159017 10.031316212102292 8.646842241878153
Be 6.900739269035289 8.242592510258664 8.389337871786852
Be 7.333304491718947 4.786262300794598 8.732131230837487
Be 5.029595416747143 7.628649579397747 9.338060797199965
Be 8.721251227849189 8.126093932747418 9.408288772320825
Be 9.1126047626865 5.838974530100859 9.473416190484404
Be 5.250706280866017 5.408959287978773 9.46783822724961
Be 7.067547388013954 6.689387822119161 9.939620703647167
Be 6.700056572731487 8.865229544131575 10.229347709365149
