32
Energy = -87.94744616 eV
Be 9.899215211887643 6.885140246002549 10.107021860311942
Be 7.82516179566943 9.484124955587967 11.750825878528543
Be 8.056848578675254 7.375377278810168 11.268949380046651
Be 7.411906975590167 10.934797332448724 10.188912686378984
Be 7.862917971930142 12.46419433034983 8.781285061664514
Be 9.520711795599095 10.471167596809925 10.580663048003602
Be 12.326824567473185 9.73100032890169 8.389769298171382
Be 13.293861919151533 11.42137820897134 8.95103631894902
Be 9.579128198986412 6.38923664463304 12.187165995373153
Be 11.764205499534985 12.927998340559181 8.73523335212328
Be 8.747703075827971 8.073775860818198 13.024887040192436
Be 8.158071591034 11.503419404148717 12.13090827990427
Be 8.666259629451966 10.555107346674486 8.508504724073362
Be 10.188044538082362 12.007454727579967 11.713305104513944
Be 12.447098511026418 11.573134211474382 7.172923292303565
Be 11.664676825502756 11.2998185696591 10.187561049472512
Be 10.837586475505024 12.977901276863662 6.9528486955615
Be 10.016176923212688 8.59829291691147 11.168267171357167
Be 11.454190001048241 6.655711778130616 11.480921320443175
Be 9.974064619332621 12.182377201620067 9.500292377028186
Be 13.032592973729368 9.752131453632131 10.411587880998374
Be 11.85851612223216 8.042497398803366 9.932983252905561
Be 10.358674104918691 9.20412173079608 9.064348212955222
Be 11.461129929957947 10.073920826306823 11.90576536208994
Be 9.556644430211891 10.02960504703712 12.76228769386054
Be 12.592400425300744 8.319865081045034 11.847434728138694
Be 8.467530368161906 12.882164802792936 10.675789791027638
Be 10.8879331348021 8.092257155066967 12.957883108852068
Be 8.368108844537101 8.856769569322614 9.867248000757966
Be 9.009497110805293 12.092301544768741 7.1182534117958385
Be 10.599182766703214 10.838437586285602 7.740550694136063
Be 9.53558019471684 13.726964357786509 8.357031038680057
