31
Energy = -87.51883716 eV
Be 10.805998105910357 7.288281289598421 10.350442689077632
Be 9.394920747447687 8.237125960904892 7.264632082644534
Be 9.94609790537247 11.659864522378495 11.320117158938206
Be 9.422620765396706 10.758482878423616 9.175489849825386
Be 8.333026254275337 13.275601910360436 8.51122226241145
Be 9.571889077105318 9.381494268307376 10.755496283709899
Be 8.027825705375573 9.161150372027125 8.744027464030466
Be 8.141083249057324 11.177306590434874 12.15483736089031
Be 10.436925454661443 8.98749730718115 8.913471803934906
Be 7.854882872281891 9.138692180204393 12.28742163383798
Be 7.428394082383091 10.34545499340821 10.425667103088319
Be 10.619476288718314 6.785983187443627 8.241162940465792
Be 10.61056633215838 10.03611684931399 6.909939795735875
Be 10.914808959156394 8.337095142431544 12.195341021551572
Be 12.340914727979895 7.68248360009369 8.858160504603468
Be 9.410638710693808 12.064624626559686 7.298731968547388
Be 9.037117301322578 7.356518082829749 11.526178291896466
Be 11.263339955102655 11.606229187454161 8.01096362953726
Be 11.531600890324205 8.170393431846634 7.048489485628315
Be 12.024217106458039 9.035480018253349 10.457108929453405
Be 10.135642827255591 12.737498467879982 9.382133474617453
Be 8.209014624595799 12.298464454085755 10.311463703596187
Be 9.261352387193522 8.167054529310711 13.396344634309058
Be 7.429651310993875 8.258504086096947 10.523232096076507
Be 11.433740537505443 10.938131482981468 9.95840178589599
Be 7.531135682345205 11.368428214649704 8.45328985179302
Be 8.929812703034235 7.421285703095702 9.351081952020838
Be 8.599141743510216 10.212160947397233 7.058986991602832
Be 9.709884365340091 10.104229809914797 12.949158077828237
Be 12.287119318391866 9.745417670495568 8.29952998308217
Be 11.44757488825672 10.35336311423977 11.957890068971858
