30
Energy = -83.68946881 eV
Be 8.164101131246547 10.373372449878442 6.32662173680929
Be 8.820268894216769 8.387652518486169 6.509468584980442
Be 8.432423221234139 7.0645737357052525 8.121281416682567
Be 10.31280323552357 7.954365048954053 7.827645063417337
Be 10.383032757267037 9.76721504158386 6.729820268969142
Be 6.514753542761146 10.482102097113954 7.688351938601605
Be 12.061043664536284 9.037626374888431 7.910390928604262
Be 7.892284149089016 11.984726721818797 7.714073110134739
Be 11.309198417260053 10.939591685720226 8.373201837164034
Be 10.043965159579454 6.683422300313418 9.366339814835076
Be 9.752792595661584 11.678588360879555 6.981687059156114
Be 7.0382060199949725 8.539704399179783 7.498673055246875
Be 6.595307832222481 7.122961765214641 9.065600931427847
Be 9.51704040482569 11.843439029936203 9.060429525116147
Be 8.81803750349531 9.826295196216249 8.314601358753483
Be 10.394241522758541 9.182595793301282 9.56858979279424
Be 6.316869745889891 9.17657215209592 9.464529674448048
Be 12.63295664519939 9.762672296158874 9.701400235357017
Be 7.347005366701678 11.020902598749831 9.532876831192283
Be 9.015320461251788 10.539225234435396 10.466793048451047
Be 11.069203433564915 10.876151560578247 10.581586736985129
Be 8.504656948122618 8.44441485454385 9.846351082128312
Be 11.905436994407783 7.714081634605203 9.597486873288219
Be 10.343163776672835 7.340011349884112 11.23041390266454
Be 6.5912271025353775 7.621327404001238 11.001320624523329
Be 9.72167731449013 9.29791430179877 11.777662888105583
Be 7.432616889191823 9.541613196629404 11.326241624129208
Be 11.75048647258489 8.964415466622848 11.352593936205812
Be 8.182151625723835 6.377481164711861 10.328596094484917
Be 8.39202499378838 7.709282087792818 11.989667847141574
