37
Energy = -106.37446047 eV
Be 5.780214758751009 10.25913614506402 7.794436786331057
Be 9.957562128771533 11.115648249590967 7.910798516595855
Be 9.631420044868246 10.5508964789264 9.980124154126507
Be 6.713643243894928 9.29214558350067 11.352099555924104
Be 7.923462553870379 11.556366283903404 7.087137153896744
Be 7.6326866015966095 10.867034269624817 10.463049133504809
Be 8.866234297694007 9.586207449662432 11.768408716632303
Be 6.419713816035999 8.684597901149198 9.196689061882582
Be 6.445994965340981 7.330015147933178 10.83966426133275
Be 7.732224749908535 7.789020962354678 12.302680873055586
Be 6.557383984359528 11.916902457516306 8.681196729263943
Be 8.340112348381542 6.365027671064407 10.715897564206694
Be 11.491019742766685 10.278829923992289 9.120809253316487
Be 10.052398158113412 8.841286161076509 8.49329398664558
Be 5.692389832427701 10.522914247670606 9.860321508907056
Be 8.482027408190294 8.417196181377452 9.943293993393517
Be 13.017241481211514 9.532524087424648 7.930332674872043
Be 8.063941630751048 9.985534269622825 8.50305315640238
Be 7.100004459053408 9.72007296760524 6.367942833282774
Be 6.952087542494166 6.68243048374012 8.887985455088941
Be 9.109651893975332 9.76004391417606 6.5265811442608115
Be 9.680114481289054 7.630457120023168 11.880953083051416
Be 7.9560390057376 5.043940413060931 7.9858979328969655
Be 8.227895040910171 8.06345538490851 7.753340285419986
Be 12.169151346617735 7.973890674861141 7.0340399286549635
Be 10.775739199295424 9.028995049076725 10.722205238908991
Be 7.142580848576071 6.354161881874846 6.726339039506348
Be 12.029634108620694 8.148013375838975 9.181126649413025
Be 10.179591778853373 8.000840079544059 6.3837906982416985
Be 11.245760870372555 9.80811747888209 6.920897025480931
Be 6.158667228122005 8.130253653035462 7.197502976254289
Be 10.43330942655172 7.059310011580142 10.096074827973213
Be 9.0865798425338 6.473185068025397 8.774838110060543
Be 8.092320083616684 7.92984192943107 5.724185917674782
Be 9.17069909395112 6.213745230326612 6.661815399058895
Be 10.899776893148465 6.741644921767119 7.984537517448096
Be 8.54812419514683 12.103715976587523 9.004057942832423
