33
Energy = -91.81558168 eV
Be 6.04424781143471 12.43418937479463 9.41385206574342
Be 11.41452870372395 8.353913997202735 8.599377454711442
Be 10.130264686792632 13.120477162536915 10.590864356280425
Be 11.684957196345 10.697434608946592 11.815581230859745
Be 13.4248832587381 8.314797335900458 8.311563811339727
Be 8.4877911760521 12.748963453947363 11.77725296794152
Be 7.475262043414964 11.97715925742276 8.092642160791584
Be 7.984845651970259 13.123088133508087 9.831787527075065
Be 12.079302894991143 12.641571545785187 11.386711178609735
Be 8.704531483138474 10.811679165766048 12.457366050522687
Be 12.091552037227911 11.829448965486336 13.569111559213818
Be 12.713537388049426 10.262942127619247 8.382188040815905
Be 8.450891531634896 10.243430838328583 8.5633042617983
Be 6.984965789895112 11.523963941327548 11.087053711745964
Be 11.683645393705154 9.684786441650761 10.145801778952903
Be 9.631126412870364 8.951536848746215 9.671777762055102
Be 10.565303302071987 10.319173952432516 8.387427253268065
Be 10.933420807218559 7.69162057936461 10.638099155215142
Be 10.609516697707651 10.258249833087838 13.505812279497333
Be 12.982637697166608 7.904881522315835 10.321344641716019
Be 9.91939809312385 10.956345858507566 10.583371031486406
Be 12.838116638095288 9.983100016490024 13.561060732884156
Be 8.027654556310122 9.740079380492743 10.720141627519617
Be 9.508398444283094 12.148469746891024 8.75155538173023
Be 14.228794725671829 9.514229980688315 9.692783433574295
Be 11.532441877041371 11.843312637563109 9.520827065149453
Be 13.363090178162832 11.242153616727634 10.294083702312765
Be 6.576290568680198 10.490264571761966 9.30231443138234
Be 9.909222163376551 9.176690230876511 11.774618642702073
Be 10.280601231175659 12.181723128519494 12.547977390799991
Be 13.678350753058531 9.417687753674297 11.641460577772595
Be 11.882730967384443 8.597001812204697 12.279566414033205
Be 13.744381712931604 11.382316052875666 12.348004193942884
