34
Energy = -96.4276441 eV
Be 7.507577576071321 11.802783014107362 10.619481788042945
Be 9.442083008213224 10.765787582781321 10.54898762718188
Be 7.018270477077135 11.323966606591194 8.604804528117931
Be 12.019116692792805 9.317856486788795 13.030893179831997
Be 11.189928853427434 10.658903040051106 9.115803781222601
Be 8.188882301667109 11.611298341083458 6.9806868780325795
Be 9.659966066845985 6.8360830540771484 10.16243070272271
Be 8.380351303195159 8.105440972776119 8.95214504330851
Be 7.732977812416039 10.200044529404648 11.921595699527975
Be 12.659916830858304 11.364207441683412 10.40799384632608
Be 10.771235011826231 12.576123618249703 9.541863960261422
Be 9.056416610891361 11.698517258630757 12.492096941769896
Be 7.3518693716774 9.766748523999851 9.885423033032597
Be 10.657565277022698 7.955405885467472 11.730482022312865
Be 9.111118226210541 10.119343485759888 8.615252355408735
Be 10.798571978264082 9.232794083677387 7.578690750066811
Be 7.449265406807297 9.612565369070197 7.463772304835671
Be 9.182958359842917 12.995720454751421 10.880872512812145
Be 12.536077507218543 9.107909547328532 9.707354357220284
Be 8.785479363378514 12.340603262032777 8.909975412078536
Be 11.23656989340953 9.975908492917434 11.214379902975258
Be 13.58380660384194 9.813821406090437 11.47084089127168
Be 10.90555433637801 11.07152322027771 13.327425937061399
Be 11.663536459850832 7.1130769994757745 9.925699392437425
Be 11.001367704100877 12.183910762733369 11.592663880339284
Be 9.310931292581136 10.097307810044564 6.266645994682649
Be 10.316766692053642 7.206506167968716 8.267666510565043
Be 9.03417079471619 8.247608850377794 7.030278879698394
Be 8.758172394427147 8.611385236619657 10.99598342468875
Be 12.678615561330538 8.006441110273848 11.482857673295412
Be 10.422833755472807 8.836700411907428 9.644239787360377
Be 9.62803982787493 9.618584306241969 12.664688878654047
Be 10.244353191383858 11.533359898125036 7.475794132523138
Be 12.73996426235546 11.316073574115137 12.514538795814117
