37
Energy = -104.69001099 eV
Be 7.700048288100753 8.608863196598021 4.610568862258422
Be 7.456592747410159 6.305066206543313 4.7623111314597235
Be 9.306092068078161 5.091512939592643 4.810416509869726
Be 5.7510747269595095 7.565360414958723 5.503997786402266
Be 5.870622451802041 9.566587946521254 4.934087051872098
Be 9.440012994853122 7.194300467099331 5.2513146133520205
Be 7.600622875970724 4.219135739203656 5.6608490210118925
Be 9.227789173683906 9.171419217060736 6.273501963911972
Be 4.755700217084516 8.899953112656336 6.857725910803495
Be 7.728100492139907 7.649492668522386 6.387673485626479
Be 6.34781305841971 5.795449210316062 6.5953480310923345
Be 8.453505317997596 5.806579489044622 6.540089564067544
Be 6.634192275527983 11.191364689598698 7.616986125188282
Be 7.831367493757805 10.551872018354763 5.451964052670473
Be 10.535046165151408 5.677791150950418 6.4064473862973985
Be 6.750690682141654 9.433002122049205 6.728237331684794
Be 9.36313200339138 3.975984794334702 6.768339215936062
Be 6.169539463044641 7.6804834630830054 7.675030136898603
Be 7.962830407288575 8.762169831006094 8.239847814892302
Be 4.532177593434473 6.697578895809351 7.161301127331122
Be 9.700442879098768 7.417284583017256 7.42106373168946
Be 9.530884808610345 5.431546363782141 8.345614451061067
Be 5.84396793256807 5.743693840632793 8.698309930930545
Be 7.746878461531969 10.666104622455842 9.329417925667709
Be 9.825150740339087 9.377964404757586 8.533322880129592
Be 7.78181545332075 6.596517624686746 8.234648534832617
Be 8.573671190633103 10.771178618551385 7.401986493445245
Be 5.926646892782253 9.527401496615894 8.73516842869572
Be 6.8345697241554015 7.77511393270777 9.638276225146075
Be 7.548952574864181 4.506916880238264 7.916825243383548
Be 9.323321843567522 7.3131293048686326 9.534343857028215
Be 8.662442940842404 9.083207636058376 10.364482430296889
Be 4.8233841889917874 7.5623655817903215 9.200464291502062
Be 7.9997451250274265 7.277211409875634 11.201161074607947
Be 6.039600424362039 6.277980306185546 10.703641625351022
Be 7.857715717212948 5.558202867411657 9.965256523401857
Be 6.7270269918894305 9.433381339096353 10.703147616237992
