36
Energy = -100.46357003 eV
Be 8.02655620712877 7.446279267193002 3.976070349249344
Be 7.118561201419785 9.371651291827797 3.9540738635485235
Be 6.458587767848643 5.761983225621579 4.417679278728338
Be 5.843566375340843 7.922200482681783 4.7405428822173
Be 8.512109630344748 5.288574090979077 4.620914698517598
Be 7.006688945145034 3.7730666108146025 4.805730733312721
Be 4.444093073463996 6.188677683808618 4.725530642658716
Be 9.54756842590913 6.869340255957642 5.664389123132527
Be 8.256639065132726 8.960754054263631 5.594088021816702
Be 7.555294165777633 6.944209146308234 5.837000960283065
Be 5.336169055375595 4.487857461888137 5.7784135047737175
Be 6.192487578325719 9.987464098299832 5.742574772339322
Be 9.947250577085914 4.793450178172798 6.087226052559164
Be 5.514761720990784 6.504551434376111 6.327592696269232
Be 7.317840289314527 5.0685401211402725 6.423913538254353
Be 4.500745197992067 8.576309712146905 6.360567590048447
Be 8.702078069070463 3.2566248935857893 5.74756998644313
Be 6.487191682392451 8.310629235772758 6.75266350703418
Be 6.956375209165794 6.558773812938701 7.788604848821295
Be 8.600376967386257 8.040096573382272 7.464516146209132
Be 7.640900383718574 9.946045923567315 7.509868895649881
Be 6.757455328984143 3.2778015916969574 7.11160217194714
Be 5.546539217014965 9.826098477476156 7.840444857868523
Be 3.8008568062601293 9.002242466636595 8.382443967217233
Be 8.948524703661878 5.9243725636660045 7.547314913903375
Be 7.474245147814587 4.82371512490388 8.756574695133704
Be 4.9770342575497075 7.360310302177611 8.158666829602664
Be 8.896677920616419 3.7492549554522676 7.644226446770535
Be 5.579625221822062 4.985396649058356 7.8482697144913685
Be 6.704148774998737 10.116794718412866 9.668441428696188
Be 6.833063388938533 8.329731409211803 8.66189451703662
Be 8.601084006172774 9.154258268718548 9.334093474547235
Be 5.228101475465076 8.607475728753933 9.895001584974981
Be 8.27902935193287 6.923725245965247 9.429649997322006
Be 6.208490656582601 6.566343341094129 9.742748919176796
Be 7.220025659957994 8.316143108151246 10.679837895547394
