38
Energy = -107.4447256 eV
Be 15.946769663743748 12.755623816386224 17.160388029030333
Be 17.034964497265996 12.577952773583174 13.45173191278606
Be 15.88175844551898 14.860847565875368 17.722359460631857
Be 14.131387457701884 10.82916480780203 14.31564338514429
Be 13.723970127724105 14.792804409531069 17.37044620305576
Be 17.17645121553251 14.163090657271901 14.863025788024798
Be 12.464976473365775 14.022684905897112 15.815873687392912
Be 10.792215566085314 12.36595772145091 12.75971455749834
Be 16.57746355299162 16.033174346388893 13.82417405075222
Be 14.86840656452942 16.130236736013064 14.866402201835937
Be 14.005732344071424 17.972725774638416 15.375993742934185
Be 17.52174426581963 13.917114510577386 16.842308976354687
Be 15.616422798499512 12.556627528649972 15.019767572102467
Be 13.522237582445316 14.893244821820772 14.102869979710889
Be 15.063390097970117 12.049195497195333 12.799592888258644
Be 11.560399526322943 15.589613369177847 14.291214857535708
Be 15.056545579224528 17.822012401403057 13.600358602982311
Be 10.597553878063332 14.510280206601376 12.554559081772505
Be 14.972379078620426 14.31431705924286 15.761229769945862
Be 16.727019340930646 15.81025742737785 16.03943840671609
Be 12.436987894848542 15.439639895811387 12.31452614086968
Be 16.07852609550241 17.693833836231104 15.408592124243327
Be 14.876108272405283 16.4907479204487 16.902400443000186
Be 13.879079021684705 12.5595848686568 16.50166127470907
Be 13.774332886506182 13.762681288990878 12.251249940612608
Be 15.501881130595232 14.156804884668805 13.508970005151587
Be 15.336839661257182 10.934132941746359 16.133098189264164
Be 11.894356699767012 13.476246237210988 11.46600684498688
Be 12.846353295516527 11.892573721344156 12.772012402296783
Be 16.233437564248952 10.828489961149446 14.109914344006219
Be 17.434392540285543 12.138505084281222 15.626151247156127
Be 14.60016537529278 15.961756259815731 12.660769627152568
Be 12.968323470357976 16.165028246700285 15.86025191601194
Be 11.927867894621048 13.589017299102654 13.853859235662
Be 12.169953410576104 11.773438505590606 14.82456039636967
Be 13.804956910370958 12.916356536638878 14.364586398852218
Be 13.291905938517123 10.604374054931679 16.148981828954092
Be 13.085168740825447 16.974122111043698 13.764532705860953
