36
Energy = -100.45239623 eV
Be 7.321192762710316 9.95172880129073 3.385417145549029
Be 6.682933687572026 6.935884964246826 4.7603087512811415
Be 5.882318589816742 9.051162310687987 4.491575160126178
Be 8.859611555277887 6.443756144289991 4.411018589904462
Be 8.219624995886177 8.547152341409605 4.557354426962293
Be 7.707540138704738 5.2322787952961995 5.773240577352539
Be 7.304375566445128 10.41099435184803 5.41527013616344
Be 4.9991214522846 7.69520146293781 5.843811268267455
Be 5.609183788128912 5.390609044255164 5.865146658825942
Be 10.114081195607271 7.773491722011157 5.463888080559253
Be 6.862020536649216 8.621668307918544 6.2304995775816945
Be 5.308563780547547 9.85616032421389 6.4347408896786895
Be 8.30306513690531 7.282141256861812 6.168779187695105
Be 8.827727844504869 4.134139618363012 7.248448448001857
Be 8.920107721582085 9.248268094575117 6.612313715776126
Be 9.828720432974547 5.775020824726611 6.223376971798608
Be 6.447527989009452 6.747870966587335 6.993520261082247
Be 7.27135165282789 10.281442045129767 7.549450976381991
Be 9.110001270735467 8.998734449509472 9.13941841434635
Be 10.100894048826685 5.38584104353028 8.318100027338337
Be 9.887839662466796 7.517260287779017 7.648001313403441
Be 5.467376273456358 10.164637999429415 8.563036292374361
Be 5.393300869627893 8.225646206493925 7.945402534487285
Be 8.269720568664054 6.077308002241321 7.732172601923182
Be 6.812961311821735 6.667537055567413 9.069901205123555
Be 5.08527723914584 5.874516203144757 8.30581393127629
Be 7.671171449638805 8.172749659481727 8.038668122056635
Be 8.263396157317434 4.644376539977388 9.2642805800014
Be 6.698616025032903 4.612760024834609 7.623660113684864
Be 5.606170271947879 8.516241237328721 10.044243218662684
Be 9.03565661433159 6.827961257213525 9.554626188692454
Be 7.174414978495033 9.797091345883032 9.606685854199988
Be 7.6320225894312586 8.027041186276126 10.539282603352044
Be 7.565060099128756 5.843177413229479 10.83464457831249
Be 5.463652928328701 6.471957629573748 10.554252214882853
Be 6.204103666906235 4.706895934594587 9.700354235632796
