31
Energy = -87.41149969 eV
Be 6.403539932423096 7.827447602900792 8.166162942619268
Be 8.075940726164697 8.140446722326946 6.880537145466156
Be 11.917966286441985 8.332432364090685 9.873136799404742
Be 10.350583206822026 8.861032368922299 6.34726965206036
Be 10.806944021329109 11.55932669823302 11.684721356028918
Be 10.681062654165284 8.085496722490195 11.577363126468844
Be 8.804315631217563 10.122052013345709 6.9704436873435505
Be 8.802633709418783 10.953298479504433 12.139736844012488
Be 8.584721539638506 7.7015246640559605 10.886202198311942
Be 9.642746024318244 9.740683736038692 10.503957124981168
Be 11.204481130533976 11.252254422302798 9.543176280037247
Be 7.353799106384335 11.217242737892779 8.199859452316254
Be 8.908406223192237 8.865273307409149 12.576911424137867
Be 8.289333277235759 9.105385868799544 9.053186060044931
Be 7.74859594671476 11.030520207715966 10.210083766278927
Be 10.30806932330786 9.323906080824523 8.571358714954684
Be 9.295007245240765 11.154405686611279 8.713740320672164
Be 8.133619397446816 6.890393625115472 8.848805997815216
Be 9.430774849114211 12.193056268843181 10.428497660187256
Be 10.65909229018711 9.82394005693507 12.724892252579355
Be 10.92893698690263 10.857779572168328 7.317124714048297
Be 12.306763373389417 9.528655590836225 6.61730282111157
Be 6.198773594121926 9.731452093468317 9.348048695659811
Be 9.770255340380249 7.327585780069565 7.570748249035976
Be 12.507447494561738 9.873376693799276 8.66399806205746
Be 11.955408993101239 9.961707278305857 11.037908599707258
Be 6.643156245114939 7.802825069219004 10.153157694331362
Be 10.091627621158304 7.4566975737973396 9.586704408497464
Be 11.758855266925254 7.965095780104646 7.809508078981207
Be 7.3674277636553995 9.392867301116656 11.282914592753528
Be 6.682940178903921 9.622033476863612 7.2640592641664945
