39
Energy = -111.92403224 eV
Be 10.247884974620844 5.448478797837724 8.412488070220036
Be 11.992332539080712 7.742388119744618 9.696135393957787
Be 11.264089008065145 8.37686379490295 6.708228630721286
Be 9.93517133531752 6.79970078283627 6.459690625081375
Be 11.999162974455349 9.574471259844021 10.592261873899313
Be 11.237304967279023 7.906192838249481 11.751287739197272
Be 10.541269613221628 6.363502003281072 10.240548831926054
Be 10.642162605964854 10.253611052611621 6.444259635119587
Be 11.157291758076456 9.520325060421998 8.55898389852293
Be 9.529629529256379 8.70267913008657 5.385573096848588
Be 8.454680408241174 5.99567211352551 7.637299923506178
Be 10.504528381774971 7.420396713605273 8.368470014732779
Be 10.022062199352918 8.503688523818772 10.265185405403772
Be 10.681643665181864 10.108908422861155 12.027686926515514
Be 9.143449049539555 8.807223805393065 7.532875452436502
Be 10.394273485649318 10.890553110476038 10.132242139413966
Be 7.1798545607674145 7.682842032890481 7.512347994227836
Be 8.639894172821611 10.61636369064508 6.193072596654882
Be 9.611347026268538 10.984895629099137 8.073732510496276
Be 8.056415613503384 7.148876068451208 5.782274972106855
Be 7.37406265657787 9.08906953279698 5.923966758343911
Be 8.001554920735659 12.134524796880983 7.48846552845248
Be 9.262211396179778 8.770974695170768 12.393094939480163
Be 8.619120069484408 5.47634721421393 9.79958016974064
Be 8.658089011176491 9.73797403940093 9.505803684623007
Be 8.43363682605507 7.598637606099946 9.27075972861111
Be 7.449531741873882 9.89544726579136 7.942353905872191
Be 8.307900308006785 11.775024442528219 9.597503464952572
Be 8.983873584495074 6.950966511149576 11.403016298383454
Be 6.7704029206717165 6.195604898611481 8.862207886726381
Be 8.690128860987496 10.572619050259915 11.405276009201774
Be 5.6637875942538365 8.943701441197327 7.095286360464038
Be 6.3035569418129835 10.971579219723 6.672474803825605
Be 6.422132379541756 11.95480957701759 8.681244165269563
Be 7.6637370601513 8.67610152496504 11.073575541575497
Be 7.051267923610956 6.718439391429652 10.771389212199106
Be 6.300654693185756 8.4176749487838 9.333552876675194
Be 6.714064848518828 10.452903499912527 10.139607612824081
Be 5.329092080926111 10.26475411968816 8.579746082795223
