33
Energy = -91.59854735 eV
Be 7.034168802044884 10.115558865142555 9.107519833078769
Be 9.607716264028554 12.569451413448549 9.643798149479974
Be 12.11687617968841 10.4068930466175 10.472149288070316
Be 7.171534009144715 9.502659084891402 11.141584688025175
Be 8.31056616024515 8.255686450628463 9.63592708961515
Be 6.892773576973511 7.485658354056651 11.39325883536059
Be 12.590383677058009 10.168749378413706 8.434825676454977
Be 10.104150200165805 8.04146058331927 8.529770018726754
Be 11.780082306109039 8.543177694911744 9.69707780839862
Be 11.9109372105344 11.74021403413527 7.267932393920412
Be 9.902867273978432 10.840424934777383 6.680975736115996
Be 8.447588112768022 11.480884947608322 8.227942095008638
Be 6.232540787080389 6.713065997039683 8.142163481817558
Be 7.677514677102303 5.463492844206884 8.752184972444216
Be 11.604392325965055 12.01682454172815 9.281144069419303
Be 8.782214640039975 8.148161388821876 11.85509530454122
Be 11.778111713401008 9.919191512208542 6.362982772975734
Be 10.207058197039055 10.17518090562354 8.958438176178333
Be 8.245846876613724 11.200544854676384 10.352569799665293
Be 11.930605799746157 8.350894363532785 7.634856257429159
Be 10.404554891961181 11.342738418893793 11.01958841294305
Be 10.122729471062456 8.678332367690565 6.558363590190152
Be 10.624945833229301 9.191888333937134 11.353696001894303
Be 6.02624325436033 8.278275345390538 9.650512639242843
Be 6.270001368195563 6.105684119632195 10.075885549987305
Be 10.238424655198244 7.332304297824636 10.571191154259823
Be 9.558698992862292 6.162360284167764 9.008544266743986
Be 6.6924813169432475 8.641215500697372 7.711663383727149
Be 8.941063741118406 10.192483526634144 12.003258988121575
Be 8.567088354814219 9.444088776794061 7.7005099796650995
Be 8.400303912576039 6.205308463310636 10.734769147331022
Be 10.16465972681795 12.587484916846263 7.721025259134376
Be 8.349007913677058 7.299595241145138 7.582364981090175
