38
Energy = -108.86045609 eV
Be 13.939507206741247 16.1421682724991 18.140376261679634
Be 12.919101772358573 14.229197922233633 14.685804463006471
Be 13.984293849643077 14.063194592210866 17.901991282669574
Be 12.644288905949624 17.299390524343217 12.930475690728448
Be 16.822604053432105 14.278859552327114 12.984923198241367
Be 14.558581185629965 18.541540254174066 15.583667549699916
Be 13.933904340772292 12.410548500027538 14.13910937146716
Be 15.525299800373809 12.827379079913163 17.108801159296142
Be 15.879971002708492 13.150134284954007 14.84691315064729
Be 14.804094524254435 14.554493083673442 15.907641417106563
Be 17.12287844251972 16.321237111174504 16.684331900957798
Be 14.60313109564062 18.09571638138591 13.451842548373214
Be 14.373269390716146 18.2581333610637 17.64061256673142
Be 12.055823570165655 16.20957883450169 14.668126951111244
Be 12.852455241005515 15.162783792475427 16.530100795900175
Be 17.91435260299458 13.837390601142848 14.707952123399485
Be 15.889527428677734 17.09088655349508 18.363585883199967
Be 12.7689709579238 18.23404809864198 14.689870557180013
Be 15.563016532732648 12.733327305321533 12.588595317943502
Be 15.797925182365088 15.013068398938849 17.93069638964584
Be 14.285590963339565 16.67918267028965 11.871737979433549
Be 16.954754176781652 14.18949692315113 16.48924740560857
Be 12.964232146163056 17.217409868957418 16.458076907956695
Be 16.295484830494075 18.322585156634826 16.79908633283231
Be 15.069393414149314 16.51781215997895 16.411731153293672
Be 16.43459503909736 15.39865236530982 14.7993915476073
Be 14.761577495776331 14.404530652457415 13.646464265354005
Be 17.344392640144417 12.090635157716564 13.648921077945552
Be 16.188596105838027 17.491316225623663 14.846338160339407
Be 15.07996724292557 11.27424648433823 15.730369599056763
Be 13.081775383933152 15.284930784849134 12.82764141981125
Be 13.599938270454345 12.868384655555236 16.15563478044696
Be 15.476852440851934 11.049849126221526 13.701271669210126
Be 15.953845179349916 16.365986383912144 12.959176769350583
Be 17.30274421710938 12.144362300525115 15.956508396119178
Be 14.239201472703146 16.244818861399924 14.531579676791946
Be 16.848114642119 10.42798045195004 14.974374724563726
Be 15.191014677083109 14.836401216829719 11.737199413867428
