35
Energy = -97.72997343 eV
Be 7.071760285256626 10.948244212310644 12.75009869049071
Be 14.291619360859439 10.912798713052956 13.855127624089752
Be 7.30455025534902 9.057527386038558 12.09703477057961
Be 9.186152360443865 8.351946182839951 12.035533023358477
Be 13.547836408269612 11.261988734812636 8.67840054426126
Be 10.544274451034317 11.26166922376918 13.260564599517167
Be 12.58804578414791 9.124538103490664 11.317093402532105
Be 11.142444920515882 11.124925500893251 11.122610948298568
Be 11.475130610379155 13.356319437853108 10.503224515264074
Be 12.558645286116507 10.692963728661827 12.734793197380412
Be 6.7047038297896675 10.497380565785546 10.817345363170839
Be 10.875734308273625 9.33327514510838 12.632042553933713
Be 13.107673511939474 11.686215182642528 10.73418014706533
Be 8.65632484025539 12.107842441297926 13.295214691737176
Be 9.135777084961013 10.731130219411483 11.546023514051063
Be 8.417469267387347 9.203685510173777 10.243082599270936
Be 10.385096145209205 13.239965840181247 13.732043513452272
Be 15.280501086304882 11.346771855595135 10.409074730111898
Be 11.550694982164405 11.93324638450618 8.987783657717323
Be 14.071571346681335 9.710155865278036 9.919872232908828
Be 13.308885443086062 13.921160657444789 11.333640542088105
Be 8.07690003639618 11.246239505585628 9.54702812564304
Be 7.828706912706217 12.411909744802932 11.260324774412164
Be 14.386962222758347 10.161229335443744 11.905005137618497
Be 9.97456376337914 10.454231305598169 9.31526241764982
Be 9.88118441024511 12.84785926559712 11.80952621209007
Be 12.071033919704458 9.92009946461908 9.407741009366456
Be 15.035506274111968 13.387486220313011 10.528383053202171
Be 14.367034315440277 12.324257985030412 12.27517042846343
Be 12.03943259657648 12.699065052998694 12.456398623770008
Be 10.577963901625342 8.929432673607394 10.586821609573757
Be 9.659227933807449 12.492243900716865 9.8129870794771
Be 15.164539962240253 12.497645562206532 8.745424181850865
Be 13.248951748609981 13.33713066597382 9.259355709296125
Be 8.878434541498994 9.882752533884064 13.481120883831029
