38
Energy = -90.69250345 eV
Be 14.666094474256054 14.33416637838919 17.433021976520628
Be 18.258364448872744 14.61743169771734 14.54552318671292
Be 13.982054093361995 14.553978507167947 13.161362350946481
Be 15.958468493890194 14.911708037098307 14.015359645731406
Be 12.567078741209693 13.906253667161527 14.439175744111413
Be 17.678010163237687 16.22474796105329 13.639897212158312
Be 16.396326837142887 18.083208437370153 13.33548187796463
Be 18.124334103637796 15.584461246491427 17.743576842405567
Be 6.661274127158352 20.03771077308469 15.069000055214477
Be 18.296479154525706 17.756793190179184 12.453918576390905
Be 16.250292832793246 14.90962201643568 16.075406345614894
Be 14.792947752837293 19.092289817582863 21.519839858141328
Be 15.266870256239912 12.57522200315701 18.277189079571134
Be 14.77413637276004 13.501410845041379 15.284895587306584
Be 16.680041268952188 17.815632206178602 21.79541325354039
Be 14.088363562859286 15.500592233453343 15.10630149002706
Be 15.624407117030938 12.996533944066494 12.929165976134804
Be 18.06431995826296 13.910820537984609 16.467872814751694
Be 17.006484242589195 13.004542705557324 14.511326981297717
Be 17.294169442345822 14.296448902943204 12.594197590437622
Be 15.460939401071823 14.779022591388122 11.828109464187863
Be 13.330627166234954 12.601442588845806 17.49580345590457
Be 19.121345000735946 17.428074906946833 14.490426019774654
Be 17.37786480337488 18.223323334928374 15.336179997310651
Be 18.26406535425768 19.190722127716878 13.829867022690351
Be 12.896773895080514 14.20452452657252 16.381589083481977
Be 14.651462329604476 11.494759574570796 16.570332613394243
Be 15.206773629526525 11.61639417590481 14.500514665381177
Be 13.030879142848162 12.125725204292193 15.407863248092461
Be 15.93659103751784 16.794904912324295 14.953284790406284
Be 14.858166010164716 16.477390806064633 13.119918699242715
Be 8.850283472626845 18.379632583337443 18.21039752583322
Be 16.388799817662328 12.582669683515643 16.463646668700733
Be 16.687522137467177 14.043757310370934 17.993999504959778
Be 7.765803035391896 19.200413878682845 16.630267051801088
Be 13.64086118023805 12.50310864696731 13.429202384443897
Be 17.93922737526895 16.232157486368518 15.733679309616562
Be 16.57360226358844 16.453428571515378 11.943734470975148
