37
Energy = -105.78822586 eV
Be 12.677655984346805 10.55255323676238 9.762390232423412
Be 11.988601864799913 9.80793768801452 11.765071422881215
Be 13.28490363923959 8.672502318602378 10.635940565878855
Be 10.744855019344392 11.569021952286102 8.749885830183773
Be 10.577690266831748 10.879986751943242 12.905919488816508
Be 10.598651696348679 8.854443549145355 13.272089893660041
Be 9.540201440909089 12.71838267648397 10.06433961287334
Be 11.753269760054005 10.108536109612357 7.696430988179992
Be 9.069616556856161 11.78087318088642 11.793032041005622
Be 12.881260850202619 8.695482234861407 8.68249712211169
Be 9.597663110327366 9.545672180650369 11.497136208017723
Be 10.050524561425684 7.401412123090464 11.525255192460001
Be 11.044874323443821 8.06336584543219 8.05756955880481
Be 10.890001271431803 11.338227435330353 10.869711185834486
Be 11.67082216028828 7.469022182674622 10.03573012438269
Be 8.813961741737529 12.11813704235653 8.246679734881408
Be 8.709647202273285 10.073108757123007 13.463534910637723
Be 10.188439005694786 11.338724848159597 6.670982304233774
Be 10.916035492411707 9.549364096405869 9.71126801228529
Be 8.759849590379138 8.005426882978057 13.021140081164036
Be 7.329936371455576 10.688373265828272 8.422055373812737
Be 7.54773522699837 11.955645334620836 10.21264830379487
Be 10.65046419781947 9.040689262383268 6.245235794705024
Be 9.036471598575027 10.493562688715885 9.805728121734424
Be 9.529936358327888 8.030256398742448 9.557780263943576
Be 8.969293924361065 8.09584430923747 5.511613083146762
Be 9.007837021425917 7.72083945223208 7.5164671339222515
Be 9.479836325770682 9.772537519399132 7.93737780559117
Be 7.249178967781568 11.06225221195813 12.174587172045351
Be 7.000805627661826 9.891457485774747 10.478282304387596
Be 8.003098126404144 8.02713361922396 10.962351876400884
Be 7.104857558034373 9.067128030368304 12.512694204203491
Be 9.214294411420592 10.10554191114687 5.283547685614194
Be 8.073003067178286 11.207867815328225 6.520900313906874
Be 7.693954749020118 9.17087186470412 6.747257849717086
Be 7.71677306857073 8.676528607665919 8.888458550643465
Be 11.943408322589768 7.760699591613142 12.105820113455463
