34
Energy = -94.57116243 eV
Be 9.569949656433213 7.162456070336769 9.49306457730358
Be 13.201857589312809 12.387285312154258 11.055807064494994
Be 12.689563898059093 8.995303812156585 9.726714022249094
Be 11.532556353739427 11.947679596010175 8.158959014346598
Be 8.788829027574542 13.000735960465809 10.435922532711071
Be 7.464679122682374 9.333348718827242 11.280677493434112
Be 8.186808073290017 10.890310438940183 7.936072970841327
Be 11.546523201930574 12.710218371365475 12.14862019331727
Be 11.021882110605299 10.791138269166064 13.13081129867359
Be 9.179962855167217 7.820752330921106 11.442694990291761
Be 12.700223968151493 9.597663358606054 13.23499871968526
Be 12.936313189572859 8.369212611261625 11.648721633006758
Be 9.847694816793595 11.750882432226868 11.635495263859642
Be 11.305044674953757 7.440171917178438 10.626737287832398
Be 11.612111986590076 10.730307854112588 10.87976626017472
Be 8.877375562207337 8.867907579260967 8.481933392595874
Be 7.031647577361703 9.773886884085124 9.177928793013086
Be 9.38404864995966 12.475044037638861 8.547532094639045
Be 13.038932993099447 11.544492296484105 12.923764547800143
Be 12.797996694557966 13.138325691367255 9.223844371672223
Be 10.939074214225256 12.83816259738025 10.08441272660746
Be 7.317146236583488 12.022441577142018 9.428681392589635
Be 9.27879490863232 9.882384659380708 12.115697234748279
Be 7.696635673035804 7.883186808932589 9.886617747508064
Be 7.795399718332429 11.44553489599705 11.567794069453878
Be 8.95977474004882 10.684057899401182 9.950395524712077
Be 10.186716613055953 10.429758579970182 7.915725722553719
Be 11.009207521284425 8.75783974953415 12.325118683733098
Be 11.03305586483618 8.374936252555393 8.469163224161003
Be 13.24588516513408 11.141603502619988 9.350342333788031
Be 13.709382247752924 10.278815170582376 11.29883792078587
Be 12.167885145051974 10.021773298433784 8.014736211299073
Be 6.133182830952494 10.815878549973018 10.640962324212321
Be 10.303961975521005 9.1866077720224 10.251553218395594
