34
Energy = -94.27971665 eV
Be 9.85969995961665 9.786581342549947 6.779585963292019
Be 8.231250519269173 11.525442416977054 11.135590665919
Be 10.299123268117235 7.9291668736399465 12.084225514568422
Be 8.126041323398523 10.399222575835008 7.656921313617256
Be 13.59594641543916 9.85759840262017 10.78226074453156
Be 10.714087265190214 11.625768374010446 11.645955339759137
Be 9.227676816938365 12.382508795539602 14.374548968348423
Be 11.353152072821773 9.525033661301428 10.45983873085841
Be 11.483877483279677 12.877141910181047 9.949118007222763
Be 9.5800794193863 7.845460842429985 10.186255191839592
Be 12.415636988982472 8.488894815102855 12.064072439177576
Be 13.140303322005076 7.873662615165561 10.227197102550425
Be 11.053637312006025 11.532869311255666 13.823767576070564
Be 12.348091511393305 12.798874905178348 12.783609107099318
Be 9.397674359488219 13.010731244093678 10.261270610659958
Be 11.39270059757193 7.034802991888808 10.677153720465144
Be 12.665256848907564 10.644510036979804 12.505185638650296
Be 8.963382105479086 13.027954723039532 12.421114583531898
Be 9.605139376973538 9.26773526080538 8.79405528397655
Be 10.208654248501793 11.147662404154454 9.656446746869733
Be 9.357943241323618 9.721441636178255 11.243220961059398
Be 7.920407298066497 9.903937115196728 9.743375939687942
Be 10.824133091723134 9.742163869861201 12.794141223495224
Be 9.066308804547937 10.890703463075644 12.981555966053216
Be 8.093848864727562 11.839808283512475 9.067264742599763
Be 13.248856319850768 12.02147537917537 11.07317140837936
Be 9.789262977685341 11.646558918864441 7.734804483642524
Be 12.683967559277422 13.98320109372293 11.170332177472245
Be 10.649972893279928 13.583906819373825 13.611805900533689
Be 13.13634779247594 9.266080855956233 8.837249905612602
Be 11.37116965953441 10.087854341492255 8.107671202356276
Be 10.701684543587794 13.929849822174509 11.61278080416657
Be 11.377243336832578 8.061102240294492 8.791449697960767
Be 12.550200247392208 11.17305050344353 9.3957601830442
