36
Energy = -101.50044896 eV
Be 10.83744939420455 11.042177920269838 9.260915469163255
Be 10.843189292334998 10.150336181011763 12.553042950304091
Be 7.310249947091821 10.049070773741425 9.5581377488097
Be 11.08177313896272 13.183624960801286 9.690957943134643
Be 9.310868410160994 7.0021433234179655 11.528113965644854
Be 12.483582584162885 7.544680330173084 7.575395254288012
Be 12.068856881190408 9.426356388229449 8.568704030886629
Be 11.15074287373987 8.067381736278852 11.729152189036911
Be 12.110600457435556 7.724584712942628 9.783269582788742
Be 9.456501505352966 12.972148362108664 11.087827877441192
Be 7.942582128806129 12.042652758074281 12.225879848323947
Be 8.036677816832812 8.328565507205582 10.43756103768925
Be 8.609042812756982 8.91295016407672 8.384735061024008
Be 13.536550702441053 10.891164125917511 8.29643796549168
Be 10.953357448555261 6.24311878676037 10.641593380723844
Be 8.61926177844989 11.097289493975055 8.37975423288304
Be 7.4580196515657216 10.095710755855727 11.611628855103483
Be 11.28672838115465 11.903603657290287 11.311921265707639
Be 9.950516689829975 12.05234480673119 12.90984931544732
Be 9.411351530314867 10.7461189680028 10.846607353855727
Be 12.804328728918241 11.826392893129414 9.94023086538297
Be 9.160866069752618 12.971159240500493 9.062944146298316
Be 9.20493398979952 8.930528264007638 12.018612667358301
Be 8.778584305148978 10.514728719633375 13.285675369098927
Be 7.714831792021049 11.969685670716263 10.166982816208366
Be 10.421811982055482 12.230858904490706 7.539191601322387
Be 10.441461607883223 7.958986713485537 7.847374401193264
Be 13.307098425019642 9.337249052572988 6.863225546250907
Be 11.986809288516087 9.891654777338083 10.741607771473529
Be 12.353444036528263 12.58121001541927 8.086284788193588
Be 9.366712359366227 7.010545521049226 9.424410738235958
Be 10.284871659063525 8.92568660081747 9.871042702798205
Be 10.121858014880406 10.039881478131127 7.363314519349111
Be 11.9914986224546 10.947627363229516 6.790806090827965
Be 11.22773489590245 6.258365551819544 8.605477019535588
Be 11.490647175820321 8.877757271860277 6.287174289467
