36
Energy = -101.43072398 eV
Be 10.486127931368811 11.325502905950353 8.282083883764285
Be 6.931019046046309 10.271631522913365 8.42613322549134
Be 7.340370074040589 8.384709382389598 8.035180519888032
Be 11.547921048256566 12.264902090503387 9.816746264068886
Be 9.415422289727868 8.452325115278704 10.908411366749686
Be 9.811392590765324 11.285443566334905 10.860065979126157
Be 11.450917914575374 11.563249921984733 11.940374176876007
Be 8.841449067961083 9.675431185394343 7.418611420065937
Be 7.73093568200577 11.36452946575843 10.069693014790467
Be 12.265773031677837 13.00919475795061 13.68107954984352
Be 14.144263776281631 9.717454682380676 9.650146983362207
Be 7.464023204086072 9.08826963512766 9.9906678102719
Be 14.274817664661567 9.844029798705037 11.745394739469832
Be 11.400784978442452 11.144499770532327 13.942768086237715
Be 10.45785763407874 13.354363998869726 11.24055349552862
Be 8.294117555194724 10.164856517084631 11.723040788072804
Be 8.386385453287371 11.577443066735535 8.062100842590967
Be 9.25622175757975 8.008666952770056 8.760296948930934
Be 8.554974135339046 12.586657651650846 11.782422511144102
Be 12.670819115873568 13.191109614915032 11.556740588570301
Be 11.364165089447923 9.942448728823704 10.378888360680838
Be 9.265886396367659 9.98768182464947 9.41137722109473
Be 13.03563730267369 8.390567545145894 10.770874770217668
Be 13.365435521862691 11.47875689693248 12.884644241655907
Be 13.200845025696196 11.246164927730929 10.712056232109227
Be 11.28260634592379 8.019086528467898 11.787978376687686
Be 11.121253591430825 7.8133096006353595 9.74002519597041
Be 10.853216681910531 9.22514206378572 8.165403018288824
Be 10.304480237843052 9.698166732086186 12.442502242947267
Be 10.20599103842369 13.067670793682868 13.353760263897621
Be 12.751541047297346 8.617478998049307 8.673857138830822
Be 9.335102256324479 11.298068242956974 13.162696830340368
Be 11.506734216909953 14.503738598530024 12.592277844558591
Be 12.534528314101623 10.705143719308984 8.62883195290836
Be 9.363499343627119 12.715867160338345 9.512200987599295
Be 12.4148179073677 9.64777030410409 12.521447395826323
