30
Energy = -84.32177778 eV
Be 10.63814767599186 6.407629374048942 8.075755005114182
Be 11.842099727259708 9.775484738459795 7.834893776982587
Be 11.868917079126588 7.994480657288929 8.80739610393138
Be 10.510091111851962 8.332434880115661 7.0691683422984655
Be 8.8452343787384 6.952689198247935 7.199361716783627
Be 8.884479193919443 6.06735832862307 9.055846145394314
Be 9.410755879870747 11.784837293902047 8.941263622608174
Be 11.478184825972892 11.60065039370965 8.789150974628228
Be 12.711059123482967 9.949268650139588 9.695763912053891
Be 11.841332078622795 8.45850771325175 10.77564483445503
Be 9.569340066575416 8.231627041628592 8.934171542201625
Be 9.812962445120323 10.274734957740588 7.668713147435474
Be 8.27269362083984 8.949485060608277 7.3312457106588145
Be 10.552014643398175 6.870138546411048 10.187127333147407
Be 7.70102723936559 11.016527061212717 8.025274042745457
Be 12.433494501436504 11.77364232853669 10.612259997033473
Be 7.348064545408181 7.573692500091939 8.657888964542005
Be 6.4280053311122485 9.355337559060251 8.214867462600683
Be 8.275456368821837 7.423648718853828 10.498833902178124
Be 10.490798842973517 9.934246765405105 9.672210406167752
Be 7.881154884595032 9.003371688347988 11.76198735327461
Be 6.176815205383029 10.890227855096903 9.503975844167156
Be 6.835907380729081 10.654163273215362 11.366510225117272
Be 9.843575909226557 8.645766429821931 11.231267706283589
Be 11.312829726952518 10.347517832076795 11.573654151218951
Be 6.432061075756176 8.752660183311397 10.266381691708759
Be 8.341214445412016 9.713523762485929 9.61330418931375
Be 10.404362228647443 12.11251716429248 10.649389025157534
Be 7.895519811845145 11.947416386304614 10.25329131244611
Be 9.150647479911921 10.682373711579581 11.46760242802299
