48
Energy = -138.48199538 eV
Be 8.046703947958873 8.246180617539451 4.2977172502524645
Be 7.376395562983907 9.779518058079512 5.554194559196557
Be 10.004332708594623 7.342105762903849 4.960266781714071
Be 9.574509632254314 9.421455712220983 5.276912525940437
Be 8.202354924974992 6.123920622032091 5.116858467127472
Be 6.252931720669255 7.929290311888984 5.697779034676811
Be 11.593397872825394 8.665739597737824 5.705230168828518
Be 10.04467808060985 5.2128613001439685 5.444205955762619
Be 8.294293897163392 7.905311137360058 6.208896340062158
Be 6.233718731071974 4.860944746280942 7.815952879039358
Be 8.78029899636635 11.19921180159332 6.232287247828632
Be 11.483733467719937 6.526911159699703 6.2229800996810285
Be 6.770692742676552 8.514458856030418 7.741085150524107
Be 7.007200966443063 10.692467631286247 7.50048137078378
Be 10.284879816292934 8.079194031486711 7.089430299723979
Be 10.715826447088828 10.284448147867534 6.891281884853208
Be 9.309871555608456 6.352376330217298 6.993921767749977
Be 8.32060545686907 4.607735761521992 6.61277082207447
Be 5.221753893514492 6.867106785061883 7.313790345225381
Be 8.69460141801795 9.522621663775015 7.282120288472305
Be 7.235344408099404 6.4047893339796795 6.993972710689106
Be 12.09216248064636 8.995013554665219 7.829197869520403
Be 4.8484046995451 9.026849556889095 7.386750461319553
Be 10.71846416655515 5.218692211247439 7.734942300819356
Be 8.420803972374488 5.323403995116452 8.589778071354147
Be 3.4403341078177667 7.56878309306421 8.216928719846685
Be 11.378774138497395 10.604520301612341 8.950762470776906
Be 6.630158798448391 6.387308541294745 9.085039015063668
Be 9.976848858779267 9.099784180352918 8.758582515542319
Be 8.432891423896535 7.629498699529053 8.486425767301402
Be 4.53012165558375 5.937723635006337 9.055766388633637
Be 8.050134910419326 9.756902519455183 9.181785894228208
Be 9.412110991896052 11.160499550658544 8.403941461140853
Be 5.266743147639635 7.931971022920085 9.1421477297552
Be 10.159843625164529 6.7500945458981505 9.214935985911644
Be 11.967188644316835 6.95780364877591 8.201490881977744
Be 5.946035946643468 9.90318125239286 9.249837973158446
Be 9.778581673428093 10.319196088401467 10.385013800454937
Be 3.847704836588901 9.3683518283835 9.333496731371016
Be 11.499228634682401 8.43072856131802 9.809806783835185
Be 8.268519783033257 6.460471615561547 10.374682080710192
Be 7.050653538094372 8.139322303696748 10.199902929119716
Be 3.601978469517983 7.35610170969552 10.308736435406779
Be 9.217496444922572 8.322894116283358 10.548666354545343
Be 5.525230223461879 6.7751329856222045 10.820924189854331
Be 7.680560911865562 9.753507189726681 11.209662830320402
Be 5.27411858926183 8.919950427204347 11.01667401960018
Be 3.277133960366726 9.104018377770235 11.292339269475146
