42
Energy = -121.2504702 eV
Be 8.569417001478548 11.125726436542926 8.121032170095889
Be 9.160042613129873 9.155617072691717 8.761539710540283
Be 12.246332840211103 10.8944283849896 8.345005015144627
Be 10.468113659804454 12.262687782778052 7.8408990675233134
Be 10.407781594012286 10.17237312010105 7.545604882679001
Be 8.205051248356472 10.356755651198629 10.125559183068582
Be 11.262808861772104 8.737364082629908 8.97421737942112
Be 10.235904604598412 14.108501125483363 8.985019987195379
Be 8.595049100146458 13.230684670041658 8.268652898662182
Be 9.853887584246221 8.855561245489763 10.677197455336358
Be 13.063244593038661 9.411773668248339 9.800559830057166
Be 9.626950987882736 12.281298151820842 10.092614100608058
Be 13.288098576709604 11.528951293480057 10.138695203032881
Be 10.78978925352049 13.986814774284142 10.987189192980722
Be 11.725606472687783 12.724796425490322 9.396004326294513
Be 7.4811902136007875 12.233282190181624 9.608844411758101
Be 8.639897173528146 13.988979041421853 10.42271108083496
Be 10.67394604937539 10.625376186238947 9.703866473878886
Be 11.57204024785461 9.851549354040657 11.568712661090116
Be 14.828868119805367 10.320619315555826 10.699828579956812
Be 12.94482904764885 13.326473286021248 11.165085329858716
Be 11.851397664640292 8.015343513288585 10.832141040956792
Be 11.358578905299481 11.984823708865282 11.239046471001803
Be 9.606591825894657 10.769558532935202 11.585658872747823
Be 14.826620958084204 12.202579784179255 11.667638631300385
Be 7.990244030512812 12.056019707391387 11.568097657294883
Be 13.612883095291075 9.139331755357375 11.878852908206776
Be 11.625668549807138 13.458743134417809 12.905193864684954
Be 13.802034329987038 13.456399828824626 13.021780880121689
Be 9.031316511377938 11.171453191946155 13.539196549567315
Be 15.341836216891165 10.457533729890665 12.635235716423631
Be 11.134261108957192 11.205641655895954 13.089745742282958
Be 9.63901757732358 12.895222957336173 12.48796160490006
Be 13.04016525484906 11.270439613062742 12.427001985608822
Be 12.663651978229916 12.732690844170605 14.52512362383546
Be 12.059505261780654 9.21023003319045 13.528275592574465
Be 14.488695339407531 11.750025623291894 14.036662427469775
Be 9.995165633981395 9.285800117817834 12.934860585901852
Be 10.447516356984728 10.159480514387901 14.732404191224687
Be 12.492548060904127 10.758687514294698 14.85614359389648
Be 10.559615263036006 12.394892576779899 14.573584396739546
Be 14.03891507233812 9.69056724293112 13.951633562228478
