48
Energy = -140.06252533 eV
Be 10.105506621267073 13.016162021879563 7.111757295389613
Be 11.177217345788433 11.327104510168915 7.3633265082010215
Be 10.50143619660424 9.47780963881974 6.730339156756643
Be 8.643319838270616 8.956991422797111 7.267903428731989
Be 11.94343925988163 9.578549843636672 8.238643465146602
Be 9.105678059543525 11.014122731385196 7.068556180154504
Be 10.055797813256662 14.144727921332754 8.893610433762415
Be 10.437245012189758 7.9624527540280825 8.218107000252486
Be 11.824076623932061 13.205003027639158 8.27699447375004
Be 13.15239474979746 11.514918583567317 8.204469108417793
Be 7.874243155414863 10.165753616165793 8.713158363493898
Be 11.13942653758207 9.713975111748242 10.606117791722777
Be 8.78187093105625 9.491892756204168 10.589084702307627
Be 9.92442320408056 10.047803986350186 8.88272492197775
Be 11.505045838120457 11.40932593390069 9.468263395803243
Be 9.027528375707405 13.350440742177856 10.592519525367695
Be 9.252594304313618 12.128325884660088 8.89062367763886
Be 13.145454084110355 12.902492779118605 9.924731677230833
Be 11.168450548349968 13.307476461100128 10.40092578100127
Be 10.045870738001064 7.730862884055113 10.267109569849826
Be 14.65265899737895 11.577576610464304 9.660961532714508
Be 8.434638333096357 8.123233654998103 9.057357370923345
Be 13.359547537864017 9.878139320874485 9.693046816085761
Be 12.07427826144795 8.090919069733513 9.775058998421548
Be 12.988548829927078 9.078606513657252 11.62636858526197
Be 11.235947788290336 7.938851910600527 11.918932176860165
Be 14.27671036369402 12.257687143881643 11.664024935422516
Be 7.921194291988794 11.454206531412046 10.457147406727644
Be 12.598553329766963 13.583847428933804 12.018064167318856
Be 12.08822647630102 11.357213273350453 11.727924883280007
Be 10.322431412844725 13.591069804668209 12.253874478791857
Be 10.00297592721602 11.4796270091856 11.000044059793838
Be 14.677168604338863 10.270805426227419 11.264915645429106
Be 7.801133429848702 10.193762867493417 12.293931883663758
Be 8.96732699415409 7.998408896976722 12.082130944141536
Be 13.468130574218982 12.499323756827957 13.544777334328973
Be 8.479475938081602 12.297548701772923 12.341128177924743
Be 10.256767929203571 8.005707808351877 13.767392812494109
Be 10.004241296740826 9.859521943726504 12.411954907313154
Be 13.74623581955208 10.522686060313609 13.079992676897966
Be 9.357609002828665 13.140974231283371 14.025681762354015
Be 11.601510883988958 13.275828711830895 13.85999313473129
Be 8.53524876188286 9.058001569895263 13.895057476185713
Be 12.164491278399217 11.151669009791055 14.360941147669262
Be 8.522217976046361 11.086306440960247 14.050535234613875
Be 10.413123931099163 11.630969234921123 13.38511910876646
Be 11.972064890407152 9.260976223762855 13.49222956735143
Be 10.307915385216162 9.931731716460366 14.623839800666143
