42
Energy = -120.72980434 eV
Be 9.80386611484155 6.99247737804476 10.836911383717716
Be 11.84661447837945 7.367961574447503 11.15698389980652
Be 13.700441730137637 8.112332464810635 10.955489703825641
Be 8.340019797088342 7.69641640151265 12.170743483369996
Be 7.7665238467661535 7.177258739893292 10.198701005059569
Be 11.266134817908982 6.702400809001631 9.250391013690054
Be 10.319960737550954 8.384683065747492 12.283473326411512
Be 12.780657230439827 8.045859698677813 9.090957162766905
Be 12.279994190517442 9.169413413104973 12.185898040996527
Be 8.69549988315513 9.693032225558607 12.756520993301349
Be 9.42698288719196 7.457986261642974 8.916785106725417
Be 11.186488526208588 7.980127099969447 7.523421735967675
Be 9.06529255186903 7.505138893341719 6.945857038748735
Be 6.952379197449719 9.139684991047988 11.610765653282304
Be 9.92489037818025 8.757668930779968 5.660566728843088
Be 8.862360713679978 9.080059734711279 10.408739629617049
Be 12.905011063498431 9.823125820274837 10.266238045595657
Be 10.73430269510116 10.188333110672074 13.384806011796915
Be 6.165370297346791 8.34912318784764 9.90921317594662
Be 10.894798264948644 8.953900320636341 9.910697556830884
Be 10.212446225182285 10.445396458143277 11.369353343069823
Be 7.668879158472587 8.513056544890736 8.403395361326835
Be 12.260892981843828 11.188448532390758 11.86571980847317
Be 11.228227536257132 12.151291026221465 13.345345289881699
Be 8.073835191930902 9.193559816285099 6.337726107204892
Be 9.651087156590014 9.44156109519109 8.030568982135255
Be 12.09415730635497 9.875480998013343 8.306872055412438
Be 7.928558786269932 11.052608737128317 11.333400944502094
Be 7.060641638520827 10.161730987634744 9.670799984230175
Be 9.302316975198082 11.757391294965396 12.811043591892117
Be 9.271028079380972 11.008939983420618 9.505526996136574
Be 11.23426946038334 9.95676604839525 6.482800590757059
Be 7.770038454926595 10.730377128952588 7.770797919066756
Be 11.525955908082388 11.34046184227901 9.822887960592873
Be 10.833408633197084 12.660313920106477 11.388128689901553
Be 9.34714053896898 10.871197097670137 6.3118508525424755
Be 10.779773207901105 11.535753773598515 7.7704349895550635
Be 8.855374283440039 12.904852090547852 10.977675876447071
Be 7.526507074275072 12.205420290015434 9.448336281792784
Be 8.916797560072098 12.461279056954027 7.735596406288219
Be 10.274395079492619 12.95545692316802 9.321085716524209
Be 8.531658847774137 13.934297289941053 9.191374835826057
