41
Energy = -117.29356359 eV
Be 9.28626204382809 14.029267400863903 13.854662735788251
Be 11.269454834302799 13.823086160522454 13.735216847229983
Be 13.369213202343085 10.954767285987137 13.943412895510928
Be 12.183174363998635 14.253462346775429 11.938656067791777
Be 10.05571922154343 14.658925304316787 11.926537310999747
Be 9.044840262955313 11.872585352970338 13.367054235780607
Be 10.109719248708346 12.536077235890575 14.97668911848053
Be 10.13031296329818 10.332055182187503 14.440821697674041
Be 13.065991772559032 12.858000967551751 13.056168215832656
Be 11.44568210233823 11.634454666763078 13.662638716474188
Be 14.38142857854172 11.508690708879255 12.318881606511352
Be 8.605474313492783 11.68146804471751 11.216555787949108
Be 10.242546948216427 8.533851185046164 13.256042427289218
Be 11.202384186430946 13.831457640704857 10.18200904534148
Be 10.583526507877554 12.564105244510817 11.97556287296094
Be 9.996233499964431 10.314639815524055 12.07180884422652
Be 13.035031802441987 12.62271070674058 10.822508043890483
Be 11.965089079587212 9.537739316414168 13.701374663477123
Be 8.380413646810924 13.477393618556865 12.154483444543958
Be 13.724049027662135 9.416519836878342 12.423583050142348
Be 9.961260579913004 8.015545347877827 9.066806145744339
Be 10.997270519357093 9.060974826412139 7.414170082293848
Be 12.031855545213539 7.702761331932221 8.463422411797401
Be 11.275890063459046 11.051191680042978 7.9912414986364375
Be 9.483967487599493 11.579367605469777 7.2183982866543746
Be 9.369485141727077 9.895751028457287 8.248866088997389
Be 8.915197517277003 9.845998883659101 10.21214582703167
Be 11.462076095001263 7.278135377435442 10.32263806074885
Be 12.852440190576282 9.52171014055194 8.236879079286473
Be 11.093479484085421 9.542877212616634 9.800102989202184
Be 12.591537708221274 10.977274009885887 9.566211910835738
Be 8.569830231743301 11.69573238989179 9.091555478168436
Be 11.875210769380871 8.405140829586754 11.989174031537067
Be 10.17969226620864 13.036590965807115 8.466775481669039
Be 10.564835461245737 11.560969807757322 10.11777274761378
Be 9.92935118878947 8.260346951457286 11.174740539793241
Be 12.227213261025948 12.78163093740492 8.760599062622687
Be 13.054804662248717 8.708324860335376 10.246331650750632
Be 9.178152758322168 13.434200843820449 10.254927729492923
Be 14.157283107081485 10.446869430602925 10.623796555624303
Be 12.087285167055189 10.692014329628186 11.643443526039697
