43
Energy = -124.90584611 eV
Be 12.269778299407182 11.565463834937821 7.310577929720016
Be 13.312460408304014 9.971061200058996 8.58541820384411
Be 13.594261413072777 8.249070308541938 9.756802816436442
Be 13.06375062687155 10.049231650054935 10.726341727322783
Be 11.636171310706692 13.11603046308579 10.66362793505476
Be 10.26057312261892 13.472618493676164 12.1917370423867
Be 11.299865474510023 9.655123275417578 11.887552961621049
Be 12.54412714038446 9.587726337235415 6.750437996987303
Be 10.353011768908656 12.19093180833954 6.767642106675312
Be 11.723429156294074 11.708090325071183 12.331992321315685
Be 10.734716368288012 10.238359966116505 13.795057121054896
Be 12.403730083516109 7.978736050769248 8.040646222601856
Be 10.863228088445942 10.45867076983526 6.0065404630785135
Be 12.734740347568225 11.755124731465452 9.338051271180126
Be 9.75096116507501 13.787473025207383 10.127659690519433
Be 10.980823231552765 12.776773274891086 8.708308679316445
Be 12.423089964734977 8.031904519331201 11.502423123789281
Be 12.117213858731938 6.851463078156046 9.83000080017695
Be 11.422406291723469 9.04318596488133 9.693355697953166
Be 9.29205262236935 11.790985314934229 10.086560033100259
Be 8.112749136880435 10.482921907300728 8.882481080670853
Be 7.1313555637543 9.373049618945986 12.17818112690155
Be 8.725913108449532 13.005108926611822 13.587256762726586
Be 7.6841249573031485 10.855490665910942 10.931426874595834
Be 10.605291085543847 12.345623227133386 13.95251141226364
Be 9.50560466762239 9.609240393850007 10.520328014358633
Be 8.76551227153475 8.623416894895039 8.258115988641997
Be 10.526964165313162 10.619392328988145 8.511750238758086
Be 9.622342922536317 11.176533162594373 12.110408582197916
Be 8.752063691655161 9.417964434916131 13.398112169254217
Be 7.483965199455626 8.844210419179893 10.151215586702412
Be 9.03164681761901 10.445608448719305 6.987168474491757
Be 11.166266462944275 11.02678154341775 10.45082945835907
Be 10.438468165034786 7.4521112071433215 10.963492563478196
Be 8.74552593077293 7.271919696750581 9.862860396268399
Be 8.515563236000494 7.892372148317438 11.854021040239301
Be 10.463385358446562 7.327195598867603 8.686329718640033
Be 10.341040531625463 8.188713429281451 12.88595341489619
Be 8.287969023807777 12.881581046608265 11.601049280202028
Be 8.922535635845746 12.312686866706096 8.180243282828505
Be 10.539179892970797 8.781940263795422 7.173736056550526
Be 7.5794645822496385 11.32209734143808 12.991177782294253
Be 9.005008460163939 11.198347647235892 14.512948161159525
