42
Energy = -119.03929913 eV
Be 9.819186585546065 11.419990445396696 5.61342750295956
Be 11.276159630397009 12.954617115047606 11.498741996371692
Be 10.925462126775317 12.613736042895855 9.525577952812403
Be 7.51126520619566 11.508965560995794 10.230035658074943
Be 8.416418815908735 11.879712067245762 6.90681793392751
Be 8.997952753730718 12.158570724974693 8.927093110704131
Be 10.454869878301555 12.188526740598956 7.38622581778914
Be 7.381765336219983 10.525908479204329 8.170208940992724
Be 5.949546439487475 10.221047009463733 9.81058232180653
Be 9.307456489351669 12.43627491517312 11.036118865395713
Be 10.088679575851762 9.48396569047995 5.132615046993815
Be 10.528899016253591 11.25237655361294 12.423005929911739
Be 8.613340871930246 10.6245079766832 11.93541542017279
Be 9.607112653948784 10.165439882034537 7.854109311877862
Be 11.569367117300844 10.868051064101694 8.6953335440395
Be 11.44086576267326 10.467571688462229 6.561361164284565
Be 11.984996006667394 11.179412502012847 10.789946096051647
Be 8.302781684146426 9.88142621680126 6.2038481538994095
Be 6.594496109581277 10.253720102532297 11.721572719783566
Be 8.18255992655837 9.488686807336933 9.900047787567779
Be 9.995381955778516 10.560659492453826 10.208963867692026
Be 11.796887100795828 9.113873982359443 10.141952983987046
Be 11.605856146658462 9.55502703170855 12.182009849447955
Be 9.751032095718468 9.415734288237772 13.311234117549576
Be 11.847452294710285 8.827015179599144 8.000404931774705
Be 11.610325626523029 8.482958923662837 5.961002788305392
Be 9.64482523492248 8.772434867398827 11.267137121842026
Be 7.836813173103708 8.710756411459538 12.589055018443045
Be 9.950795084514919 8.58559438059728 9.218828784157886
Be 6.4362685434228695 8.566343396503383 8.830509332480123
Be 6.4427215241827644 8.326084791658769 10.938247384291433
Be 9.608059226475344 7.9766957275450405 6.434798875943436
Be 7.958625431208656 7.3557772425696495 9.611949902935766
Be 11.239809120865397 8.057816912908901 13.584563189485298
Be 8.22934939331147 8.456370827714768 7.863888278097005
Be 11.242533867890721 6.95303538681872 7.336895404555362
Be 11.385470128448754 7.510794379424408 11.54272491606271
Be 11.499584171782992 7.1238470797601865 9.406497848479637
Be 9.525116653081689 7.3216895482324995 12.798193720552451
Be 9.762979417254547 6.6117204228151625 10.529469427408623
Be 7.932543732516932 6.936672411750354 11.553604225259146
Be 9.47487631780584 6.705601362610369 8.309835843022476
