43
Energy = -116.67869961 eV
Be 17.092184693508624 15.176817664018394 15.967745972009126
Be 13.9127635583078 16.51113510786835 11.250451135948655
Be 17.157843397069623 14.558334315340984 12.325681851477173
Be 11.87156294114269 14.993979242022483 13.567144148628113
Be 14.853920943334014 11.133086226391283 18.956588500302903
Be 13.406195164891896 14.270133633982482 18.033976825323947
Be 20.15202991708348 21.2247377596485 17.69765702282558
Be 11.893965454449567 16.581469345073074 14.995052333436725
Be 15.431159455052683 16.61477453393875 15.899298867026252
Be 15.87497375125213 17.185951304976708 11.285881993597918
Be 12.435787912165129 16.822458098159714 12.767254930433225
Be 15.084423957975028 14.417544239568025 19.444591288100384
Be 17.639785350468212 16.740217962280497 12.507244255579922
Be 15.088144638307007 18.177336814006576 14.638364408761165
Be 17.90996171178724 15.409184026578297 14.036548862516012
Be 13.577839806822135 15.57223097049867 16.30389682254832
Be 13.30405816118504 12.034640346072916 17.98865632801385
Be 15.36289795667212 14.993033225440213 17.192225501999257
Be 17.043020762664014 17.16380866282639 14.68410946389898
Be 15.405653597279077 15.015140054968 11.170061503542255
Be 13.871969838376963 16.1904695977509 14.261083729035475
Be 13.88798285434259 13.330246063816157 16.14146306817924
Be 13.607682877157064 14.891703628556122 12.426127738800023
Be 15.179191045318241 14.677143227608056 14.94556403850728
Be 16.618995981675813 11.723845406949225 18.143633051566503
Be 16.018578622263547 12.650419909515069 19.86632436533611
Be 13.494265573847365 17.596433045313724 15.985687856163745
Be 12.118967540523304 14.46241337206188 15.492231547508332
Be 13.898554082078075 12.804217387318563 19.779128615969704
Be 16.428514088263615 13.16067127347446 16.23907693954284
Be 15.055423132090645 13.076148182571604 17.86448206485084
Be 14.291549705510077 17.909915476667912 12.680604994890583
Be 15.213375648319198 12.523771794466644 14.691946790483946
Be 16.879241405511294 13.900035811758045 18.216425541308304
Be 15.613155285724295 15.998289248829899 13.197942529436673
Be 16.355279833829577 18.253097716212032 13.013460775183853
Be 15.075017516468629 11.499218861910574 16.618378148766325
Be 17.24590544096806 15.78379059198356 10.72251068850726
Be 16.983896100635565 13.588443091402361 14.264599870790748
Be 21.0074448699482 22.96470901580502 19.007320895472397
Be 13.448478044266247 13.60984307602972 14.062891176621832
Be 15.285177109815708 13.73553769143714 12.891001161249747
Be 12.955839446017967 18.271660967758425 14.184715945800868
