45
Energy = -131.8088389 eV
Be 12.212010174933974 7.565392874865151 11.15571708960671
Be 10.949899617027913 7.399011295990149 9.369428125546472
Be 10.686540585721824 5.940939440381267 10.851868066180995
Be 10.982606176671721 6.757538576244351 12.743541233969728
Be 9.699152860869443 6.720837373879442 7.921397874803262
Be 12.439695271979156 9.638659909922586 11.236235334805992
Be 9.082321126032163 6.253814634955412 12.104731429736074
Be 11.339725031706307 8.85177889558659 12.849456737593426
Be 11.641421087124435 7.71364938409601 7.479054194829861
Be 10.820669883072023 9.67778978203778 9.678437666716798
Be 8.858290885215526 6.710730856674144 9.916316666704216
Be 7.798486341279907 9.44109128677023 12.949065188131497
Be 9.888965573833834 12.131157337749066 11.989996672397998
Be 7.121446517852387 9.68732414532551 10.955093101791135
Be 7.035617672023727 7.80591715912607 9.881339172982726
Be 8.057428720357334 7.938316352006251 11.61150952819705
Be 7.936889692680127 7.795894626107243 7.995037125175472
Be 11.465452562719774 11.571764577865519 10.640145698663009
Be 7.803350650773714 9.560682507126534 6.796467603617139
Be 9.423212933870023 8.158758468460011 13.21473627234667
Be 7.981913151553018 11.315880238947823 12.047145836687424
Be 8.85921800669849 8.95833431171763 9.72285115447454
Be 9.243485549430636 11.14562418399578 10.217872533363618
Be 9.216474448024153 7.917979145768156 6.181273438621718
Be 7.008675709365028 11.350358311905065 7.704968263584643
Be 6.9592551238867895 9.559991561537045 8.760285188511794
Be 9.296699662478167 9.882765845746931 5.426790269353707
Be 8.577899515128692 11.598429625315829 6.373431356640298
Be 7.095114968789475 11.426184825524688 9.834998631050198
Be 10.16477225174783 7.975008422634861 11.166333902873658
Be 9.640319424035997 9.810207646673542 11.653669911793314
Be 11.058410085443441 8.985076309820348 5.907445876481655
Be 9.583623897642175 10.487928687233696 13.54031999093597
Be 9.959073752239812 8.912818314435869 7.835730855954931
Be 9.089776690756771 10.72714411231418 8.245768557358408
Be 8.250163379010184 12.762021799536361 8.63922611902358
Be 12.699682327712924 8.521170543489557 9.26445514266842
Be 8.329445139219388 12.939478380326788 10.748688883434703
Be 10.658309916377062 10.973168662114844 6.557808232489855
Be 9.932237511947518 12.729563432792204 7.5025978692298025
Be 11.466182366496852 10.918884390007511 12.601255134734219
Be 12.855783956618408 10.571100961158125 9.430121359860198
Be 12.11296500785418 9.783115123883418 7.605590873952962
Be 11.32315209244584 11.558898288028084 8.482122225621119
Be 10.17885964245708 12.946588773818794 9.612092408962944
