41
Energy = -119.2067789 eV
Be 10.799599056691669 6.477360227545237 11.10558752390641
Be 10.119148544799625 6.593844706266898 8.99972592693118
Be 8.016103865751111 7.419792210657493 9.186772714135335
Be 8.779824149066808 6.185804123317351 10.627028897703084
Be 10.011359806461694 8.738127225309135 8.391783867490734
Be 9.324171807612448 7.173944528948702 12.335522978863727
Be 11.497868492775813 7.927566696260769 9.959129394058372
Be 12.075117301714556 7.189911434571891 8.23241477913135
Be 10.657259832953649 7.014498568866552 6.817354796306033
Be 9.349803657266728 8.555208764822178 6.286445494969927
Be 9.521209512463122 8.417670125913618 10.484022946125098
Be 6.323995248292731 8.769626518407255 9.593152717432542
Be 8.168110152029538 9.623612530882662 9.362580374513275
Be 11.746211402789404 8.791256541001486 6.891943031151833
Be 7.564853934354925 7.89491867631001 11.216153608686465
Be 8.732932299437264 6.840989353238271 7.380892979186207
Be 7.534699513266707 8.541497617649505 7.527688671136936
Be 8.868911160164838 9.175622254805486 12.44107691244237
Be 11.02386606077673 8.626358860282993 12.030180733037037
Be 12.934592299635506 8.946183897021783 10.860870030904364
Be 9.799487399467216 10.820419278720209 8.882989059181783
Be 11.088693096922615 9.957242501520355 10.232909813621838
Be 8.175024868118138 11.087951814937076 12.805157707339582
Be 8.448900817196238 10.447321322905601 7.247944245287338
Be 9.215368671716828 10.64044713684408 10.930817871503915
Be 7.164799788755926 9.902665249188956 11.38049490609046
Be 10.380617857107787 10.29623505707758 6.754835919973848
Be 12.745408250972263 9.164242476615861 8.770192208898449
Be 6.56144647646044 10.28629703017272 8.064435760568013
Be 10.339746024114586 10.654641303998282 12.814920781896792
Be 12.290011579423398 10.442296786072685 12.045405930684709
Be 10.047692861770543 12.174966614567792 7.5852327535646396
Be 12.909190573473625 10.943718619572703 10.024500884084198
Be 11.938330270116486 10.834089381369525 7.9351865014986425
Be 7.915119383976296 11.80205366509883 8.907200370221634
Be 9.506093701887906 12.625134929713026 10.051708482165077
Be 9.42708496563528 12.509583908465215 12.158271676288972
Be 11.410962003451083 12.235775827756775 9.281269069146587
Be 6.223823322671606 10.955413185476358 9.91605333161135
Be 7.61739719883576 12.093392518341194 11.00716440239692
Be 11.202873837624598 11.967639660369791 11.262881006144308
