41
Energy = -118.2388744 eV
Be 11.566776677764766 11.520590104936199 7.171280537980363
Be 12.267251936322468 10.016701128933992 8.42360104343439
Be 10.637093353777844 9.584098444786717 7.370673478166251
Be 10.126398281323004 11.283157099918643 8.528427706722711
Be 12.049051661396016 12.082404862448165 9.096008995625274
Be 8.670251215062216 12.731535025971999 8.476437124879126
Be 10.724185856017945 13.346691791268585 8.3391337267985
Be 12.769359324446553 8.913982118345794 10.119308350523163
Be 9.397052582933073 14.423632394152131 9.461290889498327
Be 10.170986775900703 12.434145559872386 10.368069239575851
Be 13.48660124584066 10.8692338380094 9.98924201682266
Be 14.370051822301575 9.584866636416962 11.4647813736943
Be 11.035641111897746 10.352220014824006 10.190402905251775
Be 10.80671296349554 8.4611429642208 9.228848986678964
Be 8.556542486864748 11.09766688405278 10.084437539877893
Be 9.107476932253249 9.510096827222913 8.77490064649171
Be 11.48996011651194 14.021567479082055 10.436994368273158
Be 11.086045645038757 8.442815440390515 11.386030679601838
Be 13.498487121428854 13.14258687437196 10.16135518616972
Be 7.9026989682519515 13.274414059505613 10.289285081785032
Be 8.15249665564085 10.2432783036003 12.009688799026454
Be 13.00744068004271 13.622744001752066 12.097403965353806
Be 10.38000201511564 11.043821839609642 12.10794175496469
Be 12.36522814621692 10.085505417342889 12.044289278283205
Be 9.34887879194496 14.17655909360999 11.508217076705927
Be 13.064535233448478 7.893302572702889 11.878827790074027
Be 12.020041603442996 11.974968730681594 11.16882772384183
Be 9.167199193725661 8.94437938560045 10.75170451014804
Be 8.600840044796403 12.23360630346901 11.930106397516518
Be 14.002460305768885 8.657967827073058 13.468443006956567
Be 14.080300452565595 11.770636232356987 11.743691564904847
Be 12.455238735561919 11.82775849578504 13.275763029874557
Be 10.901104159000369 13.240120845969955 12.44900475666026
Be 9.005401556497272 11.084815641616906 13.773075388069303
Be 9.090158651278804 13.264956530641332 13.533601036437563
Be 11.794217134179599 8.398926140166225 13.44062708395053
Be 10.658826271648998 12.206564535785976 14.285820822101133
Be 9.652914359652689 9.075289048839513 12.86670906176003
Be 10.939577139329618 10.196654517064719 14.024231938373875
Be 12.869143637326626 9.9662816436334 14.530904341581001
Be 14.378744275432785 10.65168846541383 13.403985917012703
