46
Energy = -135.43772286 eV
Be 8.547339941716034 6.51009121828094 7.286986973055556
Be 8.15118270529614 5.832793005181576 9.260974266630388
Be 10.271295210487686 5.973978895479961 8.497024782154417
Be 6.5148500115336585 6.233578301577806 7.920304164146178
Be 10.435417750008494 7.539476411347052 6.8895170656125595
Be 9.560145911592691 6.056652228468625 10.756111090996544
Be 8.643151802958162 7.710557534664799 5.542168895856419
Be 7.502843503774571 5.847542144286642 11.27165416125326
Be 11.791348796875477 7.773225161452826 8.439786641935257
Be 6.254117462379312 6.82283114140549 10.024569754168565
Be 11.416343919113384 6.7290402581575375 10.19601880566623
Be 9.683363793568727 7.7916641392726085 9.231648014022138
Be 6.856466584006041 7.826481900088562 6.6196450245215654
Be 7.5551438519529865 7.825567644183417 8.691216056633161
Be 8.729632353030674 8.636961152358246 7.319558903532011
Be 5.572372003974739 8.110377495731784 8.291105253843314
Be 6.87579301219698 7.801344861444772 12.079542826395649
Be 11.729852778806814 9.3575232173939 6.8132124607781
Be 9.96384236563535 9.366088528761372 5.657942650518265
Be 8.76218445494503 6.8331058532725955 12.55657158021302
Be 10.404815167714698 7.798716825315462 11.695354096821376
Be 8.275614011848944 8.013681358890835 10.657018524195744
Be 11.730715746578113 8.764473214212453 10.386406731795287
Be 8.864470550510005 8.909037338753548 12.63587167857785
Be 7.792151023535688 9.660114366163878 5.621430480792785
Be 12.604527731278935 9.714536809835161 8.718660591189481
Be 10.47939972772309 9.539427106768356 8.552478664798024
Be 8.333760946249775 9.7173061346107 9.181789000982745
Be 10.927422693114167 11.186277969779542 6.038453612518605
Be 9.018586250310168 11.270829570894493 5.213723091760425
Be 6.319441005043077 8.845526974331504 10.088621683858797
Be 10.879830852286611 9.923079689679744 12.203699797727884
Be 9.684921665642872 9.699125719180737 10.64225933749437
Be 11.480072725021092 11.401883322606768 7.9574309756607216
Be 9.098988812692207 10.577482091814346 7.3546689488692865
Be 11.539035174652106 10.789501555772187 10.11509854322687
Be 7.45395637338713 9.896919793954915 11.438332177548672
Be 6.85969474029651 9.835734446301975 7.640084109857799
Be 7.4594560212611905 11.60933669977846 6.4229752218883975
Be 8.932641781725586 10.952552919985258 12.465898412309103
Be 9.770991971847872 11.537952088223454 9.155051036395484
Be 9.565804123081904 12.460925390919032 7.023610676950377
Be 6.4492555108576015 10.855782820832317 9.597385037113533
Be 10.185247895981579 11.847695828750364 11.248407782933848
Be 8.170526999030088 11.695608674826763 10.550418755779404
Be 7.796755917422313 11.852721002372423 8.436749284574075
