40
Energy = -114.23916592 eV
Be 6.439822582467104 8.16288221237488 4.84252650642434
Be 5.3768315778054125 6.540880297921929 5.198319595380282
Be 10.340338434841794 8.69371945490389 5.8864878941128564
Be 8.415688295118379 8.395477850761377 5.292278768495788
Be 9.064284692460943 10.39278797123593 6.045399801866674
Be 6.977897381954794 9.658081898254048 6.220001308052706
Be 11.025833968374748 9.730151438504256 7.4498982245641425
Be 7.459579449445392 6.368733442206021 5.499962634919316
Be 9.292973439672677 7.0867900461844915 6.803539313734802
Be 5.342172596954239 8.053428810378907 6.633547997178442
Be 11.306062914915183 7.470120715382387 7.316820848629494
Be 7.637870592083338 10.96117111373987 7.714185155993125
Be 8.747572915808693 9.049072219403776 7.527727462807676
Be 9.659573983599579 11.029017215844204 8.22333609640859
Be 7.267135913838346 7.668483523897276 7.032838457851153
Be 6.616023445790719 9.206556070622074 8.302021665041224
Be 7.974484471516353 5.689862969018662 7.7007033337595585
Be 9.934667732249093 6.105024562139418 8.571958500203856
Be 5.9981508755948045 5.919217542463525 7.071145430154944
Be 12.398436800541255 8.630409482848137 8.661304930185372
Be 11.830422243935429 6.749424761832259 9.268537595211495
Be 8.139541297283033 7.502266200521388 8.945910118056139
Be 8.199478671610489 12.020848956467722 9.357636737294808
Be 8.484599884409876 9.630687149200181 9.499734109417515
Be 5.921938838900357 7.232087537591969 8.715882801233356
Be 6.537768369246524 5.232777333588737 9.063462196888834
Be 10.113587639799855 8.265335942840155 8.903738408503564
Be 8.409796427979806 5.643530671631911 10.024096881554753
Be 6.680314252938181 10.669272491570297 9.863064187140402
Be 11.042419221187089 10.064960677882809 9.581211889389081
Be 11.761364046960818 8.294652331540867 10.568052804224589
Be 10.151040071292444 6.828333236989808 10.594933805978004
Be 6.5626186724392115 8.561072607133319 10.313401147731907
Be 9.47255678959754 10.960407231492091 10.79720347855637
Be 8.291539669688241 7.589553446404354 11.210762585563339
Be 6.6208433643401134 6.521111914181656 10.62511264386336
Be 7.668467714768473 11.776692065051055 11.331279565884246
Be 7.81147616315166 9.71967761129923 11.534205712396234
Be 9.846633271130475 8.939221210518166 11.081713151956807
Be 9.265599030933162 13.073625490803808 10.813463960016831
