46
Energy = -134.67282459 eV
Be 5.674984740992622 9.106836948413726 7.940891532893622
Be 8.62638535975032 8.347622488347136 5.162678181436872
Be 8.10889598006355 6.774613499417023 6.540538710874491
Be 7.200258941601877 8.74497336317715 6.6429387472343056
Be 5.456638970480456 8.066992491740576 9.726207973533928
Be 6.253926607617085 7.066809031417155 7.688772862644107
Be 6.468343706626923 10.207974931248659 9.479091809855905
Be 8.722455525336262 10.160891511182225 6.2273706904908845
Be 7.063189658845234 10.709926755131544 7.488709441009746
Be 8.056477238331219 5.9428192844991115 8.474786833795198
Be 10.120871956576778 7.0883424262547345 5.722256079301397
Be 10.557744795774486 9.053701832323913 5.474706697895599
Be 7.459853844878267 8.296053199951077 8.881142193066374
Be 10.013181505375208 6.436740371092001 7.7308733127530385
Be 9.26659364511214 11.846934961368566 7.7173514704662205
Be 9.31566097515819 8.39183083689576 7.353734281848747
Be 6.485026501424398 7.068316176659196 11.385495474560043
Be 6.535415966458509 9.075821463874833 11.227883979096134
Be 6.2886763841667594 6.1421364262298646 9.588653648045925
Be 7.926515162087306 11.760162300473464 9.349186119793734
Be 8.736726374448269 9.973057962436783 8.446158434075901
Be 10.532392053088596 10.254278012217133 7.102499436306821
Be 10.022027858360673 13.019694366847373 9.42271434614354
Be 9.856115836829819 5.63955925521829 9.644817131535445
Be 8.425974073944918 7.688432429713722 11.687251253033244
Be 8.67556122384662 12.668216604629244 10.988039832818776
Be 11.344644437684613 11.73723583152845 8.298235887577182
Be 11.501488568048853 8.072253992993137 7.204741983795195
Be 8.537733466860725 9.548172682386733 10.42571183629888
Be 9.296351753156193 7.641229520923254 9.508088414879323
Be 10.001520197446649 10.982608995212857 9.953852708173024
Be 8.11618732898186 5.959820687758177 10.649955271617205
Be 7.350161736194369 11.100148605321166 11.332629259351354
Be 12.474803179029786 10.024445035804206 7.622571409910506
Be 10.677509064026514 9.184318698553032 8.975467491625203
Be 10.614104185430339 12.649143647376683 11.556658369878852
Be 8.038557414724936 9.49163746345424 12.558438284687274
Be 11.955516344212015 12.37862078709196 10.140928878173161
Be 10.407898576031881 7.023350549538846 11.177650186469208
Be 10.080420750545153 9.062033281412663 11.952246734282323
Be 11.369316638123646 7.089104123683139 9.243051200627809
Be 9.379136268644091 11.056548623216594 12.152890494443295
Be 12.459806894144643 10.420448766646535 9.687573949114787
Be 12.785689149107109 8.488026713589718 8.922147550059748
Be 11.494827598835927 10.712421520629007 11.586767630127506
Be 11.779706731875272 8.653251120512762 10.772191057653917
