48
Energy = -139.04981871 eV
Be 6.571938174357675 8.257191941970712 4.564131622965331
Be 8.7409272327537 7.789292961309781 4.619232637431119
Be 5.195796341940417 6.536475536627108 4.634740565668783
Be 7.258234262835679 6.263594959499809 5.291163984622927
Be 9.340840840056474 5.5628145415024335 4.920987826940207
Be 6.069327841501959 10.26802501676289 4.675577070963559
Be 4.569410624150106 8.494015210443996 5.179694046148525
Be 9.623897080087835 8.912787426759536 6.334793386822191
Be 10.649652255110704 7.139848800842771 5.357271180963577
Be 8.030495286977281 9.975914088834918 5.30774980457756
Be 7.605200725606961 8.216068509073986 6.346027464431258
Be 8.174533607573462 4.777600103252708 6.684263105170598
Be 5.822532148050745 7.3505424653122855 6.457662268792283
Be 8.983809969397232 6.744125228055612 6.478200300549821
Be 3.904449373846994 6.731218958770585 6.240427443515749
Be 5.633526513522014 5.292490270195849 6.401266411161745
Be 10.5589623904545 5.441854774706879 6.7501899043590345
Be 10.774643883580346 7.440569297553683 7.548701616980095
Be 6.909091763063637 11.27351291756516 6.460028671069793
Be 10.188023118427564 9.497595306850446 8.373609373400686
Be 5.9282373470019465 9.416063761858297 6.467262003238847
Be 8.662642385828677 7.971068253528178 7.982432917149022
Be 9.04285820715692 11.036658185106607 7.059702107976594
Be 7.6959008683049985 9.767032032832951 7.788430722242171
Be 4.36504254617806 8.461416360196033 7.516798520415672
Be 7.197617372591424 6.2700166537986295 7.695687204318435
Be 7.142664454432101 11.593113216384658 8.541737805114732
Be 4.814025200001267 6.486676927783019 8.127923819251906
Be 9.299437022562476 5.822608257674642 8.374543844373932
Be 5.9092201996944365 4.704590099063945 8.414859486511931
Be 6.532760993861024 8.139563211028458 8.412118621757841
Be 8.952676111458423 10.874573814152809 9.307257586984704
Be 11.276744016088296 6.0952692999980895 9.14931331991163
Be 4.902520498489867 8.427697400583082 9.632062753820627
Be 11.857225159961382 8.164215098217952 9.346971425555902
Be 9.874454635379578 7.599577652394443 9.457133776031995
Be 6.604114335367012 10.03891348404235 9.926251466009155
Be 5.405895200998656 10.272312965108004 8.259144704983056
Be 7.986629782421975 6.952375355591469 9.599209443834164
Be 5.997911636185833 6.310722285524114 9.832691676932003
Be 8.360643931196321 8.979623353330588 9.801913280374821
Be 7.694682063097281 4.918607056654642 9.51220920933603
Be 6.706470637977683 8.043148915216145 10.820180019504331
Be 11.095392426043524 7.2382531188295856 11.0329512011767
Be 10.408057204726122 9.309269294885311 10.482076686412595
Be 9.558997537789992 5.786404329053338 10.542114521364155
Be 8.986784791874257 7.691393112873944 11.383245497209654
Be 7.569918762840446 6.098116951203225 11.342876454478194
