49
Energy = -144.45889897 eV
Be 9.984180821089483 7.600691993472997 12.609331833732933
Be 9.934622600597043 10.934875656690172 11.12740600963719
Be 11.9213869721896 10.780622736876792 10.599715733107043
Be 10.9655490622815 9.186322100607326 11.658145589230536
Be 8.883996852460099 9.556390829762757 12.54206424142512
Be 11.92813472141023 7.306542143539481 11.500017367157144
Be 10.90377155863488 5.750127962380398 12.286841081086346
Be 12.507728160978603 8.857346009163855 10.007514427536682
Be 9.20639642494687 12.69893369839164 10.37686630160259
Be 7.895178232905195 11.157515469377605 11.201105570696624
Be 7.935662954537889 7.693985908937527 12.218845228493333
Be 10.6854426455111 11.807052406818205 9.277820580877743
Be 12.135135580278074 10.486059754331528 8.537343510046387
Be 10.123073739269657 7.533290250067627 10.330015869020073
Be 8.78087816850948 9.163777137139403 10.543376633691961
Be 10.520655513018859 9.537492898840137 9.513935934318681
Be 12.20147542039495 6.909602709186608 9.50726387260889
Be 10.817743315120333 5.529447092358955 10.245985150303575
Be 6.824777121310942 9.284997814239635 11.362235404056955
Be 7.40941041657135 12.5987650469689 9.569610363075354
Be 9.010643453494572 12.739723824466358 8.219114813341829
Be 9.048858270935536 5.978249393274794 11.439155409306402
Be 8.706862932807125 10.73857407584833 9.125625646481371
Be 6.44017020081894 10.816634481146037 9.776148646426561
Be 10.837627992863153 11.940189073633519 7.240468257919047
Be 11.745040516539055 8.403873648477848 7.857427853036658
Be 10.190647539075774 9.873365876245906 7.470246746424878
Be 8.79657042125557 11.383885076719196 6.542678717168345
Be 10.66064213577241 6.463912003184 8.214622602090806
Be 8.957530448392427 5.779339961022655 9.289291378799355
Be 7.0837487911693 11.562937595719232 7.774480548410362
Be 8.049166784041477 9.540529726236475 7.503377875401697
Be 5.03113570338407 9.355124425055072 10.116309563766036
Be 9.05984065570589 8.118326589262638 8.599908244241778
Be 12.189660436924772 10.422008975174428 6.484446738425229
Be 5.910035498546589 7.530853917446335 10.525466855724103
Be 9.956628650809947 7.76435377087187 6.653919321391008
Be 7.046177767942016 8.89078899961004 9.174982888556505
Be 5.539019055219348 10.079950868421898 7.980277687833874
Be 8.791102794594664 6.193190878181918 7.311681805260374
Be 7.916957416801057 7.268431042113729 10.241245687823211
Be 10.523515991821334 10.930761093989766 5.405067870927976
Be 9.036079376523743 9.451122695633659 5.597145512194196
Be 6.870099489423817 10.214504189690276 6.071115146529562
Be 11.149157662490056 8.993944057764569 5.547992089943954
Be 5.046084328751134 8.026850316687693 8.65853437174113
Be 7.921781116039173 7.780280469723119 6.3463504769873245
Be 6.120672883504217 8.432241139012346 6.955625624444069
Be 7.068127237522654 6.980167570184631 8.280406692323329
