42
Energy = -120.77935781 eV
Be 14.046581950661288 7.924129768192439 12.539198760081199
Be 13.060620609977812 8.294194163723203 14.458918178238306
Be 14.375428546439633 9.646356826813856 13.719654081290125
Be 14.136946686112122 11.532597205783958 14.69570231947121
Be 12.685131138079598 10.169491246267839 15.292829770005158
Be 11.190991050413963 9.190885779183661 14.293175056272853
Be 12.16495017085466 8.692144976350377 12.54526541554919
Be 12.610727099553852 10.883998659548377 13.087994084936447
Be 10.72874201790316 11.235879353846062 14.364591436883044
Be 10.554456832160833 10.163918139837465 12.53236881398182
Be 14.214253874679308 9.707332391429883 11.561819533883284
Be 14.67206887230531 11.559070646252405 12.631576943102683
Be 12.3126456731506 12.244940748251269 15.07908904238156
Be 13.540884690029365 9.824103534720589 9.505253221292056
Be 13.690319023153982 11.592715097585476 10.755925268339109
Be 12.866445864131201 8.220233823425028 10.592970811019445
Be 13.437490211781274 13.169954703992016 13.563966402835666
Be 12.21798525688936 10.173170147252732 11.128855293252082
Be 11.248907579763896 13.071688642366217 13.514322212514902
Be 14.049243427696606 13.388237799079802 11.665360445599688
Be 12.056941573020385 11.470039706463092 9.405705141801372
Be 9.189405937686322 12.574144131190119 7.686881828333538
Be 7.849304189321502 13.30212138078208 9.14257016066045
Be 9.599636232812255 14.367882852875015 8.376443610135723
Be 8.975298980381977 14.577324070319197 10.305636987605258
Be 8.151410659695657 12.986346339254142 11.361964759502056
Be 6.929007022747363 11.808385379196473 10.251103112008433
Be 8.383786525265617 11.174530666736205 8.989102849084496
Be 9.888478583507897 12.551903965822548 9.975191513276
Be 9.589959294024531 12.0003420461943 12.50238674621766
Be 8.467302587425737 10.754868249577333 11.136987313548127
Be 11.242891176907916 13.132236455946934 8.288888775505216
Be 11.088937909960828 14.458653191527493 10.015884893292537
Be 10.161101595588727 13.867181013196216 11.825510272019903
Be 10.385522355644534 10.985287778457964 8.344932609885772
Be 12.832314286861072 13.364210673954938 9.952059675115146
Be 9.392865591606833 9.38014373451143 9.333995686516893
Be 12.2249383817883 14.287258429258276 11.896155986590834
Be 10.380976134845886 10.675356764980902 10.525141369471863
Be 11.609391692174741 12.18495858236842 11.512806591549202
Be 11.550640223009077 9.276570837490238 9.18477492963583
Be 10.75420799163934 8.644349597647876 10.966177598967333
