41
Energy = -117.59910097 eV
Be 12.625594017322484 13.50106064940548 9.124953921167995
Be 13.228339521278563 11.528785745718693 8.2867695099216
Be 9.244449371982798 12.890679726749669 9.24038733240749
Be 10.992184188163154 12.264782411833115 8.304443655219819
Be 11.172041106627342 10.12460815217433 8.434307358592314
Be 14.589803222951568 12.87562363903117 9.259714005711425
Be 14.258562507103921 11.107693499089248 10.18616478109491
Be 14.944628960357033 13.094602727021014 11.42976857966951
Be 12.350831031865443 14.64942911432514 11.211570677553777
Be 10.926685856781564 13.240611024075077 10.318839895065821
Be 9.776621748805022 11.023259440674243 9.828510359535061
Be 11.022077516496767 9.479093232222313 10.50980405686944
Be 12.90088511013047 9.574443605783626 9.391611514856482
Be 14.112980836484304 14.591309470581328 10.246590843117366
Be 12.881426428971412 12.51989176829349 11.130030442297807
Be 9.418053695952286 10.284763891194993 11.955767125674148
Be 11.952774676195009 11.376026376633456 9.817868717540941
Be 9.238947461053751 12.43236100811482 11.352650773060267
Be 14.11028980286284 15.057308051165597 12.277132574661659
Be 14.362813282708366 11.347031438309164 12.510987969733385
Be 11.001923787662376 11.460252442492315 11.544823975199812
Be 11.135299233794823 13.438386745417771 12.486402144912285
Be 12.825388690702438 10.22934214369656 11.417408641182764
Be 11.268871592187656 9.522959537135431 12.700763255553364
Be 12.263804318402658 11.456422400997052 13.067288458870381
Be 13.396803309877104 13.28202135046751 12.884220103475547
Be 13.313233929729968 9.690917375330436 13.390526051132806
Be 9.986413919280531 11.967017857032152 13.37279842130186
Be 12.198026629588247 14.988320350783198 13.448008486620939
Be 12.263771593778223 12.878081172309422 14.494274950897857
Be 9.869115946005687 10.098012145433538 14.091636895636906
Be 10.583176830835919 11.761770856140808 15.397126738412593
Be 14.006822623374008 14.669035032000673 14.431412606258846
Be 13.813501322073675 11.319264962001354 14.629246848080932
Be 15.049076510200768 12.911439327055106 13.99907105158008
Be 11.86024832763615 10.193862346240804 14.802763568321117
Be 13.838905151692728 13.214782547078155 15.870841004417908
Be 12.312070297277527 14.90783368898232 15.540845559391652
Be 10.555310577559155 13.938482353418937 14.636791610400838
Be 12.536866054635865 11.553369983662035 16.25376510271483
Be 11.567816848624663 13.31149824894329 16.478548270900863
