44
Energy = -127.23483328 eV
Be 12.985332745731352 9.043441851093231 10.115842422298897
Be 11.087171229732 12.531485155640338 8.94826696055929
Be 7.546707912053178 11.74360079089735 10.218925634844286
Be 12.63236973693269 14.77887130558931 11.220740119519888
Be 13.005608714548202 11.40883921500819 13.61441456592014
Be 9.420868057802586 8.953053061172401 10.199149624066349
Be 7.617558694562301 9.838411419019181 11.29586610914058
Be 9.5378425279525 14.702269670412848 11.292966033068902
Be 11.189955506689683 8.505508870163005 9.082819356420265
Be 11.06454651759736 14.387968395391662 9.968949277241782
Be 9.372572387498217 13.142384864261908 12.67023739971143
Be 12.693360372981 9.481410015296072 8.097747857027676
Be 11.263110436757941 10.680998510571987 14.620906508373078
Be 11.141751950674799 12.485010555998564 11.23634588679372
Be 9.467743629969476 8.935249644254748 12.291349414140196
Be 9.329722908861745 11.361979832599562 8.837707781831892
Be 7.849137878026586 13.46180312289072 11.322376958648332
Be 11.19262844612222 12.492203680427853 13.525160144246911
Be 14.789394737637965 10.016688061466835 11.129579018636228
Be 12.874652479283407 13.25550456852204 9.815175907538396
Be 14.768362039268709 11.902486868777247 12.241501356982482
Be 11.214143433689374 10.534324508321802 12.339119746110477
Be 9.390074508246308 11.146703193833929 11.26776174084486
Be 12.955874798073438 11.236109334402055 11.181513945444486
Be 11.124022152842182 14.365834149771116 12.538189959050419
Be 11.237741540096486 8.549565445577809 11.199540315374106
Be 9.309360407698053 13.165223787848078 9.901647659849104
Be 7.595883821941085 11.725294230076582 12.408837681083536
Be 12.835697448839893 9.427532227192943 14.246062377805643
Be 12.93785785351494 13.230235389943399 12.58488303472875
Be 11.163001608620814 10.55390889926112 10.09819422277398
Be 13.033068882884844 9.023550784064469 12.209600786020845
Be 14.379646543460138 13.623640190690008 11.170027986579624
Be 11.106174308356284 10.739504674226387 7.819499637254479
Be 12.894829168248425 11.451803228102142 8.753487893418427
Be 9.440377093891648 11.322090247585773 13.699940571645511
Be 9.596407857988224 9.404169331429307 8.169183452020404
Be 7.888752095809808 9.951073140568692 9.252613420354479
Be 14.42038891631954 10.113414225356358 9.100653844039343
Be 14.718492233340575 11.921784351192077 10.05205375491863
Be 11.288069608953274 8.467973469750074 13.315969523233074
Be 14.513809822939832 10.078251793235493 13.174459662010058
Be 7.983507147792293 9.916287612082678 13.325850414622744
Be 9.740435489031686 9.35156331449233 14.31805494473485
