49
Energy = -142.42653201 eV
Be 14.194406801301119 13.668492986660901 15.399967506635305
Be 17.9396667060623 11.914138571166383 15.329488432524176
Be 13.725916022798938 17.366726773564512 18.70767194841224
Be 14.081001690177319 15.060716719216241 17.28977660821702
Be 12.524020055081316 14.817727905427388 15.947192933887955
Be 14.738866483667456 17.736955178062473 14.648874309258211
Be 11.033776270075977 17.382824929288414 16.19172313249891
Be 11.176795157536667 17.97795705159513 14.24718363724048
Be 19.786060393474575 15.843541541077622 15.274733969494227
Be 16.230483250581095 16.234538223328144 13.957012015735247
Be 17.089710985786542 15.426166838084027 19.49501914702389
Be 19.230634364935156 16.93855632864083 17.227498784401764
Be 18.051397871904808 14.427306732794005 15.319318960973765
Be 17.54824455715334 15.456107770237384 17.143228340040306
Be 12.121752769104148 18.319986814837055 17.66038815513871
Be 19.401494122684028 14.350108332998706 13.633543946280271
Be 18.98752086176171 15.727163024742776 18.95601135337128
Be 12.83430986185579 14.820662303205467 13.924868768384329
Be 16.02183774941037 14.159723679732915 18.21946403934288
Be 17.5776234984386 17.246295939150556 18.597472981365417
Be 16.05385954745463 16.834400703816634 16.160022522882183
Be 13.904327419584504 19.243905332364776 17.701676403023978
Be 18.073647253736112 16.846982479812866 15.534894822147528
Be 11.972669871412368 16.52575708834898 12.96534251944604
Be 16.786740689995955 18.156404966899782 14.717529369240884
Be 19.223243782062152 12.910021383279526 16.675841828299617
Be 18.015787342799587 12.695054828309898 13.486302943035081
Be 15.902386966088988 14.624399162595626 16.135283911925793
Be 19.738295260325167 14.889480097383242 17.17053934828933
Be 16.27635958062014 13.12262704749736 14.636986530584045
Be 15.054307846123413 14.438165676402326 13.587938265692879
Be 11.048115978422508 15.837016181257175 14.748061112889964
Be 14.134568422674635 17.251981055763075 16.69269993693006
Be 15.690327699174691 18.272257091122626 18.106053166904047
Be 18.15584689672359 13.836307529407676 18.458920712143275
Be 12.913477422990532 18.813506883395995 15.734987175374593
Be 19.749156666185062 12.372432320145977 14.523431991367236
Be 12.291060627143516 16.289407385023676 17.377216521945673
Be 14.48083444622232 15.7144593988417 15.178542796642526
Be 17.4453872581199 18.334552917997083 16.8660426060438
Be 18.35601641221164 16.205536170974433 13.664148571203212
Be 13.041225367053901 18.22644967752555 13.515681865427746
Be 14.078686708240866 16.333241975539295 13.21100316923141
Be 12.839384338194721 16.818207008290926 15.11743161987202
Be 20.52477720115559 13.961408356125997 15.434660111679525
Be 17.24053072409505 14.546407596425986 13.142302948903897
Be 15.59345497422642 16.215768829312083 18.189617914081424
Be 17.100563732351382 13.116656369170858 16.777522169529274
Be 15.405451088929695 18.97368428598977 16.161915386356508
