44
Energy = -128.4427866 eV
Be 7.912237834828706 12.241291833867187 9.68965981012593
Be 9.424228630993005 12.682244340652133 11.217152606366282
Be 10.335762792768232 12.314165699855275 7.367453292308212
Be 8.352997287646106 12.615037102659631 7.672474376638616
Be 10.941023910128497 13.917733715974677 10.596061262036171
Be 11.672409375361338 12.808926308329704 9.007251151833836
Be 8.661368717050465 11.024195886108693 6.420461704851435
Be 9.594674703808085 13.415283915674573 9.13237702793354
Be 6.589837052096102 10.311897719912734 10.015075592812044
Be 7.206713842440399 10.966372864312524 8.090919284880481
Be 10.703677579720022 10.53553738164745 6.252999851061779
Be 8.249468595948386 10.868210252521203 11.178740037558567
Be 10.110442792313968 10.867303222471831 12.141602122767651
Be 11.849693650119063 10.985922285138347 7.866423026017396
Be 9.702932258144294 9.396830037494814 10.416132462912246
Be 5.896258407981752 9.367525507015493 8.351172494179567
Be 9.534916668984598 10.16146640452075 8.171771431744546
Be 11.61043746104821 12.118267670530003 11.291307811918793
Be 7.6352617754373915 9.22916461736423 7.053927101063965
Be 9.547927981816935 8.802858834291074 6.34353205006166
Be 12.606685962083832 11.127814732928417 9.782411948627855
Be 6.060169808117595 7.912597969908993 9.815748577585428
Be 11.715219686475379 9.938937136108569 11.246315747130335
Be 6.502217258177083 7.530439542534382 7.775453135147168
Be 7.490304854592648 8.76407246582395 11.195334626681095
Be 7.999454535756094 8.82721753965744 9.112926703147446
Be 8.634690359723296 9.521236585774513 12.715579605929571
Be 10.272256523631421 11.29894277406648 9.778377988159697
Be 10.020435631329738 8.19195456025756 8.654178622081407
Be 11.563708648782185 8.818338728099402 7.158740532262207
Be 10.59158760803797 7.004727669517875 6.987148489448915
Be 9.09151391529006 7.455190948450159 10.320361350062454
Be 10.458293068655738 8.624033155328572 12.418006488731656
Be 8.52832474498459 7.290707412512774 7.4617065483236376
Be 11.667736919224776 9.38196984640386 9.18848337496223
Be 7.561534975694449 6.358073438644943 9.187560285363817
Be 7.216902606306615 6.699107424692225 11.157351491172307
Be 8.690033175638396 7.415166010537249 12.442362068699419
Be 11.315950764429502 7.853167667965348 10.601823987081103
Be 9.635903611059677 6.018155817626555 8.715813452125426
Be 11.781797925645964 7.09605250812528 8.644874061444222
Be 9.027550430207505 5.502721101518044 10.833889199260916
Be 10.473069927116072 6.505709276459368 12.004315627527488
Be 11.039382320339316 5.8053305836287725 10.175960604717773
