49
Energy = -143.99029424 eV
Be 12.27348764482187 6.277645650549299 7.585840434266218
Be 9.05500615799291 5.124634041991408 5.986653341493242
Be 6.928964316542228 10.367313221895879 5.409331532057997
Be 10.478226443393437 9.02461833614201 8.911381568169274
Be 10.76214195269435 8.561479081352 5.431264012607323
Be 5.714546768007519 4.667051422308728 8.436234233719425
Be 7.561272363389542 10.56863487586618 10.477900577225208
Be 4.254194657861246 7.854782704085237 7.273625580938105
Be 12.190316980479546 7.627697660451659 9.211603909522331
Be 8.378066812227702 6.926625347531411 10.873296213233418
Be 6.378719454617856 7.038759183791116 7.921341845932657
Be 7.360405973013569 8.774239723050915 11.476427400657649
Be 11.684828624886102 8.30814588614379 7.264166244208918
Be 10.398916642312791 7.295352102366199 10.36459022263811
Be 5.2005699018158085 5.785218759482417 6.60399719954559
Be 6.537239214882342 7.569311353172579 10.075167535201304
Be 8.536571815933575 4.312386156471995 8.135426385833217
Be 4.209898487357157 6.097173480854526 8.441890805997048
Be 9.447730687915891 10.781999638384667 9.550030409598957
Be 4.636084863334763 7.964557719540508 9.348743650005957
Be 8.966419908226184 7.35024425406418 5.240498476308718
Be 6.220171162220757 11.173517919388914 7.352447322081413
Be 7.047303945414301 4.935385138457109 6.965135480509741
Be 5.508858753685083 7.574890793568013 5.645557125746467
Be 10.425868658708575 10.132201005503857 7.007799608319641
Be 7.140674361700699 6.394327350165992 5.551621552898233
Be 10.343850504314574 7.019285006633006 8.303649819696009
Be 7.367645367253827 5.626275136184331 9.356137596140064
Be 8.368800083210413 7.8885061223076764 8.868153448377047
Be 9.519058750498397 8.279100449790732 7.051734374899851
Be 9.429215968795573 5.605752386876087 9.520860867862218
Be 4.603273147036408 9.888591308097698 8.533372187555191
Be 8.889731501063306 9.625981819244773 5.518658697354638
Be 10.465844388680216 5.021276782198715 7.667252516239631
Be 7.467469438576292 8.452279748302832 6.717033537907919
Be 8.586550204320535 9.87278245994354 7.967399438417761
Be 9.205911387505777 9.017186540359145 10.675005306720518
Be 11.546348199694759 5.661623599409144 9.423891073308564
Be 6.633255317181472 9.239887641864625 8.625332120157255
Be 5.350230222186213 9.337844481128808 4.6572396066662405
Be 7.235483481573264 8.4167165502701 4.5730510513412534
Be 8.261975763198976 11.350656357539375 6.62850204826277
Be 8.544816147489085 6.433052502186274 7.390545500685928
Be 7.686872331819635 11.666233347139158 8.712648829421981
Be 10.656443209154673 6.584301326967975 6.230838754315961
Be 5.827360514327716 11.302722469432842 9.46467738755748
Be 5.3468045393504084 5.908333274716449 10.06038411020671
Be 5.398417371652421 9.436434223699536 6.6664903985260855
Be 5.610227313581208 9.519055365026963 10.487240365564285
