44
Energy = -129.10903911 eV
Be 4.856579474565703 9.599699740322622 4.924116940037428
Be 6.5240015015666115 6.4835493807538285 4.316877842879571
Be 8.200678535845142 9.701086838564304 4.929136652355236
Be 4.998795924194755 5.432899152285322 5.12334382472747
Be 4.655346230933185 10.821152578565997 6.509210770700619
Be 9.690874818200722 4.692171077888062 5.775334930377752
Be 4.636258279644188 7.454304321841718 4.926457689709249
Be 8.564377003104921 7.670566420915605 4.61309697913296
Be 6.510100641591128 10.710540470353214 5.750203503376794
Be 6.6084747583058325 8.420423766869327 5.046544091264495
Be 9.814353960700354 8.838469596101561 6.023849919242607
Be 10.192554432485991 6.8246535674014375 5.629333688043206
Be 3.814019869113549 8.656605540146554 6.488287790092214
Be 8.069847092233278 6.006875137228251 5.6907918430993965
Be 6.855522581763529 4.461009568329337 5.188908608998185
Be 5.72822986463026 4.680139849393731 6.8973304480176365
Be 4.005823473368186 6.401147921057079 6.799116861310617
Be 11.244847015383998 5.599444677037442 6.95052938483909
Be 8.13588465223577 10.161631765452453 6.93865202458724
Be 10.874993476682862 7.580444034298865 7.625489769906118
Be 6.014312785490852 6.877557114773244 6.508558661397896
Be 4.269896176970837 9.831855139122442 8.213722386399748
Be 8.051227804392102 4.14030272121451 7.005128503458144
Be 7.277868811689449 5.90215359757424 7.79842154040464
Be 6.235270453890293 10.802756677051692 8.01125765759367
Be 10.069197616822505 4.116782176573075 7.731576637608292
Be 9.240277833169618 6.146944167323767 7.391443194947069
Be 7.929186200761461 7.9063625429668996 6.899555796041445
Be 10.569211090309699 5.871840533394484 9.053164161840005
Be 9.563212815591559 9.0864161765118 8.09528256083537
Be 5.257862231768038 5.866799088840841 8.60040152085767
Be 8.649064656778663 4.850988598600354 9.076816041416429
Be 6.026664294691291 8.985204744026404 7.05359496033197
Be 8.476191505604376 7.330275219510865 8.898580707776185
Be 6.669727933818449 4.21021182721652 8.7364700937117
Be 6.4556230377995005 7.6019209271489085 8.51623507823906
Be 4.343603002292341 7.786118915985646 8.3748430640905
Be 6.977341519493326 5.921644007126319 10.00674026106712
Be 9.054733086161033 6.271966497801316 10.543115729706965
Be 7.611265848960169 9.329157257898231 8.783381341554453
Be 10.31889372491056 7.82675045425277 9.642450488525185
Be 5.3378994495553505 7.2863624397635265 10.243533005235738
Be 7.299721342017137 7.957903831154629 10.482231163487022
Be 5.701172237655512 9.27589898650511 9.567870927920078
