47
Energy = -137.86779587 eV
Be 8.528125151667806 9.904807787268902 5.598683808309941
Be 10.55878566634458 10.448874149949368 6.204802144481746
Be 10.071451346258023 8.54514338339865 5.5360277882456765
Be 10.797784794568846 11.391090902889081 8.158513502673763
Be 8.186488272668745 7.7080446046388 5.930543524015797
Be 6.575289619772165 9.066774053834575 5.953342248480976
Be 11.860198407789973 8.278035170568664 6.574532160693186
Be 6.897961607046412 10.961926962187768 6.627556914593333
Be 8.89291167603912 11.226915628950744 7.262283349465789
Be 8.857421946234115 12.397784706078975 9.082512764998908
Be 12.186306268219157 10.080734414513385 7.508722347879538
Be 8.026548104769326 9.296517008750232 7.672982157514827
Be 10.17897067601873 9.080597446511815 7.857397119464554
Be 10.815492198795626 11.643506275784214 10.198276160607088
Be 8.897616690445632 7.389780886538148 7.7893255416792915
Be 12.548014716819157 10.63950793814361 9.474245339389206
Be 10.389868891215254 6.730536933747074 6.445650321212067
Be 6.693345753569794 7.599589168807797 7.444587430511335
Be 7.216181006296444 11.064369230675373 8.724649622289606
Be 5.755122309284902 9.628953057012202 7.786839999510442
Be 9.225032458128883 10.393713796916874 9.274143423864357
Be 10.479046856628488 7.256758998736483 9.10470309403694
Be 12.585656206539905 8.421102490836608 8.70158046007149
Be 11.921491708057081 6.574186785377396 7.848617053806958
Be 7.770763651445672 5.777830861738155 7.765584873802953
Be 12.981488737714873 8.975181215397093 10.761933676533182
Be 8.957157996914054 11.929391997379463 11.113065526709121
Be 11.92770347094942 10.496496210232449 11.49586808356038
Be 10.905870847630549 9.235362835144926 9.892012479886633
Be 6.990900101415348 11.912646298128458 10.705248054592367
Be 6.663305179816141 6.693969903462234 9.38773599222937
Be 5.608490371722322 10.460936561616368 9.917063375888445
Be 6.787084200251929 8.745433209038037 9.254334830215234
Be 9.947129093790581 5.556906140089781 8.106566261020312
Be 8.874306824675795 8.40431973533461 9.619276535892721
Be 9.88966136565118 10.180981634035613 11.533171083297242
Be 8.687107052185006 6.19725362322346 9.663213278150689
Be 11.983715429044818 7.23638989385111 10.40783542047095
Be 7.781134146007627 9.836045029044904 10.722529065101792
Be 11.241553601450128 8.534107987183859 11.958168995436177
Be 5.92352245344952 10.53387975201382 11.893674953315198
Be 9.893139256489878 7.2017114198932495 11.150076386830335
Be 7.935569021370145 10.737305348391393 12.549652004703535
Be 5.705757255240611 8.579474371486 10.957220169607927
Be 7.588945809815563 7.48436614075394 11.132713178062335
Be 8.977908444274599 8.573311004077693 12.409538053886282
Be 6.915113356350151 8.908365690634529 12.603143934258677
