41
Energy = -116.96523832 eV
Be 6.294617310874987 7.803055229286018 3.6137998507937974
Be 6.409156947181314 9.713817096602929 4.461842225768038
Be 8.169386042065906 9.017993081587884 4.021649668097488
Be 5.1878008105433455 8.205049155740499 5.275802194510656
Be 8.393083711146978 5.86235726192803 5.3950792158233005
Be 5.96701837397182 6.092795817932707 5.120979542237867
Be 7.338994419916807 7.596742512427239 5.233375754822777
Be 10.050276849583573 6.418856266870256 6.690383529045298
Be 9.167945805763338 8.320668998621258 5.866282968763601
Be 6.948710452262881 9.217636174031298 6.519281266593927
Be 10.952975836141587 8.48234057611089 6.965651532057505
Be 8.009547593692139 7.122449400209523 7.1805113682163295
Be 8.215097234454065 10.578040059505506 5.342756210420033
Be 3.951228445101321 7.173824099839743 6.7266666974997795
Be 7.015192028463299 5.165188803050585 6.8672455058809225
Be 9.124352678041465 4.6009205675208955 6.920233902662389
Be 4.899047057688589 8.990847073789666 7.322523939184401
Be 4.977844680358211 5.449205779193814 7.387927497311886
Be 8.48201101245864 8.969534932471054 8.05574655955851
Be 10.053780787198269 10.235110772181567 6.285345177178625
Be 5.975545153091032 7.121891596265732 6.832412961287845
Be 8.502203143442065 10.957646008104254 7.380619996535941
Be 8.584811195310632 5.702255124203011 8.460505910371072
Be 10.300370774186444 9.88229071540891 8.335523846150805
Be 10.560891380467824 5.452736710088193 8.579757842499419
Be 9.979823989309073 7.49134303243831 8.502535428584508
Be 4.612616541582095 7.2423970787971115 8.700836775689027
Be 7.278895769717986 4.210741250983135 8.808329054643519
Be 6.671664857815467 10.27521824175556 8.484605123745103
Be 9.376212585171174 8.729878751327183 10.154271797228718
Be 6.429475812630628 6.116420531269084 8.717815923724967
Be 6.521104577447082 8.23507171874689 8.402962017200002
Be 5.132737712968854 9.089879520812966 9.580964251527815
Be 8.018924909969384 7.348011352918457 9.409538866527242
Be 8.548028262795562 10.564242243151512 9.433706370555807
Be 9.633192956903002 6.3896926609325195 10.36181111805378
Be 9.185268962039514 4.392335464084792 9.882145574987184
Be 6.109061621572849 7.401968865675449 10.418173530513693
Be 7.583214093383784 5.572009685115983 10.44718986657191
Be 7.184559625112836 9.224765525310149 10.352018174717696
Be 8.088439180185642 7.467881445721462 11.386302144467933
