44
Energy = -126.22539618 eV
Be 7.907544999779954 6.304283594149403 3.5897327764771845
Be 6.592920167428112 9.590037893839252 4.354953293331055
Be 8.559607521015685 4.750240720453532 4.860132706972303
Be 6.035378202671893 5.323913151935454 3.8492051834621543
Be 6.129168885287045 7.5009376892819795 3.6196262706002003
Be 9.547151171809343 6.680325003256379 4.9603756859555945
Be 7.843727765290267 7.914786717455101 4.941644368674802
Be 4.635121736915164 8.962904089873682 4.362260359947971
Be 7.549044543550525 9.491965307867856 6.334646662096601
Be 10.32957460049025 5.129785200173018 6.039107345771179
Be 6.746739058232761 6.139628675082864 5.512548773552571
Be 4.580644617405579 6.771564416310884 4.86990138699369
Be 5.372465495405428 10.21456659754196 6.009201027066289
Be 9.670739889655158 8.851144295775699 5.415513777228046
Be 5.221092036162514 3.7241676141513467 7.526828689875294
Be 5.0201519128596175 4.942176593778542 5.838522229163624
Be 6.900320095667267 4.017718222795228 6.000889847655953
Be 5.908970461570886 8.143869924063383 5.6253095129484665
Be 10.81998616349612 7.160610735233194 6.654546499726606
Be 3.9819859577642585 8.59620346382145 6.4176984818250356
Be 8.903652137514229 3.7339829259300563 6.8611411253026615
Be 8.32632977305657 5.683225809496659 6.799041908481908
Be 4.933268092557646 6.738068531163837 7.050174940463389
Be 8.891311513551559 7.667689101614015 6.835972539264159
Be 7.04341526880694 7.310517054372835 7.072209051741297
Be 7.120533614421241 2.9552831768498695 7.812995264030447
Be 5.768504368204951 8.746173259196969 7.541105669456824
Be 9.433601856323966 9.570470989296092 7.368486062862167
Be 4.407094063884562 10.074807651519267 8.029768906109439
Be 6.470902092344075 5.391436939493506 7.697188092258258
Be 9.982119299242777 5.736365288784386 8.00294444680086
Be 6.4791055588857525 10.58307778106132 7.884773025435218
Be 6.091358115034511 3.8492291793657665 9.341779018018988
Be 8.129625109894045 4.463318992305997 8.777344072040675
Be 4.136825170900983 8.014554755005504 8.717311671899251
Be 4.765197183454592 5.598516257234706 9.019236072615506
Be 7.74438460116957 8.819817836043647 8.51070687620704
Be 6.084467837269324 7.201713744142017 8.782365529424201
Be 8.127891850561364 6.600966376323421 8.739894794388821
Be 9.79836531513616 7.817185582530378 8.641055985035516
Be 5.717715748747635 9.203915279536657 9.585848459068316
Be 6.67863424894952 5.664714954102068 10.049881249057274
Be 5.149235759112179 7.282108656005416 10.497373715941494
Be 7.204497649078449 7.822401482346365 10.339128155330833
