48
Energy = -140.65454778 eV
Be 7.99094700078881 6.662119977340854 11.158794670534855
Be 9.509311743088265 7.665933288214152 12.262398887014976
Be 7.660487014489829 10.814492317201552 12.711331086603463
Be 7.555556108931873 8.543576092070255 12.102316980797763
Be 11.554375903327426 7.344323622182921 11.786983798145135
Be 6.179045271247357 9.927015497298491 11.388055322489473
Be 9.030369265398383 9.319084927626513 13.372570751675871
Be 8.779863182205368 5.321094267406848 9.790994749592569
Be 7.572951936275795 6.730956109492967 8.981646193362828
Be 6.490766699195133 7.929942679617231 10.373825492224812
Be 8.849924226327001 12.26272389540061 11.71159430001195
Be 10.052826050111996 6.784200522967474 10.4437285802093
Be 8.629753216518397 8.343647066361115 9.981306631289636
Be 7.009523449715752 11.831203269576962 10.853509059093193
Be 11.102583462258087 9.019916219473926 12.884347980015168
Be 8.650530188485703 10.244436404681753 11.011517798403224
Be 5.276950346405947 11.203161081549704 9.865419755111285
Be 10.485884039455923 9.180123769791349 10.756991144724392
Be 11.772608497823104 7.089708876686255 7.6362450803987185
Be 11.91260197818424 10.519685944352517 11.690092110051268
Be 9.663594820177053 6.525985541890354 8.264081961920873
Be 11.982832802840166 7.019244738151389 9.780209310858128
Be 6.38122956712198 8.398233339137956 8.266613644698701
Be 5.009651384134542 9.185878264898717 9.667137584685644
Be 7.249311462591544 10.001959364415976 9.507727924891425
Be 12.70514239818644 8.775809592807317 10.828295277560313
Be 10.542265282580413 8.324352912605171 8.77266687654544
Be 5.444365684980603 10.329534833487262 8.048706934676364
Be 8.446134743223897 8.266299149182153 7.65700545335595
Be 12.741110040943322 8.579935767438275 8.667354190536756
Be 10.075278731925627 10.858136962821085 12.607805959061311
Be 10.346540621604714 8.083637573101791 6.587520855360768
Be 9.378103260055196 10.108941020643904 8.949077574123896
Be 8.65030928449272 12.138168109722484 9.586038659484782
Be 7.348260670575036 10.111332060740715 7.339552756000211
Be 6.818553702066261 11.923279951899703 8.594456437061464
Be 10.464195998112643 11.515676829117439 10.602133425678012
Be 12.443464393434182 8.692987288435635 6.467463340593746
Be 11.225111527464286 9.960285782599566 7.669413712295796
Be 12.092870410459167 10.499514235611276 9.546454649139042
Be 9.302684885474276 9.940356031700553 6.583146503904197
Be 8.679346582207371 11.71242446946862 7.488809901741414
Be 10.521647911942823 11.890023198528192 8.492952142497343
Be 13.388649843263453 10.245424634152277 7.682072861593876
Be 10.98025259302181 9.751954429452992 5.393913971948777
Be 10.62285938865726 11.646821876345971 6.33823164600062
Be 12.359489215909784 11.977885039483233 7.571469109078432
Be 12.575237835189832 10.86707785882969 5.892540362646421
