48
Energy = -140.55761089 eV
Be 10.965644889515026 8.982658496623863 11.965912000603918
Be 10.890873668787856 6.931183872475594 12.098267043475923
Be 9.12415884066858 7.997888950549128 12.22312161838576
Be 10.994491486569013 5.745899104061769 10.50960566080067
Be 9.209091790425425 10.114566315978474 12.626749785002007
Be 9.126187343152438 6.037460758354596 11.318022482876701
Be 7.365387475055737 6.929014746421021 11.781003522067913
Be 10.89599254288152 11.007971497267613 11.618122879273487
Be 12.190240317952634 7.516500208802831 10.523008261498678
Be 8.904064968436398 9.949398072530942 10.527895965107861
Be 7.334467956591717 8.934211033196972 11.903972394887106
Be 11.998818452628125 9.669053986827318 10.300616007851012
Be 10.216410707363632 8.111765416537363 10.027700934398583
Be 7.416802457126 10.94453098691088 11.857994403809478
Be 12.319278717590333 11.681414977832992 10.207078461548575
Be 7.96427170032133 8.0606706936751 9.550558105089456
Be 9.363651096531873 5.965577975458937 9.199661463991747
Be 9.0587044526874 12.089033777549774 11.485229489612816
Be 7.3542225206997385 5.913399346870626 9.991750485516848
Be 10.35984420919738 10.271787421750242 8.73279028112664
Be 11.310548876415943 6.611698980339301 8.694886652807568
Be 10.804213540562532 12.904556349751958 10.732472196354468
Be 7.487987753356576 11.824813115774882 10.00487677284906
Be 6.7287966403200725 7.8485962286368816 6.975405643614317
Be 12.486228530801679 10.605482928649069 8.413266667181462
Be 6.533301777643742 9.949029330708258 10.22716438239296
Be 8.082832307204054 10.010699953652772 8.298825053390615
Be 12.050487748468619 8.509460020299336 8.577604307967002
Be 6.005666588051315 7.887124328648321 10.51103652360085
Be 9.158345914254044 13.008520301348305 9.51511745761114
Be 11.447497205464757 7.455034328138381 6.86722190544815
Be 7.841635322175592 6.222000205290397 7.842393125450058
Be 7.531791037118379 12.529081775448356 8.119689382789167
Be 9.87410902196692 6.138008391119999 7.17277579511444
Be 9.405982427500144 12.160425774420904 7.556413658504324
Be 6.1696632302494 11.03290104260357 8.434433400267677
Be 9.598843910233363 8.231071591574644 7.870671535955459
Be 11.213851626983512 12.60017288683286 8.693061726322508
Be 11.251081531106157 11.465726463871166 6.953583152747772
Be 5.8658277338196125 8.932136484796796 8.593489308948802
Be 7.660329942698404 11.258781028343614 6.506158664055739
Be 11.480504925416083 9.475206998716857 6.838293865553074
Be 6.077219740792674 6.895664233211838 8.658179479085554
Be 8.399161113781556 7.1553905087950636 6.057403751110721
Be 9.997638412049808 8.419931196173144 5.714891171376299
Be 9.563192869393932 10.316310528796766 6.440323515563362
Be 6.231548338756323 9.805516466652026 6.73649721115494
Be 7.97308685588502 9.176651434379243 5.828782962509533
