43
Energy = -124.28337943 eV
Be 8.110216106850611 7.560411824761262 3.7243683514593555
Be 10.126405329003015 7.131155478685907 4.279960435164707
Be 9.464400433136905 9.046589156019182 4.096589681732483
Be 8.368813380016793 5.9078221915263 5.238950078215111
Be 7.285304643514462 9.21268305422889 4.9191752645228455
Be 8.772848859536348 7.831573464577036 5.666033440324981
Be 10.818170690868728 8.570565085101128 5.734827713018509
Be 6.572766443815622 7.202059892046722 5.198107326014263
Be 10.393313345107302 6.49734169147046 6.334986855014331
Be 8.996025260569967 9.859337380153248 6.042119364119358
Be 6.798457227559014 5.791288594644351 6.830712268360676
Be 9.087290331284317 4.850708696831828 6.915305773227532
Be 5.458494610211351 8.883780427632312 5.963819010232649
Be 8.537458614680613 6.658249693048051 7.329088358226169
Be 7.271881220174977 8.235664521890978 6.933544598905902
Be 6.8127346368741595 10.27181579797416 6.883983918509633
Be 5.227821347001589 7.3127062393617805 7.3142197236650155
Be 9.74499998019211 8.267015339277563 7.416254624828741
Be 11.411239323589475 7.59960430099161 8.197128992030063
Be 8.52827966286664 11.5191228504964 7.345934570724601
Be 10.417043668530763 10.203056666483953 7.541038544447844
Be 8.452472956987872 9.583161752226447 8.145741602068528
Be 5.512076107314481 5.664216426849099 8.771256171530412
Be 4.906700460594524 9.332435915787107 7.962414257178738
Be 9.327296973506698 11.17964657851048 9.2099212484126
Be 6.897426334505652 7.008122195105449 8.57804651075652
Be 7.0569242687652745 11.008713397329396 8.910139938520334
Be 6.664822837535879 9.010328553657965 8.753816949516924
Be 10.186358138098294 9.192826941332003 9.448805749300393
Be 10.095036349290266 5.934839138409757 8.560641385953833
Be 8.765347346754375 7.677069385172267 9.136998507565586
Be 7.963868906975487 5.336283963094294 8.898800710573738
Be 5.170597731026121 7.653272179424495 9.610117736189919
Be 10.626934436431766 7.2052488881897006 10.127249926960753
Be 8.044211913132198 9.805299452010207 10.300939958496894
Be 7.220238552738787 7.911230645695202 10.399340739155086
Be 5.815406313805 9.55908566736699 10.49459474189357
Be 8.795296017429349 6.212021075007156 10.696808443081157
Be 6.602608760497591 5.99317667961495 10.552815805603041
Be 9.162016724356988 8.248922155223424 11.27399776252866
Be 5.644022398271896 7.781209524403815 11.726046206496507
Be 7.161437119833988 9.072181163873772 12.134557888414582
Be 7.584181898173356 7.077403635922516 12.260046528468068
