46
Energy = -133.31116591 eV
Be 14.275463667722953 10.630440662632623 13.637944535432457
Be 14.922410740009068 17.094477505435687 13.727621623379882
Be 14.990618449094839 13.026673416431308 15.801301451059654
Be 13.756606772971256 14.83554347442882 16.36139908771857
Be 14.212375135206722 11.462232754209541 17.229777190935692
Be 13.180018858657478 11.528148424229972 15.273641272448483
Be 15.808663187371465 15.154180413783882 16.755578045338943
Be 12.008901136605546 13.0161991107366 11.666962792103126
Be 15.898872620995794 11.935760001230918 18.305264597354117
Be 11.624972351532126 16.412046533362684 12.517966606409273
Be 11.39325189742044 17.403369660846025 14.457568331143834
Be 15.748484311599334 11.21907061461189 12.221944931180365
Be 15.081671657684618 14.867059211103046 14.47586474418481
Be 16.515647030860098 16.721512713943607 15.448977200736723
Be 17.0508652823185 12.692295356625156 14.978172097844949
Be 12.359135867432446 15.08427789237251 10.880347769992827
Be 13.535011804719007 14.236771913334726 12.74520797100491
Be 11.706810811185138 14.605618194103396 15.750059221364404
Be 14.110650981241447 12.384002173954508 11.52274694147782
Be 17.38030357331376 14.771046105408447 15.325372147563124
Be 12.460609625656524 16.577348652683487 16.320862002520236
Be 15.550114412925709 15.219304935461452 12.368853005206283
Be 14.774360976736123 13.540348998483616 17.848630467174427
Be 16.980138223090215 14.091650141748707 13.320381995696037
Be 13.004790213798628 17.800073177138625 13.092422207801594
Be 10.476227219965388 16.2863685805906 15.903562060315686
Be 13.75045616392321 16.27727313757094 11.99568828009675
Be 11.467928431511982 13.578856348404305 13.794679429347523
Be 16.283850240799772 11.336921260297236 16.401475325925283
Be 13.040738720691662 13.399550558470642 9.927933713624412
Be 14.553427838098688 16.611829920601092 15.82634236549537
Be 16.256485868061723 10.826083507041655 14.26680917100913
Be 14.418235083195205 14.551102467607913 10.790473439195466
Be 16.801071482038513 13.349251379617156 17.03153206510332
Be 10.780359993989368 14.573774666420274 12.147263020349989
Be 13.001452066987492 15.73020229182378 14.328236648477874
Be 14.775643467071944 10.215929281253242 15.628319625179918
Be 12.967791326727227 12.983035424330248 16.783298565649087
Be 16.049303783134782 13.241247647592797 11.567525811777099
Be 17.31689316521514 12.136167722124876 12.992576968313575
Be 13.3275259583174 18.018805303585093 15.038133489420016
Be 13.306266597921727 13.596188754029944 14.751562864500352
Be 12.941473721244677 12.119710922806064 13.258877224030908
Be 16.86666545868131 16.091434448575004 13.655212044905896
Be 15.061214359276933 12.80756342825004 13.639973733949157
Be 10.555186679278192 15.466874724052936 14.052705082195518
