47
Energy = -136.80172516 eV
Be 8.03527347171887 8.026995049683638 4.375421936722204
Be 6.006245810308838 8.509466788541493 4.6091250022170716
Be 8.646902775293523 5.934938459057253 4.2960572693368535
Be 6.690885041194909 6.452595837859543 5.075992953684028
Be 10.026141382033904 7.399227075592148 4.823334592664898
Be 7.430566650600888 9.976879887893395 5.301500244463484
Be 5.0413172669707365 7.581731825721869 6.39469870934797
Be 9.061139691937242 8.892724791058168 6.093443960262254
Be 11.787024379922588 6.980989743371935 5.908283649727226
Be 8.492060176950972 6.797484211122993 6.147217449404662
Be 6.982291638442797 8.188898078479145 6.3135783459543475
Be 4.785158667592818 6.696258321793979 8.29877114564221
Be 8.273181158332816 4.820323710789497 6.1670395636148525
Be 10.214707976913509 7.307068477394887 7.136498284575437
Be 10.356952960270059 5.4867563130041335 5.574569652780646
Be 6.646605753240953 11.43800716786601 6.5251097321147915
Be 7.5282819879014164 9.754271369596186 7.59593986646889
Be 5.458922541163857 9.734227073557282 6.2923565071821885
Be 8.866883148022122 11.035714855027571 6.903458005129272
Be 11.716306245380967 5.702604318609682 7.482279153233247
Be 9.85227605841194 9.26202240729893 8.04911774771631
Be 4.237305194737742 8.942975802873562 7.8531063516287505
Be 6.652796337216005 6.248142898366566 7.262447019845186
Be 8.197791291269036 7.819981121536219 7.80146755294181
Be 8.47686457345339 5.655605960061462 8.289741152292567
Be 7.4087338871063535 11.850626843553917 8.368381166555624
Be 3.650542876389474 7.907899423199977 9.502486052644157
Be 10.046332490121454 4.583568664006009 7.417077524213438
Be 9.027134394552359 10.835648030161655 9.167679839589345
Be 5.522228144825569 10.702092743392514 8.203654208554353
Be 10.63750703808535 5.578639496534251 9.204035702792233
Be 6.23694099934368 8.29681027602751 8.383631059510614
Be 11.563085173189796 7.495564289158647 8.733501676591631
Be 6.283724251327874 5.583236811028869 9.336445261317847
Be 9.535524682713737 7.419975756868296 9.177706985888875
Be 7.533824975817112 7.06297228564757 9.572207439249226
Be 5.072294256216401 9.39361419654899 9.889549045876347
Be 5.4348235133725025 7.2754240549014115 10.280181052152852
Be 8.171284970833502 8.954530133307168 9.439150372967799
Be 8.964422141660599 5.903480518565046 10.53459932284287
Be 6.837212167956569 10.567830582873643 9.875193003549752
Be 10.226293645976147 9.128462543358125 10.184560069562446
Be 10.745260281938009 7.0659453973185276 10.755533245814199
Be 6.765846110098919 8.724948360017553 11.090810261419435
Be 7.108895139964145 6.6387353461431955 11.434610132346336
Be 8.815341504152034 7.9045174530044084 11.326571504023791
Be 8.519417379919863 10.050137453069485 11.122431428429799
