44
Energy = -127.04258282 eV
Be 11.335781466523162 7.548673948544639 9.668888016176801
Be 9.756420192564066 6.224711284945914 9.296703261674047
Be 11.034729869590938 6.872755618066065 7.787533640391727
Be 9.060219666169425 6.64617700323283 7.266335211139212
Be 10.780624437237236 9.650190452833952 9.875465151157362
Be 11.851232166242132 8.793513848946331 7.8739165551221415
Be 8.445116749294463 6.133529969776803 10.866330874398257
Be 12.808203944034302 9.049354452817242 9.711849358389522
Be 10.498243885399143 8.144219996771202 6.29769040570281
Be 8.681313749935459 7.684534442189411 5.514480957993417
Be 8.62414568328252 7.555237967176037 12.360355020150106
Be 10.378868431556793 6.862427305149633 11.427965726393614
Be 11.776798606563094 8.5021917843383 11.507037867035713
Be 7.751490918557524 6.818614926467301 8.91396964030154
Be 8.99611029206442 8.166698202932547 10.22998578756671
Be 10.865156967248078 10.165782146178572 6.605042025547229
Be 12.309084162870203 10.77931957911832 8.560280173266362
Be 7.576933122236908 8.245162421396552 7.082874923709653
Be 10.524267452728704 8.130103256686366 13.169360601827998
Be 8.932330192135009 9.617589921078103 6.063383503248627
Be 9.466195535116299 8.823755160346971 8.230513523588058
Be 10.081493971999668 10.974888895499927 8.453461048726643
Be 7.9027896575200085 10.360682082011696 7.693179717969398
Be 7.25668047170243 8.84956563433302 9.10252704828109
Be 11.654995806211689 9.914396963749173 13.01590144283326
Be 6.9760285796242405 7.523982614822821 10.849693252385174
Be 11.348821595544578 12.127356440354262 7.072297142071803
Be 8.65968644401686 10.306220875426549 9.885690343940357
Be 9.722167456726277 9.367475982099297 11.687662837202126
Be 11.259463399072708 11.833255028839458 10.029834948308466
Be 9.290308691931871 11.73965133962713 6.7606896268602625
Be 12.399969391829472 10.540742314564422 11.147385603336723
Be 7.660250879423073 9.336561046134216 11.56926348690843
Be 9.689444512133957 10.120491575370181 13.522635753754406
Be 6.53719588425628 10.926807672947598 9.322341532954658
Be 5.836731010583065 9.23325502142091 10.512175077356176
Be 10.094438785642538 13.12218218264979 8.37761525460231
Be 8.536516311189356 11.297675818501453 11.903831245932091
Be 10.640898464593079 11.460673927523974 12.03720475720331
Be 9.456537842083465 12.571152723467602 10.357152865348436
Be 7.443368256740955 12.483354164915653 10.466963578060815
Be 6.451434904908018 11.014696093287716 11.375416440096554
Be 8.203591663279909 12.18548918699107 8.612714095572867
Be 12.147707405912024 12.998687604742205 8.638189553788116
