41
Energy = -118.50162327 eV
Be 9.616509873881212 8.972358661839042 7.161535176903554
Be 11.555553407815436 9.490837330344052 7.30914429453625
Be 12.090035973788613 11.495055447189872 7.701256885209922
Be 10.546913296396019 9.580542039231297 9.28216045668723
Be 10.064471870578652 11.081900176516777 7.570580742210935
Be 8.733117269886744 7.957583519343286 8.76652901185719
Be 10.746542326085104 7.682463329916411 8.253802437124452
Be 8.515920509203404 10.010093117446361 8.582731669794084
Be 12.66753036415875 12.4611640460878 9.438209975277736
Be 8.620853709165537 12.063572913750573 8.846681802133906
Be 10.037183002464493 7.5497990283467935 10.243486116689276
Be 10.745943621051307 13.077935252944226 8.35481608918237
Be 12.950911115027628 10.01420646926863 8.8141580780449
Be 7.205904562512015 10.849727568614098 9.876812765962182
Be 10.72529866838073 11.632740085126143 9.659825878779051
Be 12.21006545745797 10.568141795244918 10.704270555832764
Be 14.197068810168986 11.25588976181176 10.089429176339827
Be 12.06311728886808 8.348243342473609 10.101117490783286
Be 11.348615805072882 13.576624128025722 10.539762490188965
Be 7.783343633833026 12.627331679711617 11.008243652883268
Be 12.753105169485686 8.775344340294096 12.120259102983262
Be 13.972515923827576 10.670192275783961 12.110362227103836
Be 9.144603089637792 10.992955419512864 10.784162476987026
Be 9.414412971475011 13.466944462095118 10.01673307859992
Be 12.991636344756888 12.502005685586886 11.576614477072454
Be 8.377184448889384 9.036408730895072 10.676156212553604
Be 9.51683680533487 13.691816919053354 12.013812266065218
Be 10.78767148842064 11.85753563484919 11.858672350205808
Be 10.613145961720374 9.5377409717326 11.415871734216397
Be 13.981644725168017 9.262299515615835 10.54339196875081
Be 11.3040617587226 7.375258261772865 11.875023297683367
Be 7.332512884309509 10.655385684157896 11.879211135721555
Be 11.620519690307448 13.912813459606529 12.547944710860055
Be 9.323962094054338 7.823927378738497 12.177388486642334
Be 12.273891676620934 12.31693950039465 13.629033001145523
Be 10.315452471108188 13.006441260050252 13.815636067290084
Be 8.971918648067469 9.80706743214563 12.781829708710587
Be 12.093283886866303 10.475384428283 12.870268404083797
Be 10.865624403219067 8.790910182914942 13.385396562962029
Be 10.373946609788458 10.955453901920343 13.869322301670172
Be 8.692005942136372 11.935802421076154 12.893193241984195
