47
Energy = -137.93579401 eV
Be 6.294974622481753 7.0466721166228465 6.848789934917662
Be 10.390195720100417 8.38647506373044 6.80760485611276
Be 9.018409951500796 5.200672697377085 7.78244997823968
Be 8.19237045498441 8.865480284145956 3.7282914099236737
Be 5.2870967123468136 8.491054211617392 5.492572940402554
Be 7.837781981831161 6.723935792483894 3.776600813338294
Be 7.411154354301011 8.007107053697016 5.494429986179984
Be 9.471515288159791 7.638121011618419 4.954762812008954
Be 9.897855872903103 7.232982650950078 10.575771770864275
Be 7.942043938936017 4.462309401728465 9.520513300511878
Be 9.259488575361281 4.247608969262481 5.861095448669299
Be 7.946934096427512 11.056174152687557 10.789434327524456
Be 6.271078994542724 8.253635412607503 3.6399061062525044
Be 7.838140847035553 7.57577233046428 11.22831365718832
Be 4.843353463598394 6.156934985371087 8.077617374716993
Be 6.224913799899596 7.490126080724303 8.835255310722124
Be 5.807621233738311 5.045425682987204 6.307886187134811
Be 7.929761632142082 6.072496124976423 6.0373988871556845
Be 9.317764038686338 10.656362195727263 9.408703744000432
Be 5.52843684829843 9.520658546862098 8.88326464626955
Be 8.873993320753824 9.534211699919693 5.61801317010184
Be 5.45022198770136 10.27777173694989 6.7562902556300966
Be 7.358751675927228 4.634556133952524 4.716115777452073
Be 7.502300721393535 4.022927428313393 6.8937453097562535
Be 6.712756423146792 9.970372366405526 4.9020999263130225
Be 5.87335413252317 8.268418580014222 10.68179355727744
Be 6.83246167049989 5.516367356333747 8.160041450685814
Be 10.322876977202991 6.768585478506333 8.332918980788914
Be 8.321775792260995 6.764716775626431 9.239977685495251
Be 10.16909932947696 6.209800892302964 6.301310749718307
Be 5.984602848329162 6.5006263294030076 4.794457892394195
Be 4.360040878080075 6.663972203519317 6.1192379588805785
Be 7.205259839788504 10.86184200973064 8.667492487669223
Be 6.919198767647465 8.99548055419706 7.332705893379966
Be 6.595755836889168 6.075649615747068 10.297179104251748
Be 9.407986102807287 5.61522717774194 4.38926911827089
Be 8.52392174532864 5.5825429886843185 11.149372300938484
Be 8.50512754567779 7.584666240128488 7.333337505631254
Be 9.231519508098716 9.253606537365625 10.97251873326948
Be 6.044186309568379 10.459557229054393 10.584454966520386
Be 4.680896695123937 8.273283480439627 7.484896211709987
Be 7.731414935068622 8.891511687890285 9.39161098180538
Be 7.57453118190238 10.932347267247824 6.51147286420674
Be 8.929146104483976 9.805661355694538 7.624132416471601
Be 9.906559817139604 5.210091989275873 9.747575580038353
Be 7.222124195432337 9.462707440792604 11.85350382641996
Be 9.9686501886737 8.652899637322673 9.013218760992372
