42
Energy = -120.18473484 eV
Be 18.55860448934722 16.224107982380936 17.194965152632737
Be 12.1674385683153 15.54160053820075 17.353170076373882
Be 14.944234211006377 18.55978364264105 17.617171298884138
Be 13.860911473883503 15.97835524432208 16.10845026512868
Be 14.411836048152198 16.450448608862573 12.415588644157141
Be 19.498795277086224 14.350738269696055 16.766649280553835
Be 15.192601774228065 15.898129565770915 14.506282371059157
Be 14.185833338637234 17.808833800917625 19.41163411109353
Be 13.858711736254797 14.584664347836473 18.204600146209845
Be 17.097150970041714 15.83949592378112 18.546109879015642
Be 13.07571542796107 13.868299982260863 16.43578188821287
Be 15.349437820370852 14.594386723823106 12.842774685437776
Be 17.02241693714966 17.21942619512584 14.585067199535859
Be 15.021378797980857 17.87175866362474 13.850428155838744
Be 18.65761281362193 13.500187344849333 14.815667626455047
Be 16.467773057317988 16.47630401786706 12.681487003236146
Be 13.569904970182305 18.251078945151306 15.63543633645981
Be 12.27932062337656 15.099355039927875 14.95903241990722
Be 15.877395601800925 14.254833677279306 18.402077763901822
Be 15.14840359385443 14.144775653719698 16.493549468603476
Be 13.096558119503035 16.152658908717815 19.1794018712531
Be 17.43219751469785 14.20323119196858 16.8632793480095
Be 15.435151821816225 17.56960498326509 15.870362503249996
Be 13.284125219303156 14.980242486834296 13.156399536770698
Be 20.445212962878976 16.357126223506278 14.243684310876972
Be 18.287969509716582 15.436499280596319 15.179524896853358
Be 17.493379252557045 14.797165670576295 13.231026494335572
Be 15.157300256155835 15.805107200588658 19.702114317429317
Be 11.956684357419006 16.992663937230294 15.860048373483883
Be 16.477612750467912 15.867035999897958 16.26629053463639
Be 18.563514021876525 16.620639325188154 13.338646913963697
Be 16.17634035771654 17.629510779854563 19.23001124285814
Be 19.0824063367156 17.385185085575667 15.406611798429674
Be 20.64158571728681 14.371645028090837 15.05149164223389
Be 15.051036747870052 16.39355103321651 17.71428482010421
Be 12.999421772968747 17.573881807493795 17.646129637942888
Be 16.97451180343814 17.628864556757915 17.28067137518376
Be 13.103271624618387 16.904028401665734 14.066281577879588
Be 14.182246807688612 13.944945446219752 14.642128399994501
Be 16.403544021229433 14.106692889292184 14.816632240929108
Be 19.59230668882808 14.747577720069572 13.346872496073065
Be 20.44844342634655 16.054869629502093 16.28187314160469
