49
Energy = -144.87609115 eV
Be 10.901826527564982 10.70784559566237 7.511941562880582
Be 11.382768298802581 12.59227431994798 7.112064280645972
Be 12.923753967545005 11.346864377162978 8.087148086029714
Be 9.561209234294557 12.302994278699435 7.9049167296781295
Be 14.103612406809491 12.374241106572073 9.524179309907463
Be 9.59942014432456 10.618191294650368 9.234919711266684
Be 12.627854793251903 13.544458562897633 8.42043458679406
Be 11.763129266869624 9.874945771271282 9.238152467919697
Be 11.330756740175314 12.019644249146777 9.364954152000667
Be 14.204121200931526 13.42491919044819 11.460781450841784
Be 13.793828536911029 10.23892384186364 9.835499951156326
Be 12.829500508833146 11.652396632573407 11.10408903789041
Be 10.585041518825784 13.948360898354064 8.91520802514706
Be 12.172817888313741 9.224171221796238 11.230561773748452
Be 8.878742885787366 10.96076124284991 11.299896584842129
Be 9.423120304670608 14.548573987293185 10.553102733543973
Be 10.869425192604075 10.898531447437017 11.03844884638583
Be 15.765086853703579 12.880324493693843 12.64323437202032
Be 12.494870800071407 13.64094870276762 10.395361456358167
Be 15.089577204337132 11.504671088646207 11.226183643252753
Be 10.216805574244557 9.050740290770472 10.417760653923128
Be 9.067056017521947 12.533500867288149 9.944227062266421
Be 10.721153399374527 12.961072145983632 11.096209756429571
Be 14.00222416419366 9.961127478515964 11.994394255379282
Be 11.331269767315053 15.298285873351224 10.339269408828454
Be 12.114663789720698 13.01157443021603 12.590160550112307
Be 14.108786089539173 14.092055581345798 13.455811697470782
Be 10.69250756162885 14.77318782380213 12.27216892925285
Be 15.527974724206043 10.902448477010493 13.341047629083276
Be 12.760070116926448 14.995018702423124 12.020609658191484
Be 13.733298340691913 11.870281857609946 13.23369058045605
Be 10.346336729094434 9.458405339609348 12.465938128977815
Be 12.082548549543514 10.644947720980458 12.79486977901648
Be 8.982717579872864 13.09785390812843 12.162825472397163
Be 15.305863701765672 12.70713584993251 14.595315931661586
Be 11.950621789591644 8.750720048765947 13.673309840676884
Be 13.751548053512579 9.730793698146705 14.01584385330995
Be 11.932117297808672 11.842957304329639 14.425720294091084
Be 10.25236320788394 13.592449975440282 13.874491162878304
Be 10.145721244567584 11.566089573632727 12.969354311765326
Be 13.38344095249938 13.258691863835725 15.260137941931045
Be 14.176176783752286 11.178724144356615 15.345604275837019
Be 10.555648542899075 10.07507793627324 14.488294547155482
Be 12.432708785977132 9.898316932033442 15.564709805342545
Be 9.603027011961556 11.993029309980335 14.909693994796239
Be 11.148020128539091 13.218101041073837 15.83812484036733
Be 12.088187975934265 14.514729630462032 14.111708972877354
Be 12.66596879368396 11.79441117880216 16.583615656549192
Be 10.813504823946756 11.117024484991317 16.3068080194924
