41
Energy = -117.60627936 eV
Be 12.945485010380699 9.63163226417042 10.180705723821797
Be 11.900205621118126 11.122245797846777 11.106114801036934
Be 11.421226634151376 9.561883673309993 12.346305994972733
Be 13.066410451292136 9.61338882733128 8.029976552672663
Be 12.077548001403402 8.017812430811796 11.160920628048588
Be 11.896910142989835 11.025835212353071 8.938105307382171
Be 9.997651375862324 11.14208391060388 12.20870643475438
Be 10.177815214380374 11.460810691041464 10.119991749353092
Be 9.464290222789549 9.41583409642837 13.18278674879897
Be 12.197528109977943 8.052776668665317 9.00290564556009
Be 10.7327713103013 9.367004575590357 10.163998822113593
Be 10.022671989070613 7.905923323837245 11.906521364595914
Be 11.668175914925094 10.54777037818408 6.815303753148801
Be 10.167058929137626 11.70603597079702 7.837539875353612
Be 7.852521070503462 10.650432577119757 12.710732912609142
Be 10.593072305028272 7.080830769656939 10.088334798857842
Be 11.932141831079104 8.372373453061822 6.774220204498259
Be 8.381704867743036 11.966704864704784 10.990400342426064
Be 8.998621005706443 12.880777359295456 9.19338748595804
Be 10.364551589498427 9.472622977936233 8.024448876818518
Be 8.769520170965027 9.702957364702836 10.965163939740114
Be 6.424304835237445 11.568101060377959 11.312564863204864
Be 8.621463753182939 10.545169533888433 9.020189284579425
Be 8.488570705358725 6.935369921740415 10.78281271501789
Be 7.917520520640258 8.325897671857154 12.313546475213212
Be 10.602007465561432 7.105075226594341 7.994307738510139
Be 10.233444894896712 9.19296682085609 5.870765912359919
Be 9.012216467075282 8.325638050417307 9.211121165882744
Be 7.00168561859138 12.255186968260194 9.361700727314027
Be 10.322938259505952 7.192308948829994 5.994493477574522
Be 8.237633910937157 12.311624995222878 7.448143576795173
Be 9.260944367334123 5.860132178156467 9.105515820134405
Be 8.701815256659495 10.341042283942055 6.861402636822358
Be 7.040227631076375 8.336516281014601 10.294118456454562
Be 6.359024022884929 9.607212757531215 11.738606629031523
Be 6.264325287006628 10.247879084299033 9.672859684266527
Be 8.64491174911507 8.196201642806892 6.964419004572857
Be 6.801974611725379 10.945795346857013 7.72238333108391
Be 8.82987670081431 6.149481203899256 7.156275783509963
Be 7.559970263735865 6.909867268271647 8.65308180078845
Be 7.173939047536427 8.984955850261082 8.238468717175932
