47
Energy = -137.15261953 eV
Be 13.322886650006819 10.95258756632128 7.988657459957957
Be 12.704396255953215 9.172858298529823 7.011969679252472
Be 12.743571806263473 11.420554637189984 10.076058303336211
Be 11.564583650933322 10.97497074339298 6.787522364921722
Be 13.223596325021026 9.232696933473848 9.11475911529235
Be 13.183925658814074 7.450746599735621 8.040709539134678
Be 10.684660612988433 12.470902409892565 9.887865419636823
Be 11.997453552982178 12.42922272120154 8.296527800059557
Be 10.925810844359734 9.03200542344283 6.063060317108483
Be 12.225909145848007 11.03114520920275 12.28397556453459
Be 11.577346762081238 7.123162019243227 6.659005845230794
Be 12.690402596370562 9.529320833824785 11.028660957050512
Be 10.815727931896445 10.807469508397368 10.995449134952807
Be 12.307670165931063 7.496411268831598 10.01966034533596
Be 10.776832452481882 8.772950954940681 10.44133268843327
Be 11.358016560449332 10.325111805450165 8.92652013352271
Be 11.748960059886958 6.130432130116623 8.549129044885145
Be 10.997778784357342 8.28149588113829 8.340912084826334
Be 9.414021209480795 10.750568506494908 9.47190011609736
Be 9.681864750513727 9.998963043439028 7.404858958330141
Be 11.148857594926751 9.240128546015125 12.484435080128927
Be 9.991230650673874 12.066637845494988 7.9064153389728
Be 9.382346081126915 7.886229705353512 6.905040556927838
Be 8.465023707810971 12.651151427558407 9.43869639350931
Be 8.905755532777341 11.748496204571337 11.265393430401588
Be 9.937707817010262 6.126373103850128 7.694215557737941
Be 9.02660948076273 8.762041620973607 9.162813130860496
Be 9.028252240122242 9.537539427450467 11.280817556526074
Be 9.912419819247065 10.869704786810184 12.896895010021995
Be 10.064900942790048 6.8323182948044305 9.77342464465138
Be 7.94976987960281 11.139152419797188 7.956847238476979
Be 9.786415867106179 7.5795108296004985 11.99062526281199
Be 9.35909422891512 9.040175028084734 13.513830277400865
Be 7.659498679579531 9.076388902204123 7.5336326397841
Be 6.878247333880857 12.374939554845705 11.028986118384127
Be 8.21060177332797 7.040424413424295 8.415738034654018
Be 7.447148894456087 10.440478289084217 10.125642805624599
Be 8.112706654404876 7.368513598522657 10.64091205474073
Be 7.741044384734776 10.422024522300365 12.615727636280932
Be 6.519601362031957 12.248409402458607 8.919701337927018
Be 7.872307993995619 8.013183590813087 12.730136921843345
Be 6.024422345346259 10.255215327297885 8.394550895430596
Be 6.748091910993413 8.36984097221165 9.2900191058978
Be 5.773785684784094 10.622654763320332 11.791137937516313
Be 6.748826761160706 8.861794042875875 11.343459816915667
Be 5.097379145593575 11.48507161758021 10.10009650080851
Be 5.181142258649976 9.510169605776289 10.117537160600472
