49
Energy = -145.23937976 eV
Be 12.73837191338172 12.690902823347956 9.080667164898049
Be 12.353326692934022 9.319497934453898 9.992812585245687
Be 10.493377382479839 11.934914390079854 8.62324002390391
Be 12.252807984427905 10.766071919587366 8.446041194477985
Be 9.249863769643245 12.284949160274662 10.385525934020007
Be 13.839138978793544 10.953806553337628 9.766722620251754
Be 8.729610416011909 10.787153317605455 9.118106943411295
Be 12.95692482844323 12.232911193701783 11.203950306548128
Be 14.646263898751915 13.00279027758708 10.114841559917195
Be 10.479297858947492 9.745215329501965 8.966642697987135
Be 13.144062402912803 14.415352710620235 10.459871671264567
Be 11.090963495963909 13.463860305813752 10.174199729270267
Be 10.600474981379609 8.233569139667042 10.420640828116452
Be 14.960103663399032 11.49303908375806 11.55644393160311
Be 11.38452233859768 11.265682496143592 10.381852322573483
Be 9.927026025391994 10.387368750629468 11.58329024074452
Be 7.821923823462247 10.636755358299514 11.016525649297611
Be 8.752149039845527 8.940478576968253 10.073097214507
Be 15.072615432039699 15.153905625822137 11.413810714468864
Be 11.296863357718575 15.381859731106978 11.046422350287857
Be 14.14971524052644 13.600827139180721 12.310733456757452
Be 16.160029624301686 13.1864651504278 11.60379613665713
Be 12.078515397918245 13.734829666656937 12.183857891458402
Be 8.533454425909463 12.069482679161391 12.358048859785756
Be 7.6697295456851196 8.71653028080854 11.772497573922285
Be 11.74815954474206 10.879533367857888 12.619571600039112
Be 9.602821856337028 8.315797023168756 12.223004765218212
Be 15.531161179476982 12.270886313269342 13.46333424253481
Be 9.619922432282443 14.212693787192114 11.575762012991564
Be 9.425230803440112 13.569392890804135 13.55226943095533
Be 8.500477936331775 10.019340791318717 13.154382406021048
Be 11.734059791927349 8.79493092401317 12.041869350839999
Be 13.507281753184346 9.932973158352038 11.659086417094022
Be 13.031775049928925 15.581130791732319 12.208018124546628
Be 14.633038768997125 15.544821963451191 13.553128602911478
Be 10.565083296408284 12.396147198394935 11.992133428151886
Be 9.897798819731523 11.448579184445373 13.883835047377316
Be 13.31106297276213 12.06515901812405 13.33156670847774
Be 10.576276626310968 9.481548941499383 13.72641443144015
Be 16.16240112480306 14.31086072294984 13.279891955240966
Be 12.92916841875637 9.632188499120755 13.757348317678051
Be 12.93617139303286 12.862139739760355 15.388796711054173
Be 10.867099071121459 15.07349999815308 13.131601415905731
Be 12.839271440616727 14.488766645809909 14.0592087927596
Be 14.80285493357019 10.302930836519353 13.271933684939176
Be 14.716846829140783 13.746327739064792 14.718315727510575
Be 11.860857570448653 11.092172848874272 14.817930347737228
Be 11.315861231473525 12.99822928108514 14.029193305698174
Be 14.036030566590306 11.113574670777247 15.039609501782778
