47
Energy = -137.95609349 eV
Be 9.764923391483949 6.933801291874881 7.340142079787332
Be 12.05666792148179 9.251045667257586 5.656398931060804
Be 10.57115581105738 7.890964573403094 5.68042542258571
Be 11.95999917486235 7.497969840154895 7.195466578973352
Be 12.96904429950765 9.393431500691356 7.387635753557087
Be 10.849457868353618 7.120750592123005 9.127560250204905
Be 12.380593468780031 8.5379778914022 9.127408992997271
Be 7.578060804578226 7.273514048210585 7.704606049895052
Be 10.09275014030314 9.989096433279386 5.629688128542262
Be 8.818607370892776 6.519738721584893 9.28068809021419
Be 11.66571363211188 11.031004245080599 6.787237367160733
Be 11.77717049329386 7.550194804010781 10.975042495780157
Be 8.748368423185939 8.539941658027491 6.351021377063191
Be 8.983177393214934 8.581186538093318 8.624384998219217
Be 10.741942456499013 9.165503811750819 7.6717485163734995
Be 12.210131802160925 10.643844296593011 8.860723119622897
Be 7.9672601859737995 10.584630113936049 5.803738228547215
Be 10.046364469759869 6.212423530164436 11.040415053993883
Be 10.130595968334053 10.097559776998715 9.504396362050286
Be 6.7565408718333995 6.361440710113811 9.400835274404866
Be 9.697754797824398 8.29661157021325 10.738278943668307
Be 11.934580101189837 9.65262520193814 10.84117322726449
Be 9.752622024853032 11.91490118861444 6.39328226455094
Be 11.104652348998709 6.740174032861715 12.725494391896948
Be 7.805528137265254 12.564472146293541 6.481351089382276
Be 7.65872528030205 8.215247758357858 10.060058073490051
Be 11.287950725432633 11.71783508922424 10.371116427787392
Be 8.99964252889239 10.365706870067086 7.613993476280756
Be 6.977638550780498 9.216365601889654 7.126795112460476
Be 6.661363495089893 11.229609071127987 7.4217329832627765
Be 7.929720587307031 6.517029299731716 11.277246988755616
Be 10.493386425727234 11.995796820026825 8.406495826761478
Be 6.013660126917177 8.339221088983892 8.801446053174734
Be 10.904390428089204 8.793165418042566 12.570972159308873
Be 8.412992240916003 9.971548030444104 10.808244970798501
Be 9.16268130645116 7.457721916917008 12.767018694479752
Be 8.218495193174467 12.185126852199787 8.533144816928916
Be 10.271492630275254 10.589954511613914 11.69832499079151
Be 5.9403048683556365 7.512982578472192 10.91072306935837
Be 7.300099067260544 10.14090304708551 9.030491551914324
Be 6.217647419544128 9.604880805308573 10.737809381363382
Be 9.260693294047915 11.993121471675416 10.300758940299131
Be 8.909652308749479 9.58883790007553 12.950844199136553
Be 7.32870251737649 8.392606616704846 12.218075324500708
Be 7.1631068482876445 11.653256962541409 10.577776730238634
Be 8.610486378493833 11.677369610992848 12.216680606583992
Be 6.963939710388548 10.479308287659892 12.421815108215181
