48
Energy = -141.13194913 eV
Be 10.97480147523946 10.444082882019556 7.884180400689177
Be 13.064101098256252 9.947763166821625 7.515969472917254
Be 11.432256122551136 12.655777769915847 8.478263249785202
Be 11.616653400299642 8.459529975380535 7.419339143768548
Be 13.514759192436124 8.01027641544732 8.001595214142721
Be 8.671475508191817 10.236778876819484 9.01418351041833
Be 12.839044220599014 11.23574037018753 9.092800170593206
Be 10.114107999898975 8.69658685101837 8.891073129547362
Be 8.202391806643881 14.002228692808579 10.586192207220826
Be 9.546788105200287 11.968427047518789 8.291288492289935
Be 10.72570421264021 10.849578927407919 9.910569185913719
Be 11.823225265898257 7.165355907534253 9.123218972472495
Be 13.775791517206898 7.576958333272964 9.978220821792508
Be 14.162912815381034 9.594031128302662 9.465894075732688
Be 7.189225884996577 10.410464486536839 10.59885476903948
Be 13.388864587429117 13.256029233200875 9.318843467375672
Be 9.656052926940344 13.903378174264486 9.024047641139756
Be 13.820613880893955 8.850062486231778 11.537061338507351
Be 11.625332010881134 14.413698592567687 9.772081854588164
Be 8.540938545108558 8.63933958375734 10.36836407792498
Be 12.0897783816977 9.232459930633093 9.48000494272573
Be 7.675904158255009 12.297081887676178 11.629273744225904
Be 12.165226353695171 7.554187498575718 11.252733288971518
Be 9.80193027404633 12.557744820944201 10.733711016263399
Be 7.982782298041761 12.13678388721173 9.586000273249063
Be 12.667378100079137 10.464247979491974 11.019149889405162
Be 13.183035781077386 14.072366030737511 11.177440177192869
Be 11.923343457474793 12.436035728293458 10.588353689928471
Be 10.201043861211762 7.320543691826695 10.438982258976967
Be 9.956370499926045 14.921181923289835 10.899236984322364
Be 7.440852312658574 8.890615215591804 12.166408931591592
Be 11.247262679691614 13.867499001863745 12.033289039119733
Be 9.158043583909894 13.671631404945883 12.53783498058813
Be 10.839151086580275 9.21819025432169 11.23486074796703
Be 12.259772939983987 9.159491532543493 12.879690606170369
Be 9.081536736763136 10.54725168748719 11.532491952524683
Be 14.014401860233026 12.047356301569481 10.968228433815751
Be 10.98624012487149 11.344141003173068 12.097333627252974
Be 13.645425420653513 10.702116037710907 12.803856040020143
Be 10.741691072693389 12.727573587905958 13.800281207546746
Be 8.75883566481238 11.770713885946105 13.390710260816878
Be 6.987454510787397 10.749621098180121 12.743417162452998
Be 12.720915103923911 12.516159952733538 12.652003583107426
Be 10.295148644418049 9.809243877764267 13.30568981491177
Be 9.397935184829468 8.203060296157448 12.325786132498013
Be 8.380848057773052 9.678133396351077 13.846721598370157
Be 10.011474782682361 11.071364383538164 14.833475528407376
Be 11.984513704489473 11.00045201647254 14.054330105671127
