43
Energy = -122.08528049 eV
Be 8.365129782913293 6.955119771952092 4.081861489339627
Be 7.92018708933661 5.160624889077065 5.021244031354965
Be 9.867827476875583 5.8858153962533954 5.037477775348338
Be 9.878102604941386 8.065234808466213 5.2139099518733945
Be 6.49652692238658 6.957057960990206 5.275420697589049
Be 7.744133877067856 8.699112387273626 5.253605551072397
Be 7.151913694520179 10.809559736611458 5.476761581366301
Be 8.381696756134614 6.820401273875359 6.14919695477764
Be 9.198805521187602 10.151595057729738 5.8390153556815
Be 9.130554130556742 5.058197012707913 6.9851817504124
Be 6.959446314692671 5.492958211407022 6.878916959859852
Be 11.02630488919684 8.851947182367985 7.028535138627093
Be 5.725116557986884 9.084434067669998 6.2185497837900545
Be 10.430905225742451 6.7942861722354175 6.943912884286528
Be 5.161241366876828 6.620420860584261 6.8731738632571515
Be 8.994300327493546 8.45415694812004 7.019461606525352
Be 6.857667673020723 7.766800606702037 7.366927923348662
Be 7.520472176849094 9.769619238555077 7.141575637145529
Be 8.218123578675229 11.685849811761951 7.349111013675058
Be 6.039442650497977 11.12532676497696 7.213133597476412
Be 8.320399148155422 6.699472651040444 8.319013865940503
Be 11.82668864407719 7.468900520831425 8.500492485827843
Be 11.064561310169152 9.589347917576948 9.334413959357
Be 9.122135240678451 10.95167657224287 9.725580413126519
Be 10.137713531065875 5.919955973700286 9.001469459269972
Be 6.002466464145748 5.82938958780758 8.70591133810007
Be 6.010151440877574 9.424725552380492 8.54642193752137
Be 9.67314484724685 10.246349265374675 7.885902611370763
Be 8.215937487980321 9.01867947729546 8.88166192463937
Be 7.845423141457703 4.682414051473372 8.620800517401372
Be 6.827991929902755 7.7109248307974045 9.531437153704912
Be 7.194057431058856 11.048788688052197 9.022695537798702
Be 9.941707449764522 8.012819772604352 8.703850607608226
Be 4.895286635244338 7.652233403454829 8.722979747574744
Be 10.923245223135188 7.590501009034617 10.385507946295627
Be 7.328184427672089 5.856151399377985 10.349282159004666
Be 9.56789672131046 9.218909408900046 10.733964274992218
Be 7.411426073477088 9.656780435968011 10.694768049428832
Be 5.390801399931821 8.861107110605852 10.474879493285043
Be 5.3644364723222004 6.703668246267164 10.621368478243246
Be 7.131567296349772 7.671243888760335 11.564922989960914
Be 8.799962993912418 7.344718615701199 10.33310412831543
Be 5.231179298185938 7.926986686508471 12.266860599499188
