43
Energy = -124.66791207 eV
Be 12.789960914913564 8.743448829095197 7.286127699904598
Be 11.724286962258308 10.208581079177307 6.295023480912187
Be 11.851670811788216 8.171401353457204 5.5824958486006055
Be 10.280492532920015 9.290756341087821 5.0914053713335266
Be 11.027623188892393 11.804680208980606 7.5386950749977455
Be 11.951571380573567 10.253356637443183 8.496154507487049
Be 11.902770978625545 8.173223800997286 9.10932909540865
Be 11.63569224937291 7.013404841522336 7.2463231086126125
Be 10.884703814951271 11.730016659867855 9.591736185617473
Be 10.288622920658419 8.849244512746694 7.561088602775255
Be 9.901306388481595 7.375026821192198 5.916802250312761
Be 9.637272970275447 10.766752749387772 6.411317895394485
Be 8.433982985119384 8.957691442101279 5.945584465682893
Be 9.038740937776893 12.156346415966386 7.953130409774521
Be 11.167052684491399 9.674333123568449 10.392653625138259
Be 9.412243098401927 10.243823825853456 8.964364057319248
Be 11.385877592178106 6.2451224641026 9.255272282478055
Be 9.633145094925005 8.232368128603467 9.658335870978355
Be 11.177523339678968 7.432971711340205 10.989628351466136
Be 9.718131731746972 6.736993282843894 8.029101879413314
Be 9.625695704410285 10.957100417872029 11.084339481827659
Be 8.989211227855623 12.507687023529575 9.988321491693693
Be 9.569701460344291 6.948444907809459 12.230417195199971
Be 9.582596586545083 6.105377082302449 10.24733088517456
Be 7.732468614930531 10.521205045159155 7.249818778884565
Be 7.8436312870087805 7.14410159610817 6.860366193629013
Be 8.075908186080369 8.659661176108699 8.385156137910007
Be 7.460697957460598 11.340450673094292 9.253298785381775
Be 7.904078141821105 6.548062465633742 8.958590742595572
Be 7.568592216220359 11.60391923897451 11.365053791176457
Be 8.547633953871435 10.37988238355674 12.797759309701581
Be 7.9826909082529065 9.501592163577106 10.519387879176426
Be 9.737262159265596 8.879969732696672 11.759737418346779
Be 6.525257824143444 8.798723916373483 6.790183222959676
Be 8.008161768344204 7.351160881484954 10.930103989836976
Be 6.153640828850796 9.883304831985471 8.47028287733991
Be 6.1556506459429965 7.347480087485454 8.114083962651955
Be 5.923331745307398 10.362206157601841 10.516636683928292
Be 6.17836877528708 6.8001363474569825 10.126988357861157
Be 6.608600121003695 10.107533221930197 12.459722824792054
Be 7.846112266521128 8.408115462458401 12.690908413302639
Be 5.157489551223413 8.502824985265665 9.574384893933562
Be 6.109860892127946 8.410831373048417 11.441872019937296
