46
Energy = -134.74523286 eV
Be 8.482786661940244 9.280041494521207 11.362718596166895
Be 8.582289604008404 10.159879493870081 9.31035643537066
Be 10.477816459398234 12.866194020746285 9.302569369489273
Be 10.81454730974691 8.388815579937871 12.344287323938785
Be 8.658656841756619 8.145715828644322 9.597752681077411
Be 12.443261087722412 12.243451349104754 8.79553516939713
Be 6.746648835405985 11.153295052108993 8.715757838054474
Be 8.28597581834704 9.020923590932759 6.221994427637413
Be 10.37176859778529 9.320031726409637 10.191946635539756
Be 6.747302293566075 7.463522933909032 9.47780264657765
Be 9.107664134486328 7.354615733227574 12.84642794635495
Be 9.898770826793736 6.515117156149783 7.343219864145694
Be 9.661299592627655 12.379740855469418 7.207366558789198
Be 9.999864183047121 6.861437307721218 11.03303137425488
Be 11.61152581930489 11.667276371340213 6.779441603773981
Be 13.186790765734871 10.498032947680013 9.880477630464213
Be 10.590462602137785 10.827305389292393 8.586816749479194
Be 8.19067394791411 10.856524503786286 7.2561831742540885
Be 7.883073208060062 6.84584351683572 11.237006756986052
Be 9.77000137606212 8.912772467787322 7.924884765343043
Be 12.21647860923926 9.670773087567456 11.441608704865436
Be 10.3992892119944 10.443910038348319 12.223928681995107
Be 9.892775116293807 10.457275463036616 6.178728447489257
Be 11.333802904762187 13.535498858988818 7.614577375188135
Be 11.642002910306969 9.577932409428415 6.775188588047464
Be 11.541224683428629 11.494271031133353 10.641732635326843
Be 9.207247884389302 9.325541111277797 13.520807373514696
Be 8.813263638303543 6.158429722367897 9.339394696251754
Be 8.407820919413806 11.120760068149115 12.553716516727286
Be 7.384551131791781 10.144231073917602 14.004488812814648
Be 7.1618416794107524 9.139180139500205 8.047419101099093
Be 8.05867168003964 7.318303175583011 7.7058815864181485
Be 13.040251090033076 10.546735069406175 7.8281585189149405
Be 10.271893164674546 8.282528937798938 5.838936443890737
Be 6.251075230282999 8.083489090003363 11.412399141521849
Be 8.460457168808949 12.289874173806137 8.936165749407648
Be 11.639705697467406 7.589370725996647 7.276151357123387
Be 12.045110648755442 8.948398911707592 8.868165532422864
Be 10.709254570108154 7.194109477573242 9.111735740262205
Be 6.531628509749114 10.08197652807456 12.122354714399375
Be 8.687849793412338 7.042453562303056 5.770370541842453
Be 7.35120332639771 11.417807748205998 10.68901321091249
Be 7.3382079173063754 8.315797253621476 13.094890117339203
Be 11.924256711923823 7.798858390788737 10.692158235196771
Be 9.456541173612655 11.507309028062812 10.667693357531169
Be 6.499697625847297 9.531930567476294 10.006040236001988
