42
Energy = -119.86919272 eV
Be 7.9949369318706935 9.503130362967593 5.099168317394017
Be 8.515733520089537 7.74660030750379 6.272013385522681
Be 8.655131942499501 11.491305893108409 5.761546420838779
Be 9.699537665311286 9.765970625750306 6.364384493599162
Be 6.481166166837952 8.548133839433303 6.131765957480779
Be 11.562077638208239 10.038224230550183 7.615326669894683
Be 6.778301761827286 7.226277335206736 7.662087599628126
Be 7.120008279575885 10.533950705875187 6.887567005461021
Be 10.390425314214806 11.855513340526423 6.994463491074896
Be 8.20767040692781 8.960124374169634 7.867110159701875
Be 8.718751350412273 6.9161307242349555 8.483938774986147
Be 12.17107517751626 8.347617683418965 8.922586979317026
Be 8.314307022284188 12.071984919669102 7.775831810481435
Be 10.263067434203116 8.35091156055197 7.911702496390666
Be 13.328490540174794 10.112351648759631 8.787742684759179
Be 6.019740691290874 9.112024737140453 8.117458132508537
Be 11.901382571561326 11.86557756131418 8.596740802431698
Be 10.001855153740001 12.680149716713824 8.936088427101572
Be 7.271151175445486 8.163609840358408 9.644934507915778
Be 9.6372597312249 10.480081591683723 8.494265840921583
Be 10.732805876665454 6.691636384323886 9.15206967659477
Be 7.481641623403559 10.49349691498666 9.169615921109465
Be 9.339737649772639 8.84587818402029 9.95927933162409
Be 13.205334079188306 11.459579899735893 10.318509841030655
Be 11.214914663237893 7.973778265014861 10.790419663757868
Be 11.200238788543764 12.249106595417121 10.612883979179434
Be 11.170545302084154 10.142329179007879 9.926150546205529
Be 13.003149790101121 9.259997730831344 10.787082850144266
Be 9.16649448002035 11.309139895130954 10.453198091701532
Be 9.209643481816414 6.634585889359477 10.556790538623412
Be 7.837722274399374 7.760005311933747 11.664709087931255
Be 7.7189956405584255 9.75826335650007 11.153670607937219
Be 10.03666095593464 9.833120244345762 11.852984935179428
Be 12.083910228663171 10.832186887486179 11.935932427256917
Be 9.796129891088812 7.699106126141825 12.376914162988129
Be 11.874026545600623 8.800389642266019 12.639100921287834
Be 10.337446082679133 11.912529627047116 12.578381607581088
Be 8.28624924556936 11.270792906399327 12.507293527256806
Be 8.348454467355198 9.205001741677695 13.160670857254306
Be 11.430228070759991 10.564064270157115 13.925286673848953
Be 10.247890128012225 8.883325423653277 14.101981332129299
Be 9.39384633056863 10.800150596866196 14.198485533206266
