41
Energy = -118.17990109 eV
Be 9.958937443174563 9.434491757894461 8.706387224933936
Be 11.17181866292753 11.210448198957414 7.691205340544743
Be 12.508148267399717 12.490760664721812 8.72655437628437
Be 13.51562206034587 10.71764545599428 8.213051838841885
Be 13.012774484365615 8.4186526798727 8.386191391045015
Be 11.911142914835272 9.940678585405296 9.02167747381052
Be 9.298061061019732 11.410661580282609 8.74171700931188
Be 10.520883540827093 13.03484318175013 8.23231346853823
Be 11.286138561092237 14.104946730665569 9.784639318981842
Be 11.061426039891508 11.658069085495915 10.136031511713307
Be 11.228970284114585 7.926674569906646 9.401462239057334
Be 9.233605536589089 13.284260505277231 9.797927984485934
Be 14.012507661467101 9.328245025279708 9.88547383323084
Be 11.923214878924489 9.416727013087586 11.013316876543339
Be 13.458627309481987 11.283881274979239 10.225566595369717
Be 8.412471445276102 9.903485627339807 10.014226121966608
Be 12.716999500413568 13.184120119282271 10.84079708237923
Be 13.046386053739283 7.4459262332917024 10.2568234191481
Be 9.667513802436112 8.383562497569429 10.660137226958687
Be 8.820912199157666 11.658753680665411 10.932439661007693
Be 9.717258876121624 14.998047891380617 10.77737547604971
Be 10.444059009066637 10.663923480328517 11.982440432865264
Be 14.521473231454843 8.094023556841737 11.468228641101911
Be 13.786964051269406 9.91241118113455 12.007620582726949
Be 11.563975801911223 14.774078827481693 11.845761426776352
Be 8.727640039879425 11.676186787934405 13.020743709916312
Be 11.294090929694658 7.1253612489317755 11.301084007833973
Be 11.418900440265118 11.73697121883243 13.789176331995208
Be 9.757435870732396 15.087971126774551 12.7778397485495
Be 8.680215567018681 9.633080335896397 12.130608898709518
Be 10.47208820132784 12.78745751797791 11.947782516915177
Be 12.750391806597419 7.980677937413106 12.48683257979237
Be 10.508863906136636 8.516730417415063 12.609338032530914
Be 9.761235346492736 12.15682553712987 14.805272764664148
Be 12.55006616778033 13.285202036851889 12.922289169060113
Be 12.346434871941835 11.433480379036517 11.928555357457741
Be 8.443725863869503 13.635241359140288 11.788781297707361
Be 12.012855579351214 9.798411661235965 13.225225036716338
Be 10.872735811055406 13.825857374504338 13.978415449329678
Be 8.802934274563919 13.621627991397826 13.781981905910774
Be 9.965490620899526 10.18459563955068 13.921704614146968
