40
Energy = -115.0861366 eV
Be 10.286731430699696 11.421448346659675 6.989955668381486
Be 8.246470929852416 10.854540239671916 7.811181848531302
Be 9.60270196797363 9.31981777580873 7.839749138079856
Be 7.782517698753576 8.614251289842478 8.458314992889079
Be 12.195559610531987 11.876911404083598 7.972467474032836
Be 10.797203729250482 13.310500539377983 8.046036429476802
Be 8.866777681266427 12.836996696295461 8.000397150478927
Be 13.544044690163858 10.597832510630617 9.118306239793945
Be 13.77815319684517 12.685122039825128 8.901180912401383
Be 11.62362166979176 9.959437783616139 8.127842735103716
Be 10.02388952510461 11.32812559977906 9.003538844904867
Be 9.837175328562658 13.275529498453832 10.139128834268808
Be 8.404418838564107 9.979588134424999 9.729531917323502
Be 8.021254585911132 12.024090159664752 9.64893964722092
Be 9.2411068710828 7.583620933568781 9.420241964860804
Be 11.077790928993643 7.936726625929426 8.573050752050575
Be 10.354424825998937 9.43023597357 9.894811340316096
Be 12.031659515742774 13.291962693582848 9.723888556475575
Be 11.771344633530871 11.064709173021376 10.152230653247573
Be 7.797246314908083 8.286547758747782 10.805761099522337
Be 9.725948614519812 11.303641711337454 11.043840686319458
Be 9.256186054403504 6.977073366902368 11.48726912590505
Be 12.441164863407522 8.889288351028767 9.874466100748181
Be 11.037199446419258 7.487048975592259 10.648696657124747
Be 9.727879603308196 13.08832384296408 12.557573268034531
Be 10.696810617843932 7.849792548150412 12.805913424780611
Be 8.018244859899005 12.735403663914415 11.59386942152925
Be 11.232375243272791 9.773115673997557 11.728767112202753
Be 13.542595881740468 12.14286215898183 10.821439818716282
Be 7.51837857474988 10.755761699283383 11.371943216345137
Be 11.46965780997832 12.661496266897219 11.582673135200093
Be 9.10587732082947 9.541353267284642 11.88013682469983
Be 13.516838932504236 10.022442710102563 11.260465883769537
Be 12.69229839055186 11.295781482212911 12.551756798290334
Be 12.597134229440584 8.163958019966561 11.878553459167227
Be 10.787939534113077 11.391247525328652 13.27239848440485
Be 10.028564553684136 9.536101699644378 13.769142846408675
Be 8.706858172407959 11.298861676102405 13.098385340900089
Be 8.594615513352329 8.03858034980407 13.03681428990397
Be 12.139506043848645 9.490038067753858 13.499506139992766
