43
Energy = -125.01752409 eV
Be 9.899048134244378 7.0817297217047095 12.497633324649632
Be 11.675395621489345 8.167262106815521 12.142334777459004
Be 11.665840454452352 6.251803246624459 11.355723897891957
Be 10.08948321724981 9.399742774656804 12.749734354328401
Be 8.1731989042244 8.26107945406732 12.760391570345964
Be 12.340999581464851 7.829873943987932 10.136994197921329
Be 9.827730662740262 5.598872801826004 10.87753927743566
Be 10.250795800442623 7.600854395792521 10.465047786809482
Be 11.271438241464757 9.661194416421548 10.739742785335805
Be 8.011401881252858 10.339851965483694 12.315457545933155
Be 11.265850745383455 6.0503866501476375 9.28080337471756
Be 6.934758995768857 8.846986135266354 11.151807529231172
Be 10.443526508927915 8.067786362918632 8.552303309407673
Be 8.261042643093958 7.039036441523953 11.01250414332328
Be 12.110739193014886 9.440850628548421 8.767428499581822
Be 9.079265099834705 9.063684430870408 11.049347863459456
Be 12.364344729613137 7.361397285068458 8.08671828119553
Be 9.205064907401308 6.3265085004762005 8.983831664805496
Be 9.7820149405039 11.072950021493885 11.173430344524313
Be 8.237003386265009 8.362251183118264 9.197054103076225
Be 9.770776020941328 9.980618366123675 9.274356364831128
Be 11.144948072485684 11.454870412066013 9.218187269958854
Be 8.024618798763585 12.192433077193938 11.46487835785901
Be 6.152575520987921 10.938609485378473 10.974152660953328
Be 7.914350441838193 10.512420425919352 10.169111292479617
Be 10.563437032023215 6.568582658564151 7.140981610446477
Be 11.389358947975547 8.611940199882442 6.677606091717116
Be 9.409929913721447 9.322157963698995 7.331508112424616
Be 6.903803743652786 8.463671815152034 7.507250316705119
Be 11.303794447384266 10.56940206099481 7.28884512151565
Be 7.9392648656729286 10.363256865836759 8.202787571559348
Be 8.599931677009902 7.310561302398991 7.163492726639123
Be 5.895151996066125 11.409389596468662 8.797292990656432
Be 6.225691962250911 9.495285819401365 9.233045546562181
Be 9.047707195940847 12.212895847751113 9.459371971348574
Be 9.77251379574485 7.971432053867978 5.640767680663769
Be 6.974945186301843 12.67534625531241 9.8318631159019
Be 9.617090095713804 11.660313611873676 7.510759360932248
Be 9.966042529700118 10.128037168776341 5.614825762056633
Be 6.31924326602512 10.342527155685925 6.970964408844097
Be 7.893946292465091 9.071372644423287 5.861466069471904
Be 7.516219922889176 12.349724511814813 7.8160429942255405
Be 8.154218727751875 11.04416316117243 6.190486093478796
