45
Energy = -129.79551859 eV
Be 6.85802741270998 8.211271906451135 11.02080340261729
Be 7.19017025247227 6.604816274932644 9.712067724096784
Be 8.194532124259839 9.176510301235108 12.234987157084461
Be 6.763331696546952 10.303033787424164 10.806434837642161
Be 6.53027571613855 8.729008421820243 9.086464889841352
Be 8.648717196904244 7.286977952663601 11.25435623951253
Be 9.139316389889691 5.803328059096873 9.913061985483743
Be 9.65060006270822 9.912604182452691 13.59717688047821
Be 6.967689601474826 7.149232576953233 7.714639388425008
Be 8.193282982088236 11.23922421690714 12.103238408272425
Be 8.273542085207406 11.928743782838962 10.132989053326877
Be 10.252069938030154 8.35481151253451 12.12156602702662
Be 8.644863607931535 9.738294722726303 10.221172049812932
Be 7.198178887538161 10.657755775528278 8.683550905740244
Be 10.69719938816769 6.965053899492738 10.501985854828925
Be 8.471034375104974 5.900943237315103 8.041254549746963
Be 8.776113632769306 7.972917631798404 9.051888066933241
Be 11.23111571796927 10.995869047387666 14.295633206919181
Be 9.74159392051041 11.980200975991014 13.35408471879515
Be 9.91205343613885 12.601756518643805 11.3508290006751
Be 7.476571696915098 9.013831886617417 7.1809559770956275
Be 10.083258778656008 10.468342729350608 11.609325606993513
Be 11.662463006896564 11.835176985292607 12.419226800602994
Be 9.202015021528739 9.891487126855935 8.18235761244468
Be 10.085614937127836 13.222422081976475 9.294933280476814
Be 10.562040778843631 9.036826466255885 9.856185422543996
Be 9.037065152539423 7.553883969955221 6.908743203262839
Be 11.78506542492144 9.688439710287005 12.81985142154506
Be 8.75968921465907 12.052435302618633 8.058689871495615
Be 10.43132760044329 6.65208843990905 8.370841572143949
Be 12.179687744685543 8.277393675546733 11.18063373424982
Be 12.09981907430509 10.422106501141363 10.907946616303956
Be 11.841599715197807 12.641026763958171 10.43788788665785
Be 7.767397577578472 10.942167548860047 6.652016803870935
Be 12.16969612875262 7.777388394244078 9.146864208749454
Be 10.335065797361898 11.161834494744342 9.573120650869477
Be 13.364900620891312 11.426029790868277 9.675665525473855
Be 9.302249749428611 9.542040588666547 6.10317895230298
Be 10.40720568694981 12.932770678201313 7.25963802396336
Be 10.845756725714905 8.61046032502992 7.561267074863082
Be 11.94952342393464 12.32783921385172 8.428957599512646
Be 13.533423773947623 9.23330652397068 9.965710301705982
Be 9.487861267659039 11.60161648939814 5.94319176735568
Be 12.174363743801775 9.996316508968771 8.675856404466474
Be 10.901993836541934 10.836686401183101 7.182292371088936
