42
Energy = -120.31933361 eV
Be 7.925693338231129 10.503831397153618 6.583085472483352
Be 9.619934455588403 11.484328720174007 6.639502787104478
Be 9.9267415965177 12.988973105068778 8.087571069246328
Be 11.75421031743721 9.43779530923098 7.287038597070117
Be 7.965577782667466 12.15531112143003 7.856310008938912
Be 12.703143093291635 8.493231563986114 9.082604350574018
Be 7.553425552760903 9.836756854035729 8.473446501897163
Be 9.612375547838566 9.488266430535816 7.395300014544715
Be 10.888210323505287 7.837271943780008 8.143597813825757
Be 10.533313881949187 14.007092593488226 9.798691790266988
Be 11.094639732049233 11.285221981496573 7.982800554404497
Be 12.837856108051065 10.569628100717576 8.802422720418448
Be 12.024002583483577 12.805463421837146 9.015697576307025
Be 8.63637706708507 13.28398027198581 9.695950690006903
Be 10.829657190845236 9.653809940970143 9.249960911260933
Be 7.759137838547993 9.933138863617058 10.47315781865646
Be 11.930147471745281 9.66757442382632 10.967094109153296
Be 9.06533796784705 8.48687707969739 9.327784561504304
Be 9.212417088467147 10.965856333921327 9.16020025622037
Be 9.765956702846022 9.687161853287115 11.116296931360985
Be 13.879434988654149 9.738706327183971 10.572373317122059
Be 13.191085665450359 11.758676724069353 10.351057336364269
Be 7.503513497074004 7.998985121246646 10.606679047025702
Be 11.013582812024973 7.7793342373754575 10.250426124995645
Be 9.298609419428011 7.530366906530324 11.524558967533263
Be 10.896998390251744 11.489123491845492 10.42926105941442
Be 8.803907942398078 11.785054631834104 11.202159146708281
Be 12.785842128579517 11.255570805598364 12.204163372172678
Be 9.892311650866235 13.487579079367674 11.603982909338585
Be 7.957825701740943 9.031254139700474 12.371537284753236
Be 11.96995687244378 13.217425361849871 11.249051599415747
Be 7.2253469502600876 11.657621587617097 9.756237947580136
Be 13.116441436860603 9.139438037870137 12.664382549631275
Be 13.014338505121087 7.811094571964525 11.06214098365726
Be 9.70469331671959 8.577612470170523 13.36968863324893
Be 7.165676674925058 10.932536616643777 12.049042115251014
Be 10.931250650805607 12.06555677554863 12.707675779457514
Be 12.350797735940244 10.594743633578934 14.13038761910615
Be 11.335622910515918 7.82524396535085 12.312375244544485
Be 9.047713410409438 10.689228602016344 13.035612782724225
Be 11.795391422931193 8.573191651903697 14.107725630419893
Be 11.022261069534439 10.03084274418326 12.841724807981324
