43
Energy = -125.04996587 eV
Be 10.387305278396177 9.181040555032638 7.370154006054564
Be 8.49218154708531 9.656112333764627 6.714932993348969
Be 9.54188553192892 9.503620095807056 9.447956583324935
Be 8.181189836365858 12.073577775463534 9.414136481962426
Be 11.5217391302147 10.74680900986954 8.235330150875082
Be 10.334284500397393 7.50903684034872 8.608640313334844
Be 9.42073041710101 11.126553288597226 7.7591676150632125
Be 12.012759905808476 8.748720824714047 8.773425815025016
Be 8.48249967361893 8.195954269559412 8.077842767780806
Be 13.272389013610873 10.313879715257405 9.438613198599867
Be 12.207459187235058 12.149035462922878 9.797301619582315
Be 7.582233451875092 10.293417032381177 8.458007648794814
Be 11.288564716513415 9.991050753798486 10.517392049459522
Be 14.306590953062859 12.06307043532389 9.726251910551381
Be 7.219870106665855 8.648533307917745 9.656449087559393
Be 10.147683242302573 11.549972440823831 9.611229938340404
Be 10.689643629808605 13.306861806758622 8.868166699050004
Be 12.606084754949412 11.119915788121174 11.652426902306619
Be 13.307797394957861 13.81898109736627 10.334318239287063
Be 13.13197843148084 8.773403159462019 10.809712480843755
Be 8.300208823695641 12.422998389341442 11.649810333586599
Be 14.525433585678641 10.448257730527686 11.088041736003545
Be 9.359567847090698 13.584860196807922 10.4201798025648
Be 14.295775746468047 12.559367746012121 11.620127998776193
Be 11.287241540740075 14.117422864925512 10.690849510564904
Be 7.150314835598265 10.593541210365368 10.539489355281473
Be 8.868855536917337 7.489125959186023 10.139891443486206
Be 10.731095778343903 12.082093542131947 11.49513178394056
Be 11.272884226491088 7.705836337228713 10.453217868311768
Be 9.854983342256842 8.594925357329375 11.598933020828246
Be 7.790321627546646 8.814972716062718 11.627053384476945
Be 7.607791667257467 10.640753215970298 12.656161208437899
Be 13.637487272805187 9.459880223940702 12.757503040200442
Be 13.5310367355751 11.651656349294571 13.430844290224817
Be 9.211835726525399 10.572687898257751 11.259797817481997
Be 11.807898232716761 8.538856331348313 12.438831602724253
Be 10.0998406035484 13.60482610412728 12.556792636475098
Be 12.418129734439201 13.374393810878306 12.244448665055424
Be 9.344306339799822 11.669965673591246 13.309261808541782
Be 9.078527097279842 9.506104457206597 13.304096879027286
Be 12.22986727752955 10.166191190484724 14.041296817308748
Be 11.455455023258413 12.12150760689187 13.584713835064926
Be 10.81911643503849 10.323074834780364 12.634914400472548
