45
Energy = -131.85678733 eV
Be 9.166793306437807 6.439962130843325 10.25231712345663
Be 11.255329550937892 7.021783920538478 7.478914904085872
Be 9.303964647126925 7.144321137903986 8.274204536053292
Be 11.131284690801502 7.053119193435118 9.509315377963132
Be 7.369969482005365 7.000364157326051 11.14469735102136
Be 11.996949353086187 8.683576217837137 6.543036223181647
Be 7.310114805112287 7.576952904043564 9.124333418167549
Be 9.943712367008478 8.295147219382025 6.548300937646318
Be 10.464307119851675 7.796885504404935 11.302167585714782
Be 8.362335948963537 8.954278726734973 7.760441983209886
Be 12.723197599245637 8.319432523799877 8.478135399764495
Be 10.541580087820432 9.0103813149077 8.56138416365147
Be 6.397829323139787 8.774274082723078 10.745698590034184
Be 12.04250290391782 8.810536592722059 10.3870164086381
Be 8.96088775488797 7.086901893080824 12.368423133114238
Be 11.410924056954999 10.621061500121895 6.92164533284692
Be 7.0764781415494795 9.833968508391775 9.08039896924629
Be 13.238027056637504 10.165018185190137 7.62583581623709
Be 9.450828812423783 10.308035572718357 6.716073501926241
Be 8.878311445224304 8.593938113922787 9.959929166981937
Be 7.902097374657305 11.35923127903741 7.696780388725293
Be 11.540459324944935 10.711753368429566 9.276884790127985
Be 13.593476103075709 10.064648840848735 9.670283952808084
Be 12.57268037130128 10.581016271079825 11.450144794336078
Be 11.718698912743518 8.898391564950131 12.454011524825974
Be 7.482882469975705 8.507256167964028 12.66088316125838
Be 5.9055927715608565 10.797909338159746 10.57467315118677
Be 14.154966398092853 11.755510313168921 8.629754807150874
Be 9.591530064635533 9.141802737779964 12.862071493245987
Be 10.082054312290442 12.141869128602153 7.444673195056038
Be 12.306514692949149 12.232125911563477 7.926359783433183
Be 7.342868100748761 11.886184252649283 9.661589394371981
Be 7.250618773981961 11.909186745763211 11.87556601460475
Be 10.318453081542529 10.026343454604476 10.888126576183376
Be 12.825953395612924 12.229463991408531 10.068550894386268
Be 9.245357755568048 10.601609810424923 9.120627238718235
Be 11.1857146181146 10.735335589443999 12.991217800069176
Be 10.830452754301845 12.867630980383048 9.34790168391528
Be 7.8538445344940415 10.415817473449035 13.38150905641971
Be 9.342633786433499 11.35186470324694 12.424874114074614
Be 8.158858025547541 10.20656791641299 11.062121427985653
Be 8.766371106377896 12.998597941281654 8.717564983000221
Be 11.092631276250687 12.089359500758311 11.329816816139338
Be 9.151072199445979 12.255752663386554 10.610136763518529
Be 6.103009359220828 10.088950672178179 12.435726288519438
