41
Energy = -116.99118024 eV
Be 7.2863890579069 6.504126742757138 3.897966245630151
Be 7.361221939470788 4.360128867261283 4.035311417273954
Be 7.169614140528737 8.589272437664901 4.7517638405095335
Be 8.952059773490658 7.164053635593965 5.086690989154786
Be 9.162334047475646 5.43906705699206 3.9335021986753733
Be 5.589361317249978 5.421469209656927 4.355037119822048
Be 9.475494809737885 3.8660477400888777 5.129905960218918
Be 6.042252090815019 4.388937238508936 6.00689305463869
Be 8.611986984295077 9.88543308558235 5.731072779360523
Be 5.383768220093012 7.440910888517077 4.798155152988093
Be 8.022319917687714 5.013554799576917 5.810179840177196
Be 6.71918284887628 10.623752671834009 5.436715414611008
Be 6.257280345064564 8.543122124032884 6.67162132872133
Be 5.057788876071694 9.433195198911902 5.0371808272256855
Be 4.511873424644017 5.9909681564424355 6.138096320407498
Be 10.243430637244726 7.690924285570551 6.86285409242884
Be 7.370632390896148 10.251313449336761 7.47778562173922
Be 10.28289046500536 5.622415425465528 5.8985038513369865
Be 5.222915285573906 10.345850658610152 6.829451125373026
Be 4.2127696441095175 8.180550730031685 6.725755871339159
Be 9.346636277141604 9.510305299911314 7.854434784280069
Be 6.796285664483241 6.627985226267811 6.134897873230923
Be 3.4742957231765343 6.46532753079633 7.992352958784743
Be 8.260054557897893 8.230219689062748 6.7125731565968225
Be 8.71630896003754 6.3543941598527365 7.124091483745402
Be 9.301212898382666 4.390520331542314 7.358693700097453
Be 5.7685406036633164 9.17902715691723 8.534527294840842
Be 4.28454784924737 7.909012083548062 9.526605699207563
Be 7.113759089177626 5.094238641328795 7.700694987985081
Be 5.4182799774212596 6.9541782777580705 7.939404779902783
Be 10.468379588001953 5.950972657083293 8.134222310982219
Be 4.991961355753261 4.858270901697107 7.908189965464502
Be 7.325911443366087 7.327067077688684 8.351687908323497
Be 9.378874724583579 7.651993572702647 8.849383198781045
Be 7.876245121534514 9.174713571527054 9.302056156612002
Be 4.3318211847271195 5.821188267887505 9.683966679521854
Be 8.626693721362841 5.676292288804626 9.153699347116493
Be 6.1242252653028135 8.662083310344801 10.420943672532118
Be 6.406137217048198 5.5696151698328595 9.558826497355145
Be 5.593652920683302 6.842258901827289 10.981969074755689
Be 7.7201391295944335 7.254770970006821 10.421864907076172
