46
Energy = -131.97937844 eV
Be 16.47579486239327 11.927541644490056 14.368070410035742
Be 19.002859902448574 16.5457803656206 15.691312701883552
Be 18.165349609765528 16.980755872123872 13.70100561486842
Be 12.17625583387858 18.91672485436971 13.869855609577465
Be 19.258351535194596 15.130782828760296 18.09769952840416
Be 14.680227831638886 12.856638690919235 14.01327662349657
Be 14.097988086646712 17.522081878783627 16.637965353868417
Be 16.242920030857427 17.81434727515857 17.14125370704991
Be 12.760066417316215 17.8011250360323 12.277980999215764
Be 15.45292394651028 18.672255508212448 15.403498329788185
Be 16.714557934212117 15.567788346619086 13.10583455813431
Be 16.31183769144956 12.773302880879283 18.14162927161259
Be 17.397378893755647 17.969035122902106 15.284273205079586
Be 16.290463143022258 13.477485988724307 12.88515487695255
Be 14.151263945499148 16.44550468495604 14.561578576127209
Be 13.44094252909888 19.06038385269694 15.484737758191141
Be 16.72055665167702 15.98834681637827 15.423083526757933
Be 18.571142651023173 15.063290150217512 14.052875406060313
Be 12.24449669834358 17.36569040070689 15.440660291331172
Be 17.66326662929647 16.220134764099726 17.283444444265964
Be 15.493774499656055 14.587925262060764 18.937336438892434
Be 17.47910958646646 14.472624909479658 19.167864725666636
Be 16.608126396441282 14.354710017550289 16.84298321443326
Be 18.41026574893332 18.3892857685183 16.897001957310923
Be 13.173875075537348 14.319072466462005 14.206623341387893
Be 15.239979751366816 15.860316161198714 17.167931686071984
Be 14.640373988379723 16.795298431530156 12.402486066138536
Be 14.557706522597492 13.795737909348027 17.363783396667856
Be 18.62073818010775 14.448355255987805 16.123881466629708
Be 11.70335094220088 15.557695417628844 14.634971762209648
Be 11.262221889742813 17.144758247505177 13.446086716300698
Be 15.509260968992436 12.47258488974047 16.094684373453354
Be 13.48977540481839 13.126587687171643 15.77887317821333
Be 13.232304624410812 15.31546022609715 16.252276651706207
Be 14.734509747834949 14.832998245870018 13.064132423245924
Be 15.074034845101203 14.560284429464666 15.349410446594096
Be 19.490736886794505 17.23397469612032 18.176813405891988
Be 16.39890285788104 16.512335409463972 18.971671181746338
Be 16.097533801501445 17.515249572939513 13.758827045954256
Be 17.540432083314858 12.454665395177928 16.22656589679804
Be 14.260941713202541 18.552232564091852 13.645440750354641
Be 17.02022021778466 13.897636312086004 14.779092077593468
Be 18.382211039498102 16.302322565187165 19.61359771411924
Be 12.759646898207151 15.748791339588033 12.764009362850093
Be 17.759683787273637 18.069736071865677 18.815790177302187
Be 18.389916479442277 13.265461877352857 17.858045160798795
