46
Energy = -134.59889414 eV
Be 7.31877500196931 5.560481771716376 8.881911609232711
Be 8.413955948627043 9.294510927646751 8.335562942257216
Be 10.655645891009005 9.741949194081682 7.762409310931046
Be 9.429417755719134 4.2888350936711594 6.922351615087441
Be 6.318595292642326 9.18015026086258 9.00763854850155
Be 11.201348807516501 9.522553440993747 5.74255762798768
Be 8.892688989823998 8.46460193106619 10.709180150774664
Be 5.038910367823548 10.285843456630294 7.871650150849246
Be 8.425444098327569 7.542314039366392 7.061820824697784
Be 4.820357038188756 5.902588673581479 8.456385522276497
Be 7.474611273550205 3.6189684662148953 7.655882228785664
Be 4.911776288662329 7.070267720319491 6.304789852342569
Be 9.15841308658468 11.235414232951957 8.101589084156242
Be 5.865714423695492 5.136534591664871 6.816854509503957
Be 8.131587650599696 11.485336186260941 6.165040678241797
Be 10.21688019300536 8.04640911698615 4.784957306726432
Be 8.940986036770212 9.467130033654334 6.398160780310488
Be 7.815831556485487 10.274324341525437 10.023101404286672
Be 5.616361969458708 3.990953946421451 8.551597228552101
Be 6.850850036845032 8.943435971526462 6.854966161941999
Be 9.369971332919338 6.289297666006162 5.680475680812852
Be 9.591167959737117 6.084989996617394 8.02608337629273
Be 7.0567326253339315 10.932383205846977 7.8832906759333135
Be 10.232501660192662 11.23977066917741 6.297288650182486
Be 7.412371292422015 10.048019495555097 4.904857028615628
Be 10.581712567138414 7.7729256263051125 6.850564113304759
Be 9.01593931760736 4.209394655209015 9.01085905606517
Be 6.450817241073208 7.045700321453044 7.713554755591018
Be 9.238358121648336 6.206707658821454 10.110927557983
Be 7.997001383946544 4.66875248018689 10.850173648182526
Be 6.825398385147215 8.647455393333164 10.922515565042707
Be 4.6774722338189925 8.144295005079176 8.183631228923105
Be 9.548363538787687 10.101440503384104 4.568721571078658
Be 5.910873613369286 10.794419694555707 6.040633128046946
Be 5.909103569889503 5.0645858563184545 10.435434035245486
Be 9.908371444777478 9.966651849125798 9.680668670593993
Be 5.9611656291898605 8.497863583371354 4.9299952212973555
Be 8.162799910311673 8.127191396155519 4.872343189022226
Be 6.829462635409347 6.6928380202587 5.534851303485442
Be 7.389938969464799 6.613458702955302 11.082198840422409
Be 4.536484931807051 9.155137436484965 6.315984804508663
Be 7.8244708275567 7.557415836399946 9.193391410041015
Be 7.163909877081981 3.311701521124019 9.66999572476157
Be 7.863035253837046 5.4880046505841635 6.845859138941935
Be 10.040951596799157 7.961449431919003 8.949393147595309
Be 5.792048519336558 7.114122092537855 9.826477086494926
