43
Energy = -123.16891004 eV
Be 10.499583605304165 6.667193829289311 7.204727150548511
Be 8.508478192475549 6.645711764193769 8.216386797087027
Be 11.875093581481776 7.817553914754815 8.189961104185572
Be 9.607993737839875 8.381504744540841 7.842263723011894
Be 7.267280221191873 5.387512349805959 9.25329354205971
Be 10.30038167185705 6.720965492191563 9.300144436374643
Be 6.613090362895546 7.353826341449356 8.814128571455221
Be 8.623085546265452 6.211081665276895 10.525181209076498
Be 12.045897534759582 7.581428337970589 10.278958552981361
Be 12.76496909725723 9.400701205935269 9.436048232499074
Be 11.03331810624219 8.62123522010239 6.361175579840754
Be 10.077609491656348 7.599921033509875 11.289108138380076
Be 9.291555311020497 10.036922650404644 6.61095679784967
Be 7.653092263226251 8.409094283325677 7.236083615136735
Be 10.524967981022357 8.822799215239835 9.58921153989742
Be 9.203578106136396 10.491079580990682 8.815459161448612
Be 6.661476048318461 6.476929550088481 10.822539774964609
Be 12.909431447672018 10.549555734185839 11.347852940243866
Be 11.168157483947779 9.883271450205669 7.92609389810429
Be 11.394842403814389 9.187786271439567 11.539537768504351
Be 10.777289360087043 11.471275046084191 6.718978514377749
Be 8.019820589990713 7.716467386607216 11.960412371413362
Be 11.191519573926465 10.714331867404324 9.839983647153252
Be 8.433033621641266 8.319882623587025 9.717896463868522
Be 13.753778388089529 11.392881208234801 9.795767889933844
Be 8.783535146287699 12.045424658898526 7.280705453088724
Be 12.422772070967952 11.519240866356087 8.296136003942648
Be 6.414421737411864 8.466400230488615 10.649929114713895
Be 9.570757652134086 9.089925532549909 12.723191189122597
Be 7.375110376573169 10.500113408037695 7.110952960488395
Be 6.39048481889445 9.454197130473414 8.588994133840247
Be 11.003374596858555 11.195220461517408 12.089247093247552
Be 9.4068135423704 10.076603570542252 10.88149541966211
Be 12.090758783820785 12.45393419596094 10.547217047435634
Be 10.5955052839693 12.450606793969179 8.489598129883104
Be 7.107235563842787 11.642501759199355 8.754485410712945
Be 7.577660123417303 9.750729878450903 12.132765875980482
Be 7.33085096812679 10.239993649150314 10.183966723626364
Be 8.969178566105393 11.127426987002835 12.74447390638707
Be 10.02693681696625 12.207962418928885 10.442339339342206
Be 8.640718024520877 12.891296622321399 9.192922648125329
Be 7.994169212843364 11.940828146260591 11.045955814001967
Be 9.649782849670617 12.884052089649764 12.187845929136024
