47
Energy = -137.75293339 eV
Be 7.731719510754643 12.506373827617612 8.506237328483378
Be 7.554764988061717 10.01440305162599 11.62498859175535
Be 11.31626403863475 6.554566157232078 9.23917407524679
Be 10.439082622048458 9.405301150747881 8.84768529319908
Be 10.916572111329565 9.473290907231915 11.010325495019423
Be 9.590051244714667 12.974000546790553 7.370659132045809
Be 9.617718457906658 13.098102005987652 9.392533289619577
Be 8.18332594830427 11.932967742301265 6.395678936058435
Be 11.171758036632994 11.921064981640276 8.209516002506062
Be 9.405248935561763 7.716881792835942 9.99629953943256
Be 11.947930702512556 10.094166623079854 7.505198392822113
Be 11.5412337547642 11.417463513739634 11.700851627090335
Be 12.134001276356855 10.618441013540949 9.618108463900732
Be 8.12051860852742 6.021408201775669 10.652256836062595
Be 6.530686287509964 4.983203140683859 6.992260749736222
Be 11.153846730070958 7.4151880932961065 11.456488697522865
Be 7.096191720234123 10.640806423815073 9.529743240523
Be 9.316952925883976 6.702002210768222 12.251971764789525
Be 7.211984101867782 8.598112361836181 10.063377776166975
Be 8.607898089091503 9.978718439947345 6.1595037123777665
Be 8.416443821052306 5.8115198980502525 7.060441397195497
Be 10.205523158704475 5.591299985461728 10.811173109775
Be 9.357326734727938 5.629255409740979 8.986664653238813
Be 10.078470215738212 12.816805589604161 11.477694196452479
Be 11.863032976908224 7.969548610625718 7.7111819479038575
Be 9.10634623547459 10.972190722167573 8.298070786654758
Be 6.985625011234017 10.668576877991336 7.49934582432982
Be 5.661563892380492 6.340523502482018 8.170020517102346
Be 12.179049802112857 8.416775198173221 9.666788367797508
Be 9.499869404283046 10.866873255674621 12.032031250970078
Be 8.492931920104958 7.840987199226686 6.313007362105332
Be 10.23045777483167 11.224786476470388 10.026168730575238
Be 10.366387412809408 9.009878377830333 6.61649278667446
Be 8.361171794345848 9.041646367136265 8.218139955964844
Be 8.292051778608334 11.93558669524112 10.623885684807698
Be 11.629491109974671 12.773218376895837 10.116207049103112
Be 7.545723907512842 7.711263703589344 11.836421173718357
Be 6.280813211308154 6.79045584668453 10.095123598081306
Be 6.200053410898539 8.479299991787851 8.192533127807193
Be 6.644569138783929 6.957907345868715 6.47514564014329
Be 8.90667221045123 9.773785941282117 10.19443334596808
Be 7.811952570171555 7.081328012300843 8.588680232570077
Be 10.328817229369077 11.17687874575178 6.420660659503892
Be 9.297541002278837 8.768210605203453 12.183109380781243
Be 9.859745024997903 7.351868721319937 7.837080912674153
Be 7.236338215778265 5.109041752675615 8.962428179280653
Be 6.792346350419697 9.042090010299226 6.282276590491875
