40
Energy = -114.90448608 eV
Be 13.135762669672244 12.183594274881733 8.469151591705579
Be 11.630257143159293 10.72102236653767 8.252811658325621
Be 9.322684862987904 13.611557307665414 9.709159457894296
Be 12.545548490673271 13.903701558027088 9.376734087404042
Be 10.263900848106777 10.264963118284102 9.692563962330443
Be 13.431147094343425 9.584884920854956 10.983692862751738
Be 11.889505701386213 9.068328477768864 9.65480531693395
Be 12.156643081580631 11.523970368665688 10.361345941934518
Be 10.941395560045397 12.568887546171739 8.912538779943217
Be 8.515642787834539 10.283335506165562 10.812976393204096
Be 13.506300535280468 10.203265919095195 8.975214858599298
Be 14.423437096648488 11.329507121547758 10.471623618865614
Be 14.524477133868638 13.15186698740398 9.614754311597773
Be 7.915220576539361 12.312120456949378 10.517180044102625
Be 10.095697129460364 8.591588133216467 10.960657675040261
Be 9.009296556684797 11.671433220613128 8.953538975436024
Be 13.317388874282061 13.162635950002961 11.273204288818414
Be 10.077594156265892 11.882048822462453 11.01652046080776
Be 11.311754423948434 10.256188483586463 11.894240014156582
Be 15.029684768917384 12.35956467534898 12.18253620257049
Be 8.264686056620631 11.645613650360058 12.466628999181983
Be 13.146789252431713 11.251044487736996 12.209565669558762
Be 9.036709701122982 13.568201701863932 11.86175959098276
Be 9.243744148406085 9.554783133002722 12.64793201689104
Be 15.005648748221711 10.192623173213493 12.238822926350041
Be 11.075579054157146 13.88958836761626 10.830269050871768
Be 11.514632624441777 12.542000627839116 12.374912142144048
Be 10.828318101834265 8.221722007632897 12.978679483636409
Be 12.122410428749172 8.125189843060273 11.502330144422041
Be 12.455062698451737 14.54787212836096 12.468995531619319
Be 13.421779399303878 12.977961520412451 13.435601356271523
Be 9.457098474149827 13.265212331953348 13.844612313726863
Be 10.443813392189387 14.731992641405025 12.754851237504745
Be 12.967911181197875 9.359299176614597 13.175324906555756
Be 10.939424359075351 9.760720806267607 14.217441266905128
Be 10.052395102115154 11.34540465608947 13.299221784827015
Be 12.222147026228013 11.35830910064465 14.09614309405618
Be 14.35331509537585 11.09688172138244 13.90465286816885
Be 11.57603320280203 13.663414430563563 14.26946372518254
Be 10.585112069036768 12.023648886328353 15.093490996318666
