40
Energy = -108.11970427 eV
Be 15.171530288799307 11.21457319612781 10.687029381944683
Be 11.712646820760709 15.063515208163409 10.623244415893975
Be 14.280704990543141 12.767028166508311 9.611637528870407
Be 8.25376335272211 11.21457319612781 12.73826425957687
Be 10.623244415893975 8.36177843335814 11.712646820760709
Be 11.712646820760709 10.38552616144067 8.553407755462825
Be 10.69392754875051 14.096624333854427 14.444092677705578
Be 13.813656112650877 10.658265475012975 14.280704990543141
Be 15.171530288799307 11.21457319612781 12.73826425957687
Be 11.712646820760709 15.063515208163409 12.802049225627576
Be 14.280704990543141 12.767028166508311 13.813656112650877
Be 10.687029381944683 12.210720445393473 8.25376335272211
Be 9.14458865097841 12.767028166508311 9.611637528870407
Be 9.14458865097841 12.767028166508311 13.813656112650877
Be 8.981200963815837 9.32866930766699 12.731366092770774
Be 14.444092677705578 9.32866930766699 10.69392754875051
Be 12.731366092770774 14.096624333854427 14.444092677705578
Be 8.981200963815837 9.32866930766699 10.69392754875051
Be 8.553407755462825 13.039767480080881 11.712646820760709
Be 12.73826425957687 12.210720445393473 8.25376335272211
Be 12.731366092770774 14.096624333854427 8.981200963815837
Be 10.69392754875051 14.096624333854427 8.981200963815837
Be 9.611637528870407 10.658265475012975 14.280704990543141
Be 13.813656112650877 10.658265475012975 9.14458865097841
Be 9.611637528870407 10.658265475012975 9.14458865097841
Be 9.704569835538784 14.514334574731306 12.721624011182072
Be 9.704569835538784 14.514334574731306 10.703669630339478
Be 8.25376335272211 11.21457319612781 10.687029381944683
Be 10.703669630339478 8.91095906678998 9.704569835538784
Be 11.712646820760709 10.38552616144067 14.871885886058461
Be 14.444092677705578 9.32866930766699 12.731366092770774
Be 13.720723805982766 14.514334574731306 12.721624011182072
Be 13.720723805982766 14.514334574731306 10.703669630339478
Be 12.721624011182072 8.91095906678998 9.704569835538784
Be 10.687029381944683 12.210720445393473 15.171530288799307
Be 14.871885886058461 13.039767480080881 11.712646820760709
Be 10.703669630339478 8.91095906678998 13.720723805982766
Be 12.802049225627576 8.36177843335814 11.712646820760709
Be 12.73826425957687 12.210720445393473 15.171530288799307
Be 12.721624011182072 8.91095906678998 13.720723805982766
