48
Energy = -139.53817185 eV
Be 12.894391231763512 17.446689110656713 12.855397935799576
Be 11.19299778226159 13.19604302034271 16.14527585711958
Be 9.119190328790966 13.590297164505701 13.142044055629139
Be 12.279806464363812 14.951796977723406 15.346084922774088
Be 12.510517966080181 12.677528942604404 14.51048223801433
Be 10.671014509829506 14.267459839998995 14.316032006640281
Be 13.387644797755332 10.37785778400081 15.392629229820363
Be 14.461502654462816 10.895087866288145 10.331036731949336
Be 14.244233040024492 14.190809692737202 15.020648891273982
Be 13.497859031634656 14.901810879917939 10.409085503962528
Be 16.024909294776755 13.09796004246357 14.606981825480657
Be 11.296793235850132 10.948250175782785 15.492541787159569
Be 11.529589090500712 14.15850122329977 10.740972730353946
Be 9.74499497986484 13.080854436639543 11.17649858193056
Be 12.889743301960745 14.340823312238024 12.879067079978574
Be 12.881026171162413 11.05038777980577 12.907098838235486
Be 15.07271899830271 10.503223065866809 12.294230207941984
Be 15.694103176139434 12.23884534946604 11.300902476597074
Be 11.385074641949167 12.707232035062225 12.559869752416388
Be 13.00588096937221 19.529722917643447 12.624771858356059
Be 16.578824249436167 11.646255795165322 13.15793464511442
Be 14.393889766433555 12.217770526215142 15.728802469187032
Be 10.688188329115611 10.52729479586936 13.534124726764514
Be 12.368241979705102 10.333898032777306 10.43626404720407
Be 11.575270448868556 16.066047589937725 13.664270043420919
Be 12.578448300368663 13.603359864617445 9.086925877871783
Be 12.622840236059465 11.754405045700613 16.785575532583927
Be 13.19537099769578 13.670265267301637 16.686177770321006
Be 16.6545602436526 13.567290104798635 12.632695143175374
Be 10.695285890113677 10.84655315839536 11.485751289785519
Be 10.075138885127826 12.282631803890919 14.495932996785191
Be 15.288830307831237 14.87796162261129 13.434586717231415
Be 13.14082580751004 11.68362536368915 9.021201616053116
Be 15.064545578687646 10.861351497835601 14.33669133277671
Be 11.371534783510711 12.173033857464462 10.068450595939499
Be 15.10830196704415 14.230354550004362 11.445152646572312
Be 13.729532128534629 9.20917293209103 11.447761898812388
Be 13.882833215306052 9.198180735792395 13.540179729460437
Be 13.685579599925724 16.05309587870223 14.194696855810788
Be 11.868694077329035 9.191444663801175 12.311276752043257
Be 12.095888267902636 16.032345289194023 11.53797780649992
Be 10.489618605869797 14.879255742943643 12.315837805413093
Be 14.578921472566895 13.1284746417686 9.636417652700214
Be 12.02232403817329 9.241060974784101 14.403189970074571
Be 14.383593291887752 12.706338722395076 13.22905685227018
Be 13.25718433739454 12.65120306174683 11.279416679032716
Be 14.211578578697644 16.046423675884878 12.066758468523911
Be 9.185213842692505 11.659553117198016 12.652642255008237
