47
Energy = -136.49277351 eV
Be 9.336836939594788 7.330963372347904 5.078568830088582
Be 7.710011861203033 5.969466980820174 4.9815381078477765
Be 7.135941301829119 8.302022462771125 4.997834396716905
Be 8.408415669687939 3.9636342787748915 5.993786960261599
Be 5.0060410257241355 8.363134992505566 5.385557269484193
Be 9.65158989828984 5.088694826870319 4.746595041603085
Be 7.440245913475099 9.769752743136861 7.314936552330606
Be 9.160822464300086 9.365973485320136 6.121559456131774
Be 6.3675853068471175 4.386718194555091 5.677467683772031
Be 10.19429071990586 7.6194536149207766 7.031618112092131
Be 6.1192148787552485 10.074451075619848 5.5687164557118605
Be 7.933730325801697 7.56741641783765 6.742321980468713
Be 5.766566862485265 11.246557874271419 7.184641796620431
Be 11.087029743853233 6.09960512254845 5.909338344771708
Be 7.389076754268523 5.43655392281351 7.09100749156262
Be 10.412382510225687 4.2314654957762965 6.581107200177749
Be 5.89789563345977 6.480244983757632 6.001421191053243
Be 6.017720438135271 8.35084751815394 7.085338955883987
Be 4.445195605213795 7.08514432937438 7.504116368028731
Be 6.9589115044000565 3.517010238251108 7.538381123714727
Be 7.7447521011526135 11.468955651872228 6.36282796456354
Be 4.483410320618025 9.54607880205073 7.459350619556101
Be 9.209937840517172 5.8834325031188826 6.6189376812448835
Be 6.3766749055778655 6.688720640792841 8.145992295160355
Be 8.90634617952821 4.389269013720588 8.185207327822761
Be 9.260842406496254 10.929122722428058 7.842901486780381
Be 5.38265287147611 5.0006289106337105 7.5215279350226485
Be 8.511410122260532 6.680190483277196 8.468953708587842
Be 10.805320722380529 9.469164704573995 7.7683815900187305
Be 9.0015273372396 8.74965594677985 8.196596529131066
Be 10.586249015892141 5.715628089553726 8.181960422746863
Be 7.377643288240409 11.827417238627884 8.469313271119121
Be 7.141746776380471 8.313752297339395 8.820676183295642
Be 5.8913809198693095 10.166197269994301 8.981735014503602
Be 5.091573140938599 5.9533153860111625 9.431481622952072
Be 7.093401930417512 4.9558133599595555 9.207165256339579
Be 5.149798161703555 8.172994960088733 9.199991976591129
Be 7.966823296285737 10.030790180340588 9.306482902628758
Be 10.401016206448293 7.60757974940941 9.200491960114922
Be 6.972304634720929 6.799862437847258 10.233853003765182
Be 9.125007850746702 5.810326698404776 10.094135685712363
Be 10.008058122589139 9.898258148942528 9.713157949217806
Be 8.952362415715129 11.75756250711992 9.94069189570187
Be 8.676778236537038 8.14504100553801 10.311928905191094
Be 6.999500938996226 11.34271322244398 10.58588514259879
Be 6.723351727812728 9.091275449144856 10.71679173992468
Be 8.557926553037358 10.194444070591935 11.335029992418356
