46
Energy = -135.40466018 eV
Be 12.352384556859842 11.57932515090717 11.0442462503219
Be 13.026156336500517 9.760572040832338 10.381607613164661
Be 10.545477641132747 11.587961003694229 12.104734406048566
Be 11.950312999458353 9.91491928163596 12.391716544728697
Be 12.657407607752615 9.553909542772976 7.557241993004789
Be 12.137124927201352 11.11387807656271 8.917482038519854
Be 11.48117244710161 11.098600694245476 6.848561206543984
Be 10.482544634625963 10.39474433819422 13.785830028190784
Be 10.03430408407218 12.15612677579829 7.905225501163342
Be 10.637716662510968 8.285357343394184 13.256217327109134
Be 8.915750008345006 12.55484361990564 11.265844154046023
Be 10.477870565221286 12.135035008015462 9.936885345864214
Be 11.610707541657709 8.218490010037177 11.269545753127467
Be 10.997138214167132 10.158125308176851 10.47920874028693
Be 11.848185124710529 7.374401049842375 7.416079196132928
Be 9.482497240146511 10.791910828337185 6.316413188201672
Be 8.40803254452053 12.384920810915007 9.262290716721747
Be 11.790693528890726 8.680359778702783 9.120831824162366
Be 8.562824130385842 11.267106245667238 12.812401980353748
Be 10.284132825091577 10.071690511191427 8.461443734146618
Be 9.702483694551455 9.419734565867092 11.875429013500067
Be 10.973667329588588 9.085199047167379 6.385989658746841
Be 8.693586919416584 9.485414629329807 13.844006589102987
Be 9.857215437790444 8.550317331261516 10.00132090068465
Be 8.812441099521092 10.389069231904383 10.263252573988098
Be 10.04245180278921 7.98946135465758 8.07420203953329
Be 10.04422241214276 7.10022447963592 6.215708151151555
Be 8.484141833515753 7.8116038554289045 12.744750304535113
Be 7.128952842963402 11.540440407640054 10.910373986485554
Be 7.2457417903221 10.295605337946336 6.369522996766893
Be 7.466912116137279 9.65083822860709 12.04531310983143
Be 11.051413075869528 6.792403078760107 9.615858868328807
Be 8.276180173848537 10.477566436306274 8.144937605756489
Be 6.602016968168159 11.433359295356166 8.781246631462926
Be 8.21347005047603 8.592803331736844 8.744832620612003
Be 8.789595124130129 8.811446664690026 6.544601878748503
Be 9.84938994815743 7.023884278339337 11.43868229767926
Be 10.196410112573634 5.93567872975054 7.902833152730531
Be 8.036863981854696 12.182812590085485 7.126133241510263
Be 6.737507426736373 9.632092591978928 9.957052041523767
Be 7.901007639931089 7.983583295994029 10.779100914146627
Be 6.868746952098683 8.150947762274145 6.748654013656974
Be 8.87249105108796 6.652409211730901 9.459669829637907
Be 6.139319972754547 9.514993422190699 7.984917333353083
Be 8.314514351959426 6.8087398224968485 7.427452974242692
Be 6.61908776435064 7.494688656356844 8.780802471760072
