43
Energy = -124.92414371 eV
Be 17.034360778571294 11.855477885965094 14.878085225520662
Be 12.642001729527047 14.927702756660558 16.350673434353464
Be 17.855820712298065 18.16353142036743 15.20791498899061
Be 16.40100138984361 18.419348157652543 16.758758409095144
Be 17.88118435363356 16.99154334205454 13.448431953511038
Be 14.2808228279049 18.09854296560405 16.343153937345512
Be 18.251854651553757 14.539370653657482 16.94932145294207
Be 12.127548725351613 17.3849619208484 13.670927951330691
Be 15.011602557966036 15.30492018707343 13.821567935306517
Be 13.738719137046933 12.903231107820497 16.94685054494655
Be 12.961955154353745 15.593266794803146 14.27758275057312
Be 14.810590090046672 11.230209505928983 17.50192245910261
Be 17.967515806798612 13.695174460299794 15.059461576520595
Be 15.984606119154485 13.461489313500856 14.274574648096083
Be 15.558654941085878 16.700716989095664 17.34217491716671
Be 13.684354647848304 16.57316456531983 12.344869236033345
Be 15.979934799669511 16.606195922597873 12.596715660300411
Be 16.642564219721695 15.136530518129424 18.17996405421173
Be 13.417080679666896 16.433265990833515 17.523671502955995
Be 14.78914388331799 14.778304394772077 17.30941827530724
Be 15.494043813609748 19.23134002663024 15.093381968880916
Be 12.500800276345574 17.121237074678287 15.696796409276278
Be 14.411396020078877 17.417988937966033 14.096799198761593
Be 16.497967478903146 10.66743120635652 16.411763237166618
Be 16.020992408812234 13.171672964857185 16.586429671194477
Be 18.029746386244085 12.264370607359043 16.710459098069823
Be 17.418475527084002 13.325527753692489 18.451347157069016
Be 13.122473098329804 18.986464912025205 14.707794743288806
Be 14.40433646306905 16.076671642812475 15.70586776279057
Be 18.355677614969682 15.91212263017208 15.183734240710823
Be 16.372542501117636 15.098346997507171 15.847039587606876
Be 17.59201499587877 16.720018315153343 16.923398965801116
Be 14.227765590732213 13.974115572532682 15.283015650831633
Be 14.927615775324165 11.82249195736201 15.409143953483964
Be 13.042295336057082 18.654279823221565 12.412764740814346
Be 13.110237362204996 14.311749590412246 18.269075709240393
Be 16.19486984519009 16.972699255705546 14.962314920684353
Be 16.51762005115578 18.53656976905968 13.384429384773483
Be 14.973575052431952 18.185486293884324 11.84060792367087
Be 14.607241834527319 19.5839762036396 13.273351518027333
Be 16.676855919380216 11.495858016907526 18.222866369434193
Be 15.19539511591227 13.127340371667188 18.573302535449848
Be 17.12744329131976 15.086296494432842 13.657852133621853
