45
Energy = -131.48614635 eV
Be 7.086216324063313 4.703700513368675 5.6082212957039825
Be 7.624589928576222 6.217952880067776 7.033817487191187
Be 10.55226802113394 7.656578686943832 9.872568323037466
Be 7.075188063930863 9.964051766710604 5.030914202686854
Be 4.118709591129133 7.055696726598364 5.817317933303578
Be 8.824436722383462 11.557195817145267 8.346269598604179
Be 7.359226056563855 8.32623526285509 8.223591411176573
Be 6.518985319848737 4.319785138155876 7.938344749302914
Be 8.229448522516813 6.680333515440742 4.967820723666283
Be 7.284868594619364 8.200674835628316 6.0025505385762985
Be 8.27191800462212 4.930298318801584 8.89399159290946
Be 6.063673110933891 6.610232215915281 5.066713206751765
Be 9.773560897403923 5.673356569607305 7.438067492269149
Be 6.049992517923716 9.653015141056347 6.934413667900707
Be 5.35623253106623 8.57385460366673 8.870141022217505
Be 11.427474574914294 9.283104932835807 8.656812010718152
Be 4.752655751069936 5.072465499927303 8.759230978504215
Be 7.103539471109999 10.436868860701958 8.618542995697135
Be 7.0072021119099785 8.191880606212317 3.9881702544822
Be 6.83766886928463 9.35902107998817 10.318967668612661
Be 5.288795583617502 5.4913119344177765 6.740231900730582
Be 10.514251427869901 11.168389113669914 9.388516843545883
Be 8.367831961759705 9.943958072997658 6.816274188885573
Be 9.004622604680751 7.8055115594212285 6.96127844997743
Be 5.307794917809495 8.678602461749652 5.166306955736409
Be 8.573076543871231 10.584780726539991 10.232868685898287
Be 8.861601780769787 6.988795164191629 8.862971667459924
Be 8.421121827814417 6.152928284871038 10.690901512969354
Be 3.996030768669002 6.921369914550787 8.069626785149817
Be 10.437277924990706 10.78081469516738 7.410687978811266
Be 8.388562504701934 4.004711300181678 7.050722141994297
Be 8.671116946099447 8.347118353584266 10.622066864986111
Be 6.606467773011136 5.189990859099102 10.163096623442032
Be 10.26755138677341 6.930826556476847 5.69495344872873
Be 4.0815079125887594 8.764809557836761 6.950881388258357
Be 9.013595534215836 8.74446986735684 5.015052023693547
Be 4.825556401945237 6.760043699939951 9.9698622568549
Be 6.763254929089311 7.354065457654468 10.423781224901996
Be 6.336494168737395 6.43404795169624 8.58190444857517
Be 9.282600224769423 9.16485372992383 8.573345359114454
Be 9.271759833426959 4.994093099994559 5.541445604129442
Be 10.896462791016006 7.435034535281513 7.8317792463357465
Be 10.604593057200896 8.999983930629492 6.48962597809335
Be 10.39540837369756 9.571022743151198 10.560744786007694
Be 5.722166764775854 7.5395223868945545 7.021965411314236
