48
Energy = -141.31827588 eV
Be 12.926255956811003 7.1395131653192845 11.665619120010813
Be 12.122595061984518 8.418282139104742 13.111761485585182
Be 12.709293970490576 9.33714925805775 11.221600239955434
Be 12.424272371864934 7.889286400507523 9.69848608661218
Be 11.279444131254282 6.569825950006361 12.81947196894834
Be 11.319667505552708 6.075571893813969 10.713243346752286
Be 12.647633217222568 9.946971006979739 9.105997468285624
Be 11.027916489898079 8.063489870107873 11.290671419042875
Be 10.917062094832641 9.921251474003506 12.309835239029564
Be 9.93624069185711 8.258497086569385 13.157040577921842
Be 11.865825868057032 11.250778901018382 10.856311859372708
Be 9.516241466183617 6.629731384391213 11.615338751084776
Be 10.791692436834756 9.62332472216036 9.882447349551349
Be 11.566189864837826 6.263847223460303 8.72601906482529
Be 11.518126477012045 8.256734762141383 7.821106476993766
Be 7.989122963770103 7.80344233498479 12.499823505795803
Be 11.411342299934553 11.871502621745694 8.960488011961582
Be 9.522782793812677 5.759536704038067 9.557646977843518
Be 11.096575025326112 10.309167676025877 7.717023377707604
Be 10.01538264722504 7.693144964001781 9.564975764802849
Be 9.681493378366065 11.23924497525193 11.351207135125348
Be 9.229079555260927 9.04380697829444 11.123910377276104
Be 9.415582145366155 11.029200962058823 9.17627815377029
Be 10.611859564427112 12.951415352701765 10.534328499934997
Be 9.901872467311414 11.943787845958914 7.204825173860949
Be 9.98239792508498 6.744782210995093 7.576796900876873
Be 7.864460873588293 7.163349627857413 10.479032020189925
Be 8.396263318503594 9.909121548826436 12.702599598698086
Be 9.504455090077478 8.910983736519267 7.889576951327285
Be 9.404122330430413 13.222248753054558 8.815797791936975
Be 8.193713837186536 9.205979152851729 9.380313007065372
Be 6.94095107445963 8.986659572776793 11.139971047676207
Be 7.517171181126864 12.086609583432134 9.134044783314444
Be 8.204928213061681 7.100944082308057 8.397261121893537
Be 8.580626819133988 12.89064716471991 10.692038027578665
Be 9.718458685901787 9.96981678187879 6.123641020720921
Be 7.677506872039782 10.890714662221729 10.825912422387841
Be 8.712544588480556 7.878957406854701 6.234688907773233
Be 6.411121230494418 8.087381204662616 9.274521632046367
Be 7.941902011455517 12.823480252778193 7.21606565658603
Be 8.039720563530773 10.641681403017602 7.631176083293997
Be 8.590597932816806 11.633869445337002 5.6006258041085335
Be 6.027632134684827 11.913572343460974 7.761105927583219
Be 7.277479400647693 8.678487514607019 7.475965127142956
Be 6.351602677755768 10.236462216504595 9.161521251437177
Be 7.636276506543713 9.724418021608424 5.6905288628536494
Be 6.5783545553420355 11.611724611340808 5.867412865237876
Be 5.863927580276044 10.021821952777442 7.001170287877537
