40
Energy = -114.19015716 eV
Be 10.695972633114426 8.669265633662315 7.093291074081906
Be 10.739655352479344 10.636545582190065 6.697034724817816
Be 12.424990182104219 9.649481759732714 7.227657296797966
Be 9.099279460792287 9.966453154665 8.00926990109472
Be 9.813704199553372 8.03552974388135 8.768502578596243
Be 13.282246593057426 9.940973352742205 9.083879113984816
Be 10.975100689773695 10.157328986358742 9.10596603383168
Be 11.947183915410385 8.238779866649224 8.84818325562272
Be 12.112919637297102 11.607514613540925 8.085706361583034
Be 9.865070115795689 12.01508287998186 7.965585833996602
Be 7.886736561806421 11.921743619113732 8.6182691447766
Be 10.425096796451836 14.226321727120217 10.985135547443617
Be 10.948905172836795 12.530721935650414 9.659837576425385
Be 10.67789670905073 8.198173227071655 10.657017085151649
Be 12.715353342944661 11.507316653278096 10.250027800740613
Be 8.825801326004651 9.165920908353677 10.176052824117779
Be 8.93656371265513 13.377700171442735 9.652707626331301
Be 10.660604777900947 10.362224004733614 11.136677557823818
Be 9.1889564352084 11.113935133961911 9.849454063990693
Be 11.804192769042864 12.789906075695272 11.669225251980846
Be 7.70907739752045 12.26786154783068 10.913944644451941
Be 8.598207319694673 14.001094702250985 11.853138605194836
Be 9.30906922182568 8.683237165410462 12.16430801481508
Be 10.370012509446816 13.56790172526555 13.095421449167127
Be 14.18728587638234 10.35276602138108 11.115505910526315
Be 12.40498391122334 10.808045629583885 12.272247248688714
Be 12.51232992629095 9.159249156535692 10.883685520212184
Be 8.621313194345001 10.582790459655373 11.91398636578466
Be 9.744242399946305 12.344045351705883 11.353238727341317
Be 13.864008756940773 12.200762545606699 12.262889686472741
Be 12.23176778986231 12.53056506925045 13.72230134802013
Be 10.580963010844046 11.410859289292752 12.856110303996992
Be 15.062222092018933 10.66279979724712 12.960888366827435
Be 13.659748294111242 11.166010291206506 14.274148342298458
Be 9.57298127937094 10.013232761200946 13.788912740884783
Be 13.45405981177764 9.362666817384753 13.16614656101165
Be 8.679388512407575 12.256286351176671 13.176805962233239
Be 10.410114404764236 12.106525748931498 14.67486767447595
Be 11.74196865903291 10.366349952712078 14.300063234125771
Be 11.265690562686771 9.051695900318057 12.717573954054686
