45
Energy = -132.05450205 eV
Be 6.563893030084086 7.280038368594975 11.227779309028008
Be 8.564405210984415 7.736582384309237 11.771183943690788
Be 5.520253544951533 8.69428616972495 10.047141426163613
Be 7.036603154651709 9.266187020285361 11.60322724176322
Be 9.18879683887803 9.77055831994641 12.12892284893498
Be 6.1996584934976315 6.6477445887981625 9.252333739915548
Be 7.759417035710139 11.997688761772528 10.93395674268591
Be 6.214482353354867 10.624404405276168 10.200510635838505
Be 5.4426741125320905 10.138724774396707 8.32859439913285
Be 10.233746044575355 6.6587407901026765 10.902240256798784
Be 8.09009507182304 6.154733011741685 10.381753760229246
Be 5.246818645318836 8.078374133479995 8.068008144295899
Be 7.732498749891608 8.259716276923184 9.732420323017815
Be 9.892422835265554 8.785141478594724 10.264244044911324
Be 7.150252343192246 11.926626516673275 8.865394819042207
Be 8.309751069960722 10.270763622502841 10.319043724339833
Be 9.879608391341668 11.471925973006687 11.09442990785735
Be 7.824613549548751 5.806176954265186 8.325704970079926
Be 9.20221930054195 12.390772650103754 9.360554594793522
Be 7.577341988486835 9.977494547120905 8.319251243048207
Be 10.580847186174196 8.23235657787848 12.209899162178822
Be 11.49605538026018 6.658523804669944 9.206845626348242
Be 11.325745526760329 10.062907424642855 11.470382901625376
Be 9.957569917797628 5.356262573863159 8.366364164414351
Be 9.401575267031813 7.052845565062628 9.048729420366362
Be 6.586151828922144 6.851039945802206 7.044773170102741
Be 11.477500720725855 11.554902575505048 9.787482417526709
Be 8.28751588826248 8.131537538209882 7.580281525140359
Be 10.724065083996468 11.997899550693848 7.831588606941927
Be 10.544876740866314 8.61590305435719 8.13607153399016
Be 6.351554963790269 9.034785860345922 6.587117512298497
Be 6.743575802557563 11.07727472550196 6.8604781605545915
Be 12.002130345356226 8.018601733875427 10.659955631512837
Be 9.826262226626518 10.476398578351983 8.819611682678195
Be 8.977566982993867 6.365275557037504 6.700283189974623
Be 12.651083394985095 9.837479024428198 9.872309202307385
Be 11.024508505797302 6.833983572846642 7.189447049105416
Be 8.703084087705182 11.639695002810232 7.358194125868826
Be 9.839842702185088 8.271401804661545 6.052865089549044
Be 7.814746627813411 7.885602879956547 5.6292819340267375
Be 12.032092275517977 10.373650003718733 7.96276934268346
Be 8.299427530216915 9.86808630791038 6.133586664012102
Be 12.62185371633914 8.260247624212315 8.507558383479177
Be 11.79494283599884 8.814713460743757 6.577563230552582
Be 10.337246039287283 10.328985170458749 6.6170761818626955
