55
Energy = -161.95128601 eV
Be 7.255026321254324 8.80693160397986 9.0872241428237
Be 10.297544948062221 11.692575865097158 12.0155080986573
Be 14.905693762663054 13.741105899826167 9.695020786281853
Be 8.426407811717475 11.684171270309985 13.037567746223361
Be 10.854812441697064 12.739487830818867 10.05072367554898
Be 6.566045497727314 12.440181519293477 10.354965462097713
Be 12.057621051020716 11.53157721592453 8.822570886529526
Be 10.840820693262303 9.551241311947528 11.573801089243258
Be 9.95637886087421 10.287196943260161 13.584922760105064
Be 11.137580592214844 9.96720638711879 7.820909953246738
Be 10.941776343215091 7.516790497439163 9.733238662286055
Be 7.906734370828967 9.53475045328213 13.206220026657675
Be 8.051818894388012 10.692852304597038 9.551861889244977
Be 12.18238537943915 9.427160302331446 9.834553768171968
Be 10.45787001136928 7.418494154357003 11.973347708929792
Be 9.166456080630757 8.728149297516033 10.273370113583985
Be 13.071188463008047 9.720514141513316 11.967663064775834
Be 6.058168658426383 10.42720893744013 10.011397408980477
Be 7.329040749915948 7.192465474484758 10.306475477261586
Be 7.0047989150510075 9.049210648556787 11.2385668753418
Be 11.648090202163102 8.816793860378004 13.303965271792135
Be 13.372928010730462 10.150584839674561 8.043986846890048
Be 8.259010655832755 7.606334920132258 12.142724863793788
Be 9.348063625183178 13.781801392033445 9.011490306703843
Be 9.641257480978245 11.769752754368161 8.323063747598496
Be 11.90802407351879 10.995306782202844 13.093766555127479
Be 8.81503131510917 10.311023996264305 11.536037982966198
Be 13.132638836450948 7.254641165482007 9.596167541474799
Be 14.337149171981721 8.742158738650792 10.520967703054863
Be 9.569254426092574 8.301232978878291 13.616049348589224
Be 12.410228305093893 7.872292212496948 11.461099699462405
Be 9.183621321882445 6.524147851419006 10.544413730980901
Be 6.809311387235267 11.088934369044694 11.856832327235168
Be 13.751551332507184 10.776384416797503 10.272338432962218
Be 15.263168459306417 10.193276553396423 9.0608895959262
Be 14.417828863480596 8.417764947425223 8.481824965775518
Be 14.249865463134643 12.017605062826439 8.634169486148073
Be 14.19960290756949 13.617112142735122 11.618931957714668
Be 10.220589614776584 10.633437402858268 9.908745144395803
Be 11.923395037840123 13.14274315356548 11.99237076204327
Be 12.966294327069365 12.974501801836714 10.088528756504946
Be 11.946694653188466 11.247815529714018 10.958884310389518
Be 9.027669874362356 9.53087440720329 8.098658983734753
Be 10.362693566374615 8.045364733282094 7.672797575867567
Be 8.721326794556061 7.395715821829247 8.689436807888638
Be 13.668376160377234 11.792333758982638 12.156140569400122
Be 9.51556933599523 13.47530444627104 12.709753624943042
Be 7.32935405764789 13.226559753733676 12.160618574759555
Be 8.343918915567082 15.01002323818777 11.910249206158538
Be 7.658150024248359 14.198879390280196 10.19293409623491
Be 12.396239665413079 8.249189992976826 7.979340263457183
Be 8.771420927849759 12.326252358283513 10.717410553101526
Be 7.716450614295519 12.614523984967112 8.666926263352556
Be 15.313288351029978 12.039986711118514 10.589176316025956
Be 9.992440553868203 14.368740631086197 10.908066391030466
