50
Energy = -147.84385791 eV
Be 11.197150465935978 10.597144176131268 6.282359271432621
Be 9.268328566690087 10.134664246779133 7.045725555107098
Be 10.665492443607235 8.574835403066023 6.689676280483848
Be 12.934227244116993 9.608455032105129 6.9062545640931186
Be 10.45362269265358 11.855913413412136 7.818573445333383
Be 8.396680228378024 11.620267406744388 8.369755690077374
Be 12.607024880514455 11.643444389944952 7.529831981670538
Be 12.264593270333474 7.929641766363099 7.966681383648469
Be 7.275310886741667 9.793618353705728 8.006258456348409
Be 8.655069528841986 8.168056464790238 7.4793640376998605
Be 14.454267540510148 10.793849639087737 7.880741093884068
Be 10.33644712419703 7.7714380531664995 8.609436992743209
Be 11.252866406928746 9.831799360165405 8.272527499883582
Be 9.211295782694256 9.578052805366397 9.137003215046422
Be 14.001025065830813 12.20967021469167 9.392924948996907
Be 11.872935767280643 12.750960193704584 9.14176135275537
Be 13.865191129857314 8.979352844134386 8.692937724703615
Be 6.825089710121444 7.880918352696644 8.57770596797599
Be 9.59684813065664 12.981624072819443 9.434482091252722
Be 6.658252009861726 11.078420146617937 9.520392551767813
Be 5.644331320427364 9.238054309292158 9.5098331733396
Be 15.096904735019809 10.309361621860218 9.75952938370277
Be 8.546050907338483 7.3899318466598185 9.591750206486324
Be 11.84386228620467 8.627068206570186 9.99155960167685
Be 12.735144884655295 10.562177933279054 9.535409055455904
Be 13.758492044115629 9.08718601615109 10.888560957469544
Be 10.398361119253378 7.226039325983007 10.720760264070867
Be 5.241241543282209 8.648731195687297 11.446295329388256
Be 10.742831714129391 11.076537414235627 9.957678671943171
Be 5.381481717373969 10.628462866527332 11.090413332304582
Be 8.76498013135562 11.076305888870806 10.525915854379749
Be 6.559403508302469 7.330849106677205 10.530969966296801
Be 7.598037002945964 12.852631012905944 9.960085392302119
Be 10.863682967021129 13.302555997573204 10.979826937241723
Be 7.611835951353731 9.30549785426435 10.753765214787435
Be 9.887469882790567 9.388121872828748 11.191986757425813
Be 12.493399268719722 12.098691359255373 11.014697619195346
Be 14.219072397704018 11.053639962886585 11.344394822724674
Be 8.929943939041584 12.851740640228583 11.596652564101738
Be 11.79325323774921 8.208175780300316 12.042410561420098
Be 10.06260872729417 7.534843678006659 12.781567644162713
Be 10.541923142396936 11.528799569812524 12.048867693840206
Be 8.401605110829768 7.066639143026072 11.644575770163021
Be 6.611834110521285 9.935553598056568 12.677981798045268
Be 7.0283769537619865 11.724888995742047 11.594869630980677
Be 6.716387920048309 7.811843109819654 12.54826702356179
Be 8.636842224246152 10.822142125542745 12.661606288391871
Be 12.140246231849563 10.180089228308788 11.737898328518272
Be 8.454628873045959 8.800573193554458 12.992289434327205
Be 10.529446095930501 9.576139635060331 13.150585441852094
