50
Energy = -147.69107353 eV
Be 6.518023021524459 8.469671725518689 5.068325629297842
Be 8.534908228772295 8.524502779216055 4.296850262747211
Be 10.070488351117985 7.283306948530224 5.098948504719608
Be 7.922453388338192 6.580638435570835 4.662050633360322
Be 9.41419157021764 5.379141752311866 5.886980100459088
Be 7.921663736534857 10.092527972019685 5.574413360733402
Be 10.008890592075783 9.450247891086255 5.502730669937435
Be 4.71290602584713 8.36790742557914 6.19288831917428
Be 9.337328015352728 11.00211441582711 6.955764107669306
Be 5.898959950519527 10.052142492648816 6.48063847051701
Be 8.267690783472933 7.9611593398448806 6.308005489721537
Be 9.824466331164214 6.921598257859414 7.3557522055371445
Be 11.394533182934827 6.0704321029032 6.2972132510882295
Be 11.522291924669602 8.156228235373096 6.589366823864639
Be 5.840283984562996 6.578910266259264 5.803622588290489
Be 8.422879327940981 5.185659451054252 7.922097899665682
Be 7.356197630823057 11.493817765883025 6.9836580827414645
Be 7.669493450497707 9.575821612613051 7.715765227465834
Be 11.296710685061543 10.168303803301596 7.058112649858572
Be 10.519608333192265 4.979016975788249 7.810044236210519
Be 4.553435589224183 7.100263979492206 7.913547703981441
Be 4.703249199212389 9.239008656099612 8.193537769554043
Be 6.14239518813062 10.862333600549096 8.589361510476266
Be 6.3610175865524905 8.005380027561166 7.289689837690424
Be 7.394084656998683 5.234978562628777 6.119760818625656
Be 8.15380023423474 7.54547975606653 8.401411409670493
Be 11.665660202240224 6.7413527814694865 8.354258100050519
Be 8.284092235111434 11.440983529546465 8.838642626117307
Be 11.76011034019999 8.89651107735152 8.647173529590129
Be 7.338189025943359 5.673750488925054 9.6992075061384
Be 9.688566329250545 8.982059762125928 7.6002622235762285
Be 10.338245924926419 10.66710231154646 8.88971514888508
Be 9.621479990736734 5.936348320995689 9.523229715215566
Be 6.561412267008202 8.513904216791994 9.360952483829616
Be 10.006335963957218 7.8922253140372 9.328232121043024
Be 5.28042896906234 6.071162606073459 9.533215292093223
Be 6.302365440901977 5.687825429480977 7.7876152980384745
Be 8.600193549184034 9.352706855756395 9.636277883667729
Be 4.596841101985175 7.958069811386019 10.035215072759941
Be 5.158372558772262 9.95618786485344 10.146755145082436
Be 8.192429359255822 7.413291059250416 10.46278529148718
Be 11.601667257232865 7.467499550356901 10.354156377241607
Be 7.110664211569694 10.680291543514372 10.542335533979164
Be 10.639299170557496 9.469740345331777 10.70617254245611
Be 9.24987745652238 11.034693076711786 10.661979084072346
Be 6.208659255226363 6.891436559895137 11.123506960981784
Be 6.361163244532893 8.90453259530712 11.550862358618396
Be 9.875287371249742 7.707550096433082 11.556315047392825
Be 8.626181919293636 9.394792424739672 11.813869288503199
Be 7.781327123527034 7.596189383754668 12.387529043342882
