5
Energy = -7.3316488 eV
Be 7.7021681580060175 8.680981305781238 6.988176323022735
Be 8.94816187315571 8.729245279877418 8.64192709575354
Be 7.000859561533602 8.025371068327857 8.680905143026246
Be 6.836017860940439 6.799881365951846 7.019366432596895
Be 8.668117546364567 6.91984598006175 7.824950005600359
