55
Energy = -164.7695248 eV
Be 12.09302653636443 10.271555843535651 7.498195109103508
Be 14.091354437675257 11.044550714736875 7.89607802571714
Be 8.469971599621 11.326868801278685 9.027582013061373
Be 10.208145783429195 9.718026360748395 8.324346422057022
Be 13.509369538921266 9.299681039309496 8.924051267983648
Be 9.327065305717495 13.226108461739706 8.860676213720431
Be 10.622019216119083 11.866352644783811 7.8216511578902415
Be 12.620367144210544 12.575418534525735 7.707153583945804
Be 12.455005392163242 11.123721321394761 9.364294194060708
Be 14.714003880211768 10.981266231218553 9.86085533399407
Be 10.298191092559449 7.833873250547099 9.935997473840843
Be 8.734224904808357 14.767436411037087 10.122813017074535
Be 8.071187475414938 10.91794720985661 11.110901997477443
Be 10.321356230014619 11.169182160827864 9.81034403122863
Be 12.804092939059068 14.23524394595083 9.21900337752562
Be 11.722805916851428 8.384539289835576 8.448338708774807
Be 14.397380497562102 12.838328557512972 8.806916571830975
Be 11.057004206983201 13.99485733797653 7.984021592676542
Be 7.660782407825367 12.906635455991854 10.300947851505992
Be 9.102802028052283 9.502344502218092 10.029477935590613
Be 11.832511521776023 11.6148585628407 11.414688185515635
Be 10.075929641996883 10.602434170845989 11.86488977564371
Be 13.33112862981113 9.989927789321257 10.89598911039962
Be 11.360437379888358 9.52017025402989 10.438314127655875
Be 13.484243843724148 12.792180231005252 10.648930735890886
Be 11.435443913853236 12.841098273932944 9.687804250993985
Be 12.615869581393607 7.768939788868216 10.30044154309859
Be 12.209019753968795 9.540236720037472 12.519244730745857
Be 9.708218879623837 12.797431658596901 10.980479762726462
Be 14.270480707665593 11.491431541769103 12.042613187203866
Be 14.565850418059787 8.422144149720179 10.650233806970977
Be 10.729224829825329 14.757085002788251 9.908566538265946
Be 11.865790521771777 13.914252765494274 11.51811750037859
Be 9.313550506985411 8.656944815437365 11.884085936470553
Be 8.656843084149711 10.526504274541168 13.356782545168501
Be 13.405765535490694 7.729563576608823 12.293170938614923
Be 11.207161919696935 7.706390568364191 11.911424985212342
Be 11.422322959866058 11.096179042794748 13.473779047247216
Be 7.9336953301969215 14.293634143186546 11.909112242347103
Be 10.32598281296638 9.2532816462324 13.657366085289164
Be 11.317484608953858 14.109277870873433 13.743478570058443
Be 10.14190632742692 12.522871887628714 12.960114205059035
Be 13.544940842157118 10.909317145790844 13.915930682539013
Be 14.55711023276516 9.491621675547718 12.533173683517173
Be 9.99542820273881 14.774132404012011 11.994719135770334
Be 7.9324449176022345 12.39037807919867 12.543643103603864
Be 12.908045519535612 12.82198334364571 13.05640522562356
Be 11.860980577303144 7.89539144201457 13.923578184293461
Be 11.972546308625782 9.8103264794508 14.905540087989563
Be 10.16188293249476 13.104194711331344 15.15933701946417
Be 13.641551283005292 8.802564587308034 14.193738193170306
Be 10.047682263860626 11.005245273621153 15.015973803216143
Be 8.422247765426192 12.227720465900696 14.536098658351078
Be 8.98539418406356 14.100425300350256 13.6924108693491
Be 12.021252584481232 12.276449138599034 14.956704519810005
