55
Energy = -164.47742194 eV
Be 9.752211494552027 10.028827878428853 10.935459292810863
Be 9.004093302452763 11.367482656462041 9.220463071151233
Be 8.027929988686807 9.27761157931678 12.377185630890269
Be 7.665468004486142 7.294624751696218 11.690071595837658
Be 9.6460083968471 8.112901996221774 12.389014876215372
Be 6.687059200731272 11.56301935161407 8.825482328761945
Be 11.484292854036385 11.120294052049344 11.80700799518441
Be 9.651575443156068 13.431533212318724 9.713830908632136
Be 11.35510490285447 6.934483473921744 12.160119167571201
Be 13.060035845366679 8.336125136259167 9.363587101770124
Be 7.580037015120828 9.571875705681707 8.624498580619806
Be 7.732168086829388 12.590285088324263 10.483139602816362
Be 5.908493837735225 8.160981403016333 7.823271722727695
Be 9.66410515389324 12.136001946184077 11.387937927819609
Be 8.63874060902358 8.372669008756674 10.252797690552995
Be 8.517154766211474 9.388485388517088 6.684641202037641
Be 11.813434521295678 7.344888793085492 8.088432089475342
Be 11.524732328166406 9.09144891635858 12.421646340839796
Be 7.719551950966554 10.325988768306248 10.48740304697521
Be 8.043520907559214 13.104416352772393 8.450181909638548
Be 13.102601549128712 12.715835833402226 9.044469594219159
Be 11.130198797820114 11.056205528427729 9.531074449910731
Be 13.150889395757533 11.790531887485084 10.796526456138544
Be 12.872475580252537 9.761488104513374 10.89369378332592
Be 6.329305783893239 10.127617105019626 7.166346768002271
Be 5.650750509374611 9.748122520615226 9.396215606801926
Be 6.787236231411437 6.460893335884277 6.502473883579032
Be 6.4917487339384605 6.202922823954394 8.4287095123616
Be 9.725867242117543 6.46168632705468 11.009270651768674
Be 8.630834105735225 7.224539864863042 5.9938883030624295
Be 6.841498645816205 8.406143947779052 5.97447968642145
Be 9.943865175412823 5.299345230835697 9.12442049154005
Be 13.304521278662559 10.610667789052007 9.033873054797091
Be 8.10747310586944 6.252810052989229 9.75071212399259
Be 11.938735915086255 11.793305963021982 7.612297999648735
Be 9.992730480865912 7.31164075038508 9.045935881593984
Be 11.06678242673272 8.563289209905761 10.292203595381906
Be 11.773689194261706 6.497255113555608 10.067916218352014
Be 9.689564700309235 9.377845839947557 8.783941378815943
Be 8.323553505430985 5.492790008135741 7.657843971603919
Be 11.349860891892734 13.622281600142465 8.604041367513585
Be 10.209534847243946 10.611447251569563 7.169308908853348
Be 8.116881407463286 11.367805526647183 7.217584321746642
Be 6.018615774617992 11.311261837539325 10.816470483760273
Be 10.262655501056903 8.304325909452759 6.992125436424386
Be 10.157724374845628 6.230015635642054 7.21991497341507
Be 9.726805871994062 10.32878905243468 12.95207678609726
Be 11.823988035068412 9.473366085146598 7.99804005893662
Be 12.950532268382261 7.7603401621757175 11.338356375227196
Be 6.257824928660406 9.118802834612156 11.35675969521024
Be 8.187287547793787 7.673955180329989 8.073027493882282
Be 7.895908546291164 11.334259182589495 12.22741402860146
Be 6.556333698122153 7.786195152164595 9.793385911036198
Be 9.886043520293095 12.579235080303988 7.585522590152332
Be 11.537402214585223 13.056477209289916 10.630946471656681
