55
Energy = -163.188133 eV
Be 10.790576771914665 11.179317728853325 9.189467275219418
Be 12.708438886028551 10.443850750551544 8.612824018800442
Be 12.568329891269833 12.535527722798896 8.53943075822697
Be 14.568377790839405 13.747554255709728 9.160807526919314
Be 14.420815319708991 11.6855539539618 9.174939882766207
Be 11.62656339475967 9.411553967878568 10.11148466425019
Be 9.218896385972702 11.97198371681066 10.69939175225871
Be 12.574150719423416 11.55751764398866 10.452598992395338
Be 13.76282205767057 9.74026902949009 10.266340738223198
Be 12.008286306637585 16.86316329846487 11.445642174021224
Be 15.495178805720947 10.823224257349816 10.644088778882457
Be 10.89429190939911 13.032101297176906 10.006871431317085
Be 15.951476396838927 12.90347991465557 10.589820777342497
Be 9.602046915631737 9.895888073446404 10.370180180566427
Be 11.286726355984625 15.044316790279813 10.839900771720767
Be 10.92925519067766 11.133228308050056 11.629326691081825
Be 9.966139523785593 13.82399643308777 11.863956152903327
Be 14.936209870246918 14.790960109167298 10.953149453450328
Be 12.824435064048268 13.830135020899785 10.111168728027772
Be 13.254675868167316 15.805007831700735 10.066997839887522
Be 13.997902324913383 16.661434517810836 11.788877321061088
Be 12.539658704450225 9.17724146025087 11.99724764886475
Be 14.080085916216762 12.620207108612364 11.416997412805491
Be 14.57605254297008 9.993065684448693 12.273741465984205
Be 15.661151004108712 13.731894762500797 12.6444833878656
Be 12.00251000005074 12.979710309910393 11.854746973885634
Be 9.023669086479645 10.362367223546048 12.371155035084989
Be 9.012255023937907 12.318076829379553 12.826180363295242
Be 12.85839286757072 11.242780902780847 12.71751358983606
Be 12.557241647557786 16.365256356145284 13.432045099512406
Be 10.494652693279269 15.895637064506023 12.60321601203751
Be 10.48028281161838 8.870389195386343 11.94788903332987
Be 11.53890484071459 8.29493379205064 13.91339697330589
Be 15.834551219492626 11.640929264358952 12.48903906126215
Be 11.125651611609232 10.27349743661652 13.445369579707018
Be 13.107346650136675 14.759641633318802 11.969276519457248
Be 10.953322814059552 15.736157687139196 14.685426738241068
Be 13.49510468762892 13.250490018751549 13.394921643087333
Be 16.254150539865023 12.556813538397444 14.271101051936528
Be 14.466747998129602 15.307826487798438 13.442021214523765
Be 14.439321449604883 11.416891589920207 14.249966211934456
Be 9.696250003334264 14.045454896434004 14.01300826784923
Be 14.806241209932319 13.777625367895045 14.908741388908023
Be 9.318794535855906 11.046653903915548 14.43774151862481
Be 11.131054273587237 12.370668362939687 13.792855745131673
Be 13.32865677570422 9.436646738706239 13.887978302326198
Be 9.502733113882583 8.96917691050232 13.848461734056066
Be 10.564807267317777 9.736276735588175 15.492716480565733
Be 11.670104944649323 14.3277799836048 13.367884422653459
Be 12.928222672137576 12.84077161856079 15.445778240610577
Be 11.1760111085648 13.886275048791987 15.50706434214611
Be 12.423547171489185 10.88533819520094 14.993790572136335
Be 12.409640627675492 8.947693919329346 15.665086006431073
Be 12.986829904981974 14.944057494309588 14.970553477530027
Be 10.84391162644049 11.785162950941578 15.878793670426077
