55
Energy = -162.76903137 eV
Be 11.687354870330198 11.655527905528121 13.660117371052731
Be 12.738147368626441 11.70142201209598 11.665196222124852
Be 9.685643263075425 10.059839678679287 14.735683865785798
Be 8.551703955725584 10.072538695666582 12.989017507181305
Be 11.667111387744683 13.523996368105418 12.362952354127726
Be 13.723913592794545 10.067181152920377 14.687454944626246
Be 10.570630162426614 13.516026741133643 14.227984793478802
Be 14.14200505689302 9.911410118569096 10.973392103839531
Be 10.618241182523796 11.748023501149719 15.546372428010574
Be 12.697684082839116 9.91057442840501 12.774370990575498
Be 14.064839125373886 13.633116519056909 12.473049077590332
Be 12.799377707169322 11.750288096249676 15.522515676869544
Be 9.515076755186053 8.249649065199039 12.447295849739769
Be 14.952518102596027 11.817067876939097 11.709034789334677
Be 11.6264012967611 13.55293115648763 8.22965494319339
Be 13.860495608247389 8.268731851537424 12.410167084367771
Be 9.219592478543618 11.612810362464797 9.75727048630724
Be 12.742425204327793 11.677867311665345 7.795938547444584
Be 10.672883839054302 9.902673694738574 12.7974528414972
Be 10.13726843839271 9.806685000897268 9.100965335782593
Be 10.51044364758101 11.671448717971618 7.81949832066032
Be 9.271560259848625 11.876424947941102 13.76728000450441
Be 11.6452638296213 11.711314128434152 9.649403412947537
Be 9.605564698179593 13.339424114290805 8.667176748201067
Be 11.687541056463344 7.83777763887618 12.381363930681019
Be 14.713525078271621 13.513045258033944 10.445825757996479
Be 11.631160753813994 9.94310840286004 7.639732914057941
Be 14.103466782853396 11.89147201847202 13.715988743717263
Be 10.621744490480465 13.463837109466589 10.513817558907993
Be 13.655720804169302 13.350342939591886 8.619693007438599
Be 12.805476216191872 13.51781393510836 14.205990089948088
Be 8.575411614326244 13.478159549827664 10.51361160325902
Be 12.73837250890847 15.275558113439661 12.957769795322402
Be 14.823505649550256 10.101942012156915 12.918330089766618
Be 13.15773269730204 9.819943210182212 9.069302494739336
Be 10.582369682667567 15.27045116900648 12.966342482048855
Be 10.594731521204137 11.693258199796594 11.68811874668204
Be 11.653084334419022 8.423655823703774 8.938856768326504
Be 11.645477180117812 15.696792067431419 11.124488689485476
Be 9.269578253507353 13.613680727687639 12.519623719706635
Be 12.66853831580043 13.471220007030304 10.489381748069345
Be 9.601440420281808 15.223674552288143 11.186362454375425
Be 11.663404075803255 9.906054126687893 10.821658527942967
Be 14.073992869587308 11.63317269311978 9.707424280988903
Be 13.690560143239724 15.242507064940899 11.159573706931466
Be 12.88256905313138 8.189926124065122 10.595965893198533
Be 12.698325486959499 8.2976742701684 14.217003098238528
Be 10.618289205455932 15.148771826186444 9.29690390003061
Be 9.190375067427038 9.890818050844297 11.02463546679276
Be 10.700980043798218 8.291834166230792 14.237068037616506
Be 12.663129642837118 15.157740588798625 9.278651448313827
Be 8.380358427390107 11.783998741356216 11.781637056406572
Be 11.71043800798939 9.877284083890022 15.2857715287842
Be 11.70870427129625 13.451254056492193 15.986233819171085
Be 10.456667930893632 8.179075526133461 10.616444441810312
