54
Energy = -161.75927419 eV
Be 8.709273848674549 6.702313254222555 5.096733392901883
Be 7.071391957416112 8.196918934404078 4.342137714643255
Be 9.303846425175037 8.623208553119925 4.5808848449137205
Be 7.901240695760693 10.155791716745686 4.75486426516728
Be 6.69328359389062 6.376322346462396 5.256754878959431
Be 10.906785359279318 7.08645406443703 5.345333423589575
Be 5.42814838195043 7.834350648971288 5.825543273840461
Be 6.000469375908568 9.908244836864242 5.642827807911282
Be 11.168885268414488 9.179478232341499 5.302903359334968
Be 9.810139344177722 5.613291141762006 6.518826409892975
Be 7.711804121225587 4.841596003520413 6.3472318800349585
Be 9.748996121229714 10.671597540547825 5.427736568545668
Be 7.642872840891482 8.519012943678108 6.232422914335793
Be 5.811626797845936 5.800403306026622 7.036929451406187
Be 7.554042666147014 11.358288782010877 6.43634124561665
Be 9.723857043779255 7.970918144829906 6.735133854863892
Be 9.01501820222351 10.032934087848353 7.162747599356637
Be 12.042189614677381 8.250808438434941 6.987895589604318
Be 7.95149263168352 6.58940057940458 7.222571977227253
Be 4.349809040916869 7.237558547844521 7.568170827609364
Be 4.765917908009107 9.307935922229804 7.273294437789404
Be 11.480094008174667 6.3334152518801465 7.31584758131363
Be 5.582078845743259 11.307774523442099 7.237093946974488
Be 11.101328907594874 10.168184692424722 7.136235111732744
Be 8.962673686067676 4.635353991835262 8.074316268184933
Be 6.314421882683589 7.810153776172629 7.8714282306204275
Be 6.941354203778634 9.833828776928897 7.742278688234244
Be 8.288884476703268 8.383824884019878 8.195324660403973
Be 9.587425994792238 6.816669501236632 8.596335835209908
Be 7.017630545826277 11.601329210951029 8.815960105966777
Be 11.7523099121938 7.203411089997881 9.177431477757104
Be 10.246506092241775 8.961180448314085 8.640316765667865
Be 5.68166659651893 11.634648941790214 10.420151141765592
Be 6.969458053981123 4.862802695715836 8.505897827124288
Be 12.237839809891454 9.145242596314155 8.790971364611138
Be 8.767703790777642 5.149812106814978 10.036470620814095
Be 10.736229724825275 5.222803057354143 8.997691305963718
Be 5.161502039031753 10.291758717188538 9.035336600885671
Be 5.3731007868766065 6.214499657368208 9.141372820081093
Be 6.909602966232581 8.920104201566703 9.653764090611947
Be 4.758989589362738 8.285293328011987 9.376847653501319
Be 7.521654723881088 6.823387204749159 9.329014096788777
Be 8.666262865647642 10.248603043491613 9.25423441497418
Be 8.919941811371876 8.231021698078818 10.117255212090752
Be 10.271328646164006 6.530400703426577 10.702157184785484
Be 7.4272886485723 10.693319055089779 10.892897591495739
Be 11.001652070783205 8.608516975512464 10.62783776970391
Be 6.721641493524206 5.382487913313453 10.556678126901872
Be 5.586369484576383 9.589590154714744 11.060519611615828
Be 8.123922482287186 6.722745019505566 11.452866946833502
Be 6.043278034764278 7.390152782813073 10.887101642686574
Be 9.379011891334521 9.901422504585087 11.315956908038066
Be 7.519733726359882 8.763954480104283 11.813515023428623
Be 9.61956746358938 8.059025485012118 12.115154151119356
