55
Energy = -162.82394095 eV
Be 10.412617570002622 10.424937176362386 7.169273794274286
Be 9.293304505193571 8.747356630710822 7.601915071961429
Be 12.3943184866163 10.665730406106885 7.877070721082936
Be 8.413134088342783 10.535286380391403 7.945432355344301
Be 11.950340426888046 14.160217699057494 8.489484266124396
Be 13.130131869260527 9.126998654853299 9.052979580402889
Be 11.287454818841663 8.776652535246141 8.20783558960134
Be 13.236355713603192 12.607147287892175 8.006060850823276
Be 14.2303568152925 10.916989574394957 9.015873173754494
Be 11.034399687022784 12.344852106829192 8.17382981614234
Be 10.611450948527054 10.522048323753236 9.242049024050658
Be 7.865746090227344 10.771819436980318 10.080055219549399
Be 13.794057485934603 14.243627761822609 9.502534921468644
Be 7.79330570571033 8.91830865817175 9.03405902893251
Be 9.76482353497525 10.35053995477481 11.082351448830424
Be 9.741661380119178 8.361608488446295 9.613485829460819
Be 13.685784653856937 9.950586624724346 10.995258385652855
Be 15.075358734015255 11.707793958393147 10.776313244181354
Be 11.886837825095945 14.418727384073982 10.515223138115774
Be 10.074410883105106 13.955073985854087 9.431435792408479
Be 11.729516743307835 10.786785462223175 11.53313199066773
Be 15.081576284941539 12.802322565119622 8.97652117182915
Be 10.623876259306813 12.25632719081749 10.469986133869154
Be 12.831861206103227 12.231466400490485 10.180128519754515
Be 9.076319335464127 12.114541285220968 9.080790368202793
Be 8.52103146189777 12.62381239957487 11.156441559434107
Be 11.58451253941767 8.858536401002683 10.402632645795498
Be 10.097694316274252 14.008183740730123 11.55153729165611
Be 11.866752438321296 12.957987770640464 12.040808598108699
Be 8.95086002317337 14.096003902066752 13.12967231918259
Be 10.075210397927872 8.208263346428252 11.76551590175044
Be 15.50690102482091 13.765733786049848 10.764004719400996
Be 10.102119503018146 12.028908541932477 12.696502326875517
Be 12.038676651435196 8.725787496049243 12.452475652840839
Be 15.143596364062898 12.90878663119436 12.724421612740462
Be 8.091175154251244 10.624985340383605 12.28108734710872
Be 13.500078402984194 11.721295873122978 12.14849565791381
Be 8.182936813370524 8.85239019143943 11.123858957767286
Be 10.558262584084531 7.850633713237574 13.769679922810777
Be 13.201680414483207 13.370400428048649 13.626470205428776
Be 10.995454147058938 14.192783471277744 13.486645774004787
Be 13.678261602303131 13.91507376340706 11.623580344295302
Be 9.54545568568155 12.891116616584187 14.750501601192251
Be 13.562371456976928 9.794065234443586 13.27815639172657
Be 10.35537058999644 10.021175609101501 13.12551401255618
Be 15.25288021204886 10.7915649973711 12.726306558132826
Be 7.959289521766675 12.379749640292113 13.299846550371884
Be 8.63141067861404 8.691500971476 13.31310633949308
Be 9.816920707131949 9.15317066613466 15.05832215310828
Be 14.081904507648224 11.613251570553722 14.233971297979194
Be 11.676906834735702 12.875915731346486 14.94194751862943
Be 12.082563877474229 11.307956038750442 13.624636095865876
Be 8.602028367273022 10.7245176980816 14.32621332240393
Be 11.86284213649322 9.365251989009955 14.545746976829664
Be 10.545272817254736 11.072872791292047 15.0682431918456
