5
Energy = -5.74682437 eV
Be 8.140967760395053 6.752263677896039 7.929095980415965
Be 7.657956943699653 7.849487307323483 6.2066836823292535
Be 8.631592283878593 9.844754669962718 9.571473045364954
Be 8.090334855592014 8.956193796019855 7.838257853684336
Be 8.627400926035996 7.745553318398982 9.60274220780657
