53
Energy = -158.99911065 eV
Be 13.10560500582695 12.315369296094428 8.201364655534624
Be 11.237782119786766 11.237360869410185 11.132889317667377
Be 13.379031745759033 14.712961351137091 11.112470181022761
Be 12.304416996088671 12.952861323828042 11.126451115990662
Be 12.399713975112649 14.14356703405685 9.353387863055495
Be 9.52443307876948 11.237318231495903 10.052024822236756
Be 9.363827673775583 10.158511084561123 8.205633992949497
Be 8.26289509313987 9.406590657543067 9.941943537280057
Be 8.251707923019035 13.056967687574636 12.16823012775813
Be 10.169477873735206 12.949376277602731 11.123051191121418
Be 10.096771305170476 14.215075454371066 12.919521785858045
Be 9.088849305880428 14.708842934445343 11.11535378420955
Be 12.371977563738454 14.21659198647247 12.92309629023245
Be 11.235583651933645 12.353122378562114 9.325595083024195
Be 10.068093497683465 14.140942930476145 9.355117206064124
Be 11.23346846875947 14.884898130136959 11.077787269435746
Be 7.720642353565404 11.233648459094647 8.949853179613594
Be 9.363776853107044 12.31417559636852 8.2054467100912
Be 7.563074557259227 11.233808222615112 11.067329916273136
Be 8.26270104226748 13.0652932222613 9.943136066779001
Be 11.237166244813388 12.325208102208192 12.865235734920548
Be 9.395747424657793 12.377339255790588 14.01849386230898
Be 7.781743859008222 11.230927217770327 13.231662770785663
Be 11.239552636217146 13.371812954431451 14.562776850742823
Be 9.494990591224598 11.236712847104762 12.177814731532822
Be 8.252858400276088 9.4139350827301 12.170321442437071
Be 9.395131509885267 10.084190866028088 14.02649504705198
Be 12.402286695889329 8.330006647517092 9.356523509527785
Be 10.165532565607885 9.515236529746181 11.1233529895319
Be 11.235272670812693 10.119363342712123 9.327878949648127
Be 10.072551285532429 8.332093349254595 9.352157239963615
Be 10.099700447371186 8.256038547477948 12.923498194996832
Be 11.243071895366425 7.589177001887925 11.080693866443008
Be 9.091995421037263 7.7622730152906705 11.115186278809897
Be 11.238532737055163 10.144628737499595 12.866612842224354
Be 12.37715184654279 8.259448726317792 12.923714065798588
Be 14.215760267960842 13.05780406017242 12.170584455334028
Be 11.241098888132885 11.231996497416127 14.759260106619319
Be 11.237966997930808 9.102807898043059 14.56433829069103
Be 13.078249573038404 12.383093766339941 14.027080431026343
Be 14.687430448322687 11.238720847774836 13.23532537219445
Be 12.97298165201988 11.236512701639404 12.175145893554102
Be 13.379751541163285 7.764834197117448 11.117654731924425
Be 14.21583649481523 9.417355961941261 12.170573747906134
Be 13.07809074251264 10.091139944463254 14.027638242107804
Be 14.20686256180256 13.069904635961972 9.94184300238915
Be 12.306831186033417 9.523124235924776 11.125977088547806
Be 13.106556807859516 10.156331354764092 8.20131886247803
Be 11.237418638446144 11.237174647388791 7.550669449119777
Be 14.210827351638297 9.404995236180444 9.946104177433046
Be 12.944625499047392 11.237051464179308 10.057619216288417
Be 14.756431525503734 11.236837517921607 8.946635417589786
Be 14.90723727680129 11.23571321830505 11.071203504466212
