52
Energy = -154.22352374 eV
Be 8.93307701510883 13.512138472075506 9.956175070926095
Be 7.817972844727466 12.184642075373317 8.381858631841297
Be 9.886198141930995 12.425672693775573 8.31677226780641
Be 8.976496539433862 11.493284430516008 6.690941202879666
Be 5.897329156057384 11.231293696538438 8.828304892199405
Be 5.141020784811531 11.543277516465782 10.671257219515745
Be 6.8552779185280155 12.596875514162686 10.184211388270981
Be 8.113685357195637 12.684270741324609 11.775171658303883
Be 7.268444107238273 10.39419979989934 7.419888195651704
Be 11.186728115144282 13.176930381599984 9.823273885808648
Be 10.871638011246272 10.50899358131352 7.069061675966543
Be 8.916166928504742 11.5330525170143 10.135450669288968
Be 5.69299947433744 9.557880567447889 10.541077125213311
Be 10.20387568850961 8.1706505200688 7.356267471980786
Be 9.274174395333361 10.308481852545405 8.464958706062415
Be 7.48687550081228 10.142127602611962 9.640976405241554
Be 11.858965160425155 12.358970235659452 7.835229704527498
Be 5.975113415456133 9.05754588382505 8.49662151463036
Be 8.860002049731506 9.402841618221608 6.424717938969928
Be 10.215894028117184 12.389472739351113 11.536399320724575
Be 6.778987613337863 11.011872788072306 11.746508593314415
Be 8.791826607128861 10.720551790271688 12.151443119744759
Be 6.9078236551711 8.507644574258688 6.682660958333979
Be 11.004661462668622 11.051363241862996 9.779088421487382
Be 8.290110465170567 8.517845885855564 8.457776361340908
Be 12.84632732101199 10.525501375686066 8.132915896238858
Be 11.178057169148731 9.268025246239425 8.854208136403756
Be 6.5991994410446315 7.069385235322859 8.081311248391724
Be 9.438018080914274 9.520172181932956 10.362685136269938
Be 7.54542461786191 9.022279915201453 11.641433751319925
Be 12.217832459116526 8.73935554736397 7.1699863385724125
Be 8.403167806444955 7.060337275018931 6.915988764784955
Be 12.236505546835705 11.847993580552972 11.365145294196777
Be 10.012100727619906 7.743378092964846 9.53007356159229
Be 6.880382678987547 7.777383893808983 10.033875251637562
Be 11.750510880660947 7.116346943871377 8.491259810372464
Be 10.865696931388712 10.536600094332643 12.336044996899703
Be 13.01456775809262 12.181400336242737 9.469255942849447
Be 13.156853398284566 10.243406002709385 10.218456031002113
Be 9.561795099342563 8.720244992485386 12.320615853949217
Be 11.46808224808163 8.847562248375786 10.873956035136773
Be 8.307128191715682 6.403665661576248 9.10509281480496
Be 13.212699623091712 8.466080720121477 9.04969949936896
Be 9.974824735070213 6.193102505631378 7.9649140412713395
Be 12.865854059294081 9.879048051041377 12.273806640424285
Be 8.69380362124346 7.179933854736644 11.10317135473583
Be 12.390743098851889 6.781117627302689 10.452362903582204
Be 11.404206335561001 8.669971688169415 13.158223035055995
Be 13.7173871779602 8.404681743915262 11.03931408727818
Be 10.407568376761756 5.884525436098061 10.070045658433026
Be 10.739847810288744 6.955457670927769 11.901090271597946
Be 12.740632345171337 7.410120653569887 12.447206200147553
