5
Energy = -5.59958976 eV
Be 10.121768022160312 10.478594437126247 9.826761044581135
Be 8.429543582146794 10.016865303807968 8.833637650820034
Be 8.309887789887947 10.854997974841101 10.740862839490074
Be 10.017985438498771 8.690422485327266 8.802926051202961
Be 9.792890199759032 6.6312123348575005 8.467898050929403
