5
Energy = -5.04939041 eV
Be 9.137126994688991 7.7969650824807015 8.217860424719257
Be 8.233780561855728 9.664425692355424 8.080361344226779
Be 8.06359277216388 8.675094741386923 9.764050678775373
Be 10.413168325551757 6.382129461159373 7.363140943918831
Be 7.210792561093926 10.539846237972226 9.633047823714163
