54
Energy = -157.88122846 eV
Be 8.137111374180364 12.193260016534039 9.024255134632025
Be 10.585380209099165 9.24772080836563 13.040950229739828
Be 14.484355450943946 10.961953269547918 12.931515315707486
Be 9.883576033039514 7.628943694198117 11.166728407230636
Be 8.673657769231271 9.158271180592898 12.16029933609259
Be 6.662287751544974 9.50350130769843 11.328589947954592
Be 12.811594788114094 12.275593775972837 12.789619333248856
Be 11.103624989581883 9.68847217973022 8.285858538631395
Be 9.740470238272406 8.20719527818003 8.869071748865643
Be 14.322043229808616 13.419189839546803 12.01627333831671
Be 10.126924976099334 14.07624170594035 11.290780459777963
Be 7.675061107500303 8.854967750160972 8.227456284201239
Be 6.9392884778833395 12.130731424814169 10.895852034543891
Be 12.217927297294072 13.323500982333027 8.526619680976726
Be 9.280531634912421 9.51142342649362 7.07945975991432
Be 10.741113771204617 12.707997278143223 12.685734146628752
Be 12.290355574266238 10.169285495668566 10.003738647988238
Be 8.314109312373443 10.68885548276046 10.925833989523177
Be 10.017757569261141 13.462916768199127 9.120216218941406
Be 6.974696458979345 10.435928421137865 9.376017467808984
Be 10.935126717184435 11.58708048435922 8.965614095113587
Be 15.84064251397315 11.938066855283928 11.695899116419632
Be 9.574789809174128 11.638389422759818 7.4470578269677405
Be 8.715731899022316 9.306276109601502 14.153028632141067
Be 9.487115224666645 10.97848621593405 12.759398665137347
Be 11.630416775127953 8.188304408554567 9.789928441681013
Be 11.89702249865545 12.515586910181206 10.594757745096052
Be 11.547931437827787 14.677489294463237 9.951640552290884
Be 14.3994703477098 12.581496269315206 8.756480313758582
Be 7.680408473075376 10.758508670439001 7.400611377734486
Be 12.850350771503821 11.344357104535625 8.448175524141336
Be 9.171132733728738 10.35025702253709 9.083831568172682
Be 8.231481525068258 8.679238795873049 10.212332460911727
Be 14.41786100883332 10.251022134424893 9.27867964656186
Be 15.987917636420073 11.519914523399246 9.704831099993392
Be 15.514838833202997 13.415790385453594 10.299190589506988
Be 13.774081837783712 11.56711658189669 10.864745854862697
Be 12.640311311796912 10.08997530660339 13.433491170459659
Be 9.883626341759594 11.932535396893327 10.7600111314224
Be 12.053643940422477 8.631250874410561 11.781585053889858
Be 14.139529004895296 8.950319746480352 12.590564829178257
Be 11.509960947419337 10.886806654268776 11.934077284339164
Be 8.528899344838793 12.754046523376198 12.262084398912801
Be 13.511232781963763 13.979649392012583 10.135572350341524
Be 8.301189472116056 13.694331514973063 10.425828767733579
Be 13.773785204977681 8.726896576624492 10.591880663983853
Be 9.589544979871679 7.48044411492399 13.266801394036758
Be 7.7470827949792005 7.362168860429915 12.037865842879876
Be 6.794895672031095 8.850580030857293 13.266935760025026
Be 7.799104106667029 7.329942186036207 14.12668131153753
Be 12.263827842041746 14.13786103119867 11.948315344787254
Be 10.24991179730594 9.680155084711812 10.750510718898918
Be 7.4042991640793625 10.829384352012829 12.832448837017331
Be 15.369298605816425 9.962507354333718 11.151084560509592
