5
Energy = -4.41891705 eV
Be 11.430193478844195 8.663727062005908 10.517296659233624
Be 13.263390235843499 7.602076142418749 10.973572142859018
Be 6.626892515291597 12.17906135194821 8.341485248390754
Be 8.071216071483228 10.899003549399595 9.286078058744515
Be 9.702311356926241 9.750135552616156 9.975571549160845
