51
Energy = -150.34567995 eV
Be 7.438280501658525 7.947124619126179 4.48038943190081
Be 9.828089927666648 7.23561872503938 5.414727200933859
Be 9.362142977438602 9.332979661671823 4.952457043765773
Be 6.039160857022231 6.6191705066537345 5.299375893509074
Be 11.34344747393229 8.692919477593447 5.476314139710237
Be 5.800842526524945 8.584239167433118 5.869475149740754
Be 5.599277788522655 10.692805357663746 6.4732233285438765
Be 8.01688653376354 6.108431089397708 5.675318317411784
Be 8.16669220366315 8.311383120861096 6.297423879456386
Be 7.311837457344879 10.045696902516122 5.298979727974419
Be 10.013767970203778 5.380492204738974 6.494808856102209
Be 8.849003148040872 11.520309089522144 5.324311564947902
Be 11.287239597984492 6.990601254342898 7.519874189103451
Be 6.882479286896809 7.18319102259953 7.308302060863678
Be 6.900684062782097 9.518738092319243 7.398809720875841
Be 10.764732311289471 10.597791602702031 6.144314226744417
Be 12.068236219006247 9.33662969396453 7.2914620690335035
Be 9.033137478214128 6.837401594070448 7.36740617610658
Be 4.722341784524176 6.951638400446054 7.025397768726057
Be 4.840079198022204 9.05696614838113 7.796823548107623
Be 8.817126870115207 10.159311472463822 6.9124912454186855
Be 5.933147009683309 5.2502924137433435 6.858548447764365
Be 10.081507768643407 8.642601970133443 7.2065067273825125
Be 7.344411059759591 11.683258342226075 6.870406616582393
Be 7.932197035475636 5.001531823929796 7.614328492781847
Be 9.481470327573769 12.043304803584851 7.193352933783264
Be 6.244371899126351 3.9431291339358143 8.545013628901918
Be 8.25244207268073 10.973470679894824 8.757374962457703
Be 6.249828613326276 5.979620999594585 8.831122665202331
Be 8.303803500096713 8.631612762059737 8.455903062767321
Be 6.475429252733705 7.947224169120881 9.25814596613078
Be 4.387289264890392 5.340658394322909 8.621992130292197
Be 11.401656423178872 6.483795357239163 9.743236636548625
Be 5.982658938781699 10.850192438472618 8.69635531198293
Be 4.125776427672293 7.4665941879251365 8.9066136805681
Be 7.878527840331622 4.6033167051418005 9.7731920433761
Be 9.83938555979188 7.5579039650713735 9.107212730334869
Be 11.49379579624048 8.686605976859225 9.148092102971512
Be 10.515021402333769 10.500831195243801 8.296057079300603
Be 7.202388399571502 9.79514407084075 10.125574845415759
Be 9.8495523354392 5.371599931112055 8.681047333737695
Be 9.549380234918322 9.626449242839811 9.996926104346295
Be 5.004502769294335 9.18926990361918 9.961739500320022
Be 5.722414315465199 4.683728530983107 10.370495325162585
Be 8.093526517751474 6.614281512521029 9.148309340724222
Be 5.035899787044106 6.721122608843851 10.55906659214274
Be 10.492799515437955 7.916019161395368 10.980631055864578
Be 9.41056483874361 6.058948430284585 10.647008214419767
Be 6.320749799358874 8.19323710792336 11.320404510207883
Be 8.369153580834794 8.02650620558954 10.718357622988474
Be 7.074679290456723 6.248126523294553 10.91911654781781
