54
Energy = -158.92981093 eV
Be 12.93200257460563 12.92428213 13.970622957766427
Be 12.922295797134147 12.92428213 16.363035863191392
Be 11.1273298315546 12.92428213 15.415023574066335
Be 10.954360073144734 12.92428213 12.92428213
Be 9.288184351360465 12.92428213 14.342090937195765
Be 15.981525007409934 12.92428213 14.514622062718516
Be 7.784877201654669 12.92428213 12.92428213
Be 10.374462705265069 16.107841312124176 12.92428213
Be 12.93200257460563 12.92428213 11.877941302233577
Be 12.922295797134147 12.92428213 9.485528396808608
Be 12.364851869041143 11.131841882757065 15.482967530482474
Be 14.392615671341902 11.832875914030604 15.461908035919688
Be 14.392615671341902 14.015688345969384 15.461908035919688
Be 12.364851869041143 14.716722377242936 15.482967530482474
Be 11.1273298315546 12.92428213 10.433540685933659
Be 12.364851869041143 14.716722377242936 10.365596729517511
Be 14.392615671341902 14.015688345969384 10.38665622408032
Be 14.392615671341902 11.832875914030604 10.38665622408032
Be 12.364851869041143 11.131841882757065 10.365596729517511
Be 12.319974618002805 11.014725627879782 12.92428213
Be 14.510787692428186 11.731291012722677 12.92428213
Be 14.510787692428186 14.117273247277327 12.92428213
Be 12.319974618002805 14.833838632120226 12.92428213
Be 11.788117059828918 9.379197191819376 14.423149783139982
Be 15.871445946078165 10.745549671693595 14.376725237106225
Be 15.871445946078165 15.103014588306403 14.376725237106225
Be 11.788117059828918 16.469367068180624 14.423149783139982
Be 9.288184351360465 12.92428213 11.506473322804242
Be 11.788117059828918 16.469367068180624 11.425414476860018
Be 15.871445946078165 15.103014588306403 11.471839022893764
Be 15.871445946078165 10.745549671693595 11.471839022893764
Be 11.788117059828918 9.379197191819376 11.425414476860018
Be 13.888837717157315 15.924486255707055 14.58202422875712
Be 10.438410104247074 14.764648725827444 14.526709085751236
Be 10.438410104247074 11.08391553417256 14.526709085751236
Be 13.888837717157315 9.924078004292943 14.58202422875712
Be 15.981525007409934 12.92428213 11.33394219728148
Be 13.888837717157315 9.924078004292943 11.266540031242876
Be 10.438410104247074 11.08391553417256 11.321855174248759
Be 10.438410104247074 14.764648725827444 11.321855174248759
Be 13.888837717157315 15.924486255707055 11.266540031242876
Be 11.342362867229838 7.989430514357113 12.92428213
Be 17.069398778087283 9.866923338978397 12.92428213
Be 17.069398778087283 15.98164092102161 12.92428213
Be 11.342362867229838 17.859133745642893 12.92428213
Be 9.138225005729323 11.402141081834783 12.92428213
Be 13.144058403203061 8.863322205182943 12.92428213
Be 16.848568498980754 11.889803859093648 12.92428213
Be 15.098266007178736 16.382195733248633 12.92428213
Be 10.374462705265069 9.740722947875826 12.92428213
Be 9.138225005729323 14.4464231781654 12.92428213
Be 13.144058403203061 16.985242054817054 12.92428213
Be 16.848568498980754 13.958760400906352 12.92428213
Be 15.098266007178736 9.466368526751376 12.92428213
