54
Energy = -161.13449145 eV
Be 13.545862588941102 11.012919767285291 11.270392128009473
Be 10.285023581961264 14.168266146693895 10.714965808102336
Be 7.1825204272117995 12.297198579903508 8.620213913700473
Be 12.438145921018785 10.907204775451808 7.2780507885865955
Be 9.021957120307507 5.372643326069234 10.805366895087724
Be 6.47751848956057 10.262205125516214 12.042074442085424
Be 11.660486874843038 10.971324603217097 10.61987324029521
Be 7.337755111237056 6.888440792268849 8.019622868676631
Be 8.325002329875666 11.115838181697573 11.753558910646287
Be 9.061955297026877 9.81324958746127 8.075560262987297
Be 8.324023557522478 8.198778909739385 9.316093025122697
Be 8.443913955392986 7.103487491228192 11.928612484354462
Be 10.052117398216117 7.281234758522492 10.478567560965429
Be 13.480673861786466 10.41402951814928 9.187100766119068
Be 10.238490723592859 10.259184069173193 12.301349742883222
Be 11.208199857367166 8.975109456141222 10.698670068883688
Be 7.678297625420074 10.235981056387473 9.66784631004141
Be 8.929415028743712 9.401502790848971 6.090180238217912
Be 10.15588607338642 12.288967302466766 11.676555346494236
Be 9.170545780712596 11.8678019772234 8.233025277523922
Be 10.612814237204432 12.379912910417108 9.601175557750384
Be 12.671563419896831 12.264388936532518 9.065288564131047
Be 10.444485306781903 6.06810189491834 12.129433242478292
Be 12.08842171190789 13.03764960911919 11.040172006856485
Be 11.058090315020163 5.569875156806955 10.060252652423806
Be 11.083091757157327 6.813447894543249 8.066128222795255
Be 12.191958196931584 7.273951216467109 9.717451509133273
Be 10.303311317460956 8.145134338104178 12.610346019101799
Be 9.060866901058711 8.986761384585824 11.048713316933819
Be 8.52203098811198 12.643939488949485 10.245795344456154
Be 12.300181344427894 9.514481299325034 12.36663544475889
Be 10.85260837320814 9.035535603019506 6.9816368571554435
Be 11.036753617987852 10.565520170013004 8.612143451675193
Be 9.162320756810153 7.676774197628788 7.3322946920088885
Be 11.929868634813168 11.605050853758991 12.590037920486512
Be 13.302554087728987 8.937882567496233 10.5620947780973
Be 9.654390860059282 10.669907545820589 10.144831998158656
Be 9.184606857117844 6.1260350677470505 8.81854329519663
Be 6.2386638916271915 8.44175158050347 9.087405684549289
Be 7.40921571558814 6.529138105023585 10.14684781269119
Be 10.240036258640986 11.006881866748074 6.591681306877565
Be 6.438796112725242 11.779085172916417 10.56919314347087
Be 5.507348023636822 9.952402472507368 10.319736937726692
Be 6.041080822556171 10.5013309694061 8.26930451809313
Be 9.477518951038006 13.826910995085317 8.721764070049357
Be 7.691547400928025 10.98092829646439 7.028819198111699
Be 12.040513416374004 7.325505210803874 11.740745384098886
Be 11.594956363776829 14.11104295720166 9.145829546001924
Be 8.19521210115935 9.24356980866181 12.805734424505014
Be 12.462161002090843 8.795627024206766 8.392538142682252
Be 7.246097919833417 8.89007376703027 7.289958169562648
Be 10.35795108137297 8.55088680705251 8.928144621220016
Be 6.891452917679372 8.398934889167727 11.111276389219714
Be 11.138723798785065 12.623297506384496 7.6324633394814025
