5
Energy = -2.21923346 eV
Be 12.461128852683627 9.227343940999 8.24709684768724
Be 11.78182372882116 9.884912363508262 10.041997222943333
Be 11.209564664829065 13.92457798974393 13.75664088782255
Be 9.086630374302441 13.703679289803196 13.57715137073417
Be 10.188169900923807 12.538126608848446 15.018461054316106
