55
Energy = -163.90098927 eV
Be 9.607672328554314 9.722646669092892 8.394600755852984
Be 11.331638544924804 10.172511037245807 7.206067012172292
Be 11.530882190677259 12.693427958727982 7.39626276208811
Be 9.70263494762817 13.378905323692312 8.609523198473733
Be 13.691211399759368 14.917266025647633 9.305567116569957
Be 9.818482989686075 11.574188133071601 7.54665739074275
Be 11.323045466990202 8.392160352083444 8.2614515676704
Be 12.908288958342474 11.185453294251063 7.841421258752932
Be 13.32264930357541 13.054719099999367 8.579230906690675
Be 13.197901639554088 9.227434981283919 8.60719606794437
Be 10.203794361620425 8.599047241725012 10.034643017638789
Be 10.496676212169229 14.38203300927967 10.339038473392337
Be 8.448082537836727 11.454708277274616 9.099666802978641
Be 11.321976832658875 12.249761893107253 9.511108837186605
Be 14.69208743554609 13.28856914572316 10.39371463874155
Be 11.743358831501 14.382522558338495 8.758050859369806
Be 9.988491199699144 10.899201327851022 10.693440541360184
Be 11.636868716654073 10.144894808874403 9.538385806498765
Be 13.647840884444996 11.349976489422184 9.722603702871256
Be 12.264054507910453 8.031184286319137 10.113998083836323
Be 8.27799715050397 9.52880374061247 10.10902801126636
Be 7.784319214962744 11.144013691706128 11.221230543850817
Be 12.24714241346155 15.601583661695944 10.667750259770452
Be 11.35399209898904 9.323607675405592 11.71674967865802
Be 14.122881141243514 11.716656612653722 11.765359053339836
Be 8.847634982781893 12.90197295036683 10.54024476973824
Be 14.359996871349981 15.226907112547721 11.159612955080057
Be 9.32657454198852 9.775878226432868 12.295493976013411
Be 12.87011886862326 7.897946412051867 12.15182610929272
Be 8.658855326911542 7.705552849740528 11.051506041437063
Be 13.439254693733847 9.591775205458207 10.864232221544555
Be 7.406379535806778 9.051676656542442 12.1045633358107
Be 7.592039846327178 10.83617023331157 13.317592241893498
Be 10.7677625480055 7.191863966656325 11.461627795608372
Be 9.017799498053378 12.057498212833245 12.563123629660929
Be 11.266579950138807 14.606780067725117 12.362145161741537
Be 12.587794951450546 13.42051024606552 10.793874173044097
Be 10.663810488213233 12.765219474450006 11.585990050029798
Be 11.327299928276984 7.22201412233515 13.440450123751347
Be 10.468209331414673 9.07025243234773 14.078148397796951
Be 8.323599296811759 9.155545590203682 14.108679928063978
Be 12.09488876547646 11.262793980354658 11.188392824248343
Be 14.153854552573057 13.682433748466524 12.578284419249016
Be 12.375292693885177 12.57235791838196 12.727543245415713
Be 12.996639646743361 10.23968241476583 12.82965249434615
Be 13.048088862245281 15.419082533621177 12.690731349535174
Be 10.965213893112256 11.059803644378746 12.966965240877443
Be 9.310409796366956 7.650965512243045 12.97084435505081
Be 10.43697322067653 13.079884316159523 13.722358711232788
Be 13.314599067896776 11.787676878912727 14.32195803644625
Be 12.318820391152501 14.008636055321961 14.158966639799768
Be 12.613216501837032 8.657920377925588 14.071983198331147
Be 9.524470326229524 11.063053894430332 14.46402251434497
Be 11.820792661604873 10.381059372632825 14.901028200917619
Be 11.527823872708465 12.330574519541416 15.18417773326888
