54
Energy = -162.43237715 eV
Be 11.503996234607047 10.564581363719023 12.250518976662987
Be 12.124590284578199 14.75613998570993 13.508282530466058
Be 8.580142605892386 12.209979997438971 10.486502980265577
Be 8.21599393735112 13.332417947982556 12.443033501043493
Be 12.718527165833509 8.03375415072116 10.339959263347215
Be 7.235193598294105 11.494103932427533 11.836359316469425
Be 14.1706831868685 9.669784632574354 9.775685502310104
Be 11.5568826386598 15.010239804817072 11.515365818856258
Be 13.480325022341166 14.844737065579501 10.229168563299863
Be 10.047105446422298 14.513822542807866 13.122785502512308
Be 14.792830533965871 11.531049769197196 9.057904690295404
Be 11.681297967767383 9.912872315283037 10.064584628512362
Be 9.876300562783063 13.728190552218527 11.201608373995334
Be 13.285801491772617 11.5587466051184 12.564414108416928
Be 10.943498758900297 9.539431942854169 14.111822433475403
Be 8.869621167742702 9.8097979003315 14.05689097764348
Be 14.763004362942759 13.154367586672295 10.370989508243644
Be 9.779733267364177 9.9974200507356 11.084450979352113
Be 14.379151866207115 14.586937029591873 13.573791687210342
Be 11.055029646034708 13.312551000340818 14.710502693389955
Be 9.57909466826947 10.993387186593747 9.021186290582495
Be 15.064992841903843 12.700390168656728 12.695493694589759
Be 11.798687223742624 8.414703627772514 12.391460421165364
Be 9.575174960202116 8.951018218353823 9.195818240733345
Be 11.374905150507741 12.79155973440323 12.619245504634652
Be 10.777951413639313 11.811832601278683 10.746103698385038
Be 13.024323603600388 9.726132991938037 13.69240333647298
Be 11.221666505919258 7.862470460738894 8.829557885176074
Be 9.977971630166554 13.125812519070616 9.219989684220213
Be 9.544489036129058 11.60575626526742 12.464138417309558
Be 13.3740854667494 13.013866652758983 8.755024314749196
Be 13.087502119693854 13.05762911543409 14.003934475531597
Be 11.139330296729739 9.827549992642926 7.9568527467663674
Be 14.959107550175096 11.21954907639215 11.082897004059452
Be 9.000150478293161 13.222016993618537 14.324064141146813
Be 8.553785693982686 8.304744684804081 10.905976051307773
Be 7.8617829783423865 11.57007461546637 13.783128398626564
Be 11.816968569281588 13.571876316339907 10.062770612370059
Be 14.180962733669691 11.362775799772258 14.434448265278947
Be 7.8462667836793045 9.643243356795807 12.332015349873997
Be 13.411858855898798 15.79602573750421 12.138092221410655
Be 12.942791717274202 11.637969224712846 10.449958082358757
Be 15.104982372948566 14.750248590378801 11.70272746956428
Be 10.596919312110336 7.8742059524742345 10.771036614950804
Be 14.945442035948698 10.2609548557086 12.885971055663175
Be 13.381079802604134 9.620853906831835 11.636474953716693
Be 11.513274831440405 11.846792652120682 8.751114418927394
Be 11.995420857748385 11.352259367326573 14.488775624172904
Be 13.202786959855212 13.502844298405916 11.831505713827264
Be 7.886734862653835 10.221688417784096 10.241763820580047
Be 13.144708279916994 10.786443444738453 8.152898060380275
Be 9.672160760375643 8.460552509102918 12.688408552627866
Be 12.973399794550074 8.773040954193572 8.35805133592643
Be 9.911905450366202 11.467418503708492 14.734086972357222
