52
Energy = -154.73768638 eV
Be 12.276606462140222 10.485327922855713 8.74998558992184
Be 13.769424934761743 8.882199583860299 8.985210099353354
Be 12.404213200573379 10.85161295878532 6.643571257716381
Be 11.233426995635568 12.25345456641033 9.681329926919117
Be 12.974577366535536 8.920477840599226 7.127651115621987
Be 11.223476540825388 10.367314172344932 10.695534981714076
Be 13.058273936023754 9.65407932132328 10.749921039867477
Be 11.378642051633657 12.096452023401843 11.77238190919844
Be 10.835646491141537 11.735822561782564 7.6338954620615365
Be 9.848314884920239 13.304286723369076 11.010725662103937
Be 12.080544079096027 9.387537087502025 5.299134656859883
Be 12.53090975055806 7.245555570283121 8.362715374246456
Be 10.43124773603615 10.75519526528279 5.712508679800269
Be 7.859469031233088 12.898861443492729 10.282465891296624
Be 11.120149573079608 8.653203485419517 9.36579697551694
Be 13.096825549170331 7.656118528305505 10.453133521001277
Be 9.32496882404078 11.254221215637585 10.95273281479616
Be 11.456091290886468 8.40236257232225 11.660961592244094
Be 10.789100871888646 9.34322094467971 7.311365067339982
Be 9.331672597808952 12.457256136901675 8.936471848925073
Be 11.555294589763182 7.504317963634463 6.331472906560458
Be 9.786117577732458 12.299590117204485 12.97368644710311
Be 10.504309515101577 10.327976739561693 12.663140021599613
Be 9.885851628610165 10.37141524486598 9.088541813217725
Be 7.882226184310689 12.396713718423412 12.217639558004462
Be 10.24717226813389 8.672683100911934 5.055257087687188
Be 8.860167304913645 11.020184571623439 7.358266258508262
Be 7.731304531709559 11.034779486111683 9.34787297992276
Be 9.207641169603392 8.69339289084053 12.967877444018596
Be 11.32576455690821 6.676352447372426 10.14443080981017
Be 8.505798854582046 10.61790792842383 13.383058032895597
Be 9.57344576121525 9.100548759125779 10.882462263970613
Be 6.298302048536548 11.676572688011628 10.999175765152437
Be 10.484273151522494 6.9089398150539365 8.07747109952091
Be 9.117393052783864 8.567726509526402 8.162358222889099
Be 6.495864133242432 11.050392622029792 13.054881144553287
Be 8.669074876806835 9.434015967406955 6.105026903780276
Be 7.649869178782265 10.001334178278833 11.38809853366508
Be 9.34505628857607 7.393252986525575 6.385179661717157
Be 7.818913383605153 8.780464538730039 9.72916536686029
Be 9.912052052707661 7.0006403954865934 11.78596868347993
Be 9.295054479664604 7.1656700034898435 9.843947408154934
Be 7.207856639000863 9.644346180217628 7.770907551758344
Be 7.999569647410439 7.705607186272746 11.641973150306525
Be 5.982690825747152 9.839166624627094 9.71419611794892
Be 6.926386194140305 8.951307512211722 13.032036981760447
Be 5.431710490263289 9.922120753427654 11.737091630088443
Be 8.150177442439066 6.692122912026366 8.114713129788424
Be 7.351847957363592 7.917196488829551 6.6840471547263824
Be 7.290217940428907 6.637813478495276 10.041094210618791
Be 6.326481903193782 7.852709383846288 8.574362432412133
Be 6.124386192256681 8.161356120037988 10.98762385686936
