52
Energy = -152.68165724 eV
Be 10.160044905934207 8.857591915979613 10.027119928592
Be 11.73821751969263 12.637598527054806 14.774528284685307
Be 10.546366133983842 10.929254145895769 15.374539384292401
Be 14.66873323955002 10.16476760527191 10.926444754205601
Be 11.70324039287833 9.27255024970554 15.092946408466108
Be 13.261243346135378 8.82649030099115 10.03384181700018
Be 13.762037019752983 12.75446844675616 15.140579935484755
Be 11.74444291492575 11.677634113731191 9.257756134095937
Be 12.763256255789292 10.963685058117237 7.392969721368265
Be 15.195616854062873 11.743801438247482 12.200159317972252
Be 14.914359643826932 12.099590948143751 10.015564333817855
Be 13.470260528655247 12.662021715232703 8.540443533725778
Be 9.717280537745497 12.797273929105417 15.13297045875421
Be 14.660271111784853 13.379664526184262 13.432890219917718
Be 8.271157344508437 11.816905069491938 12.187766386942238
Be 11.702053846026844 8.160977817977685 11.158241825148128
Be 12.90237265241577 11.267031068351745 13.016467845766625
Be 11.724572317057632 10.428550034276128 11.069914355687235
Be 8.783477610373367 10.22801707084247 10.91766393860672
Be 10.55021614844305 11.290012569481659 13.008854290721347
Be 13.63025828850877 9.346094890073415 14.217269053936079
Be 12.894085596628207 10.905717000858127 15.381010089858979
Be 8.341551015700734 9.860514122177443 12.876967910319088
Be 11.76555411649684 13.838356253434714 9.07408668512421
Be 13.671973116543775 14.239552512795624 9.977794483232765
Be 11.722126559380307 9.603243659955382 8.827622432501686
Be 8.839046786948412 13.441911875971355 13.421297854786534
Be 10.58844456246456 12.438178912619376 10.897690249908717
Be 14.798313583068145 11.200856957339198 14.34435760856397
Be 12.885700561202885 14.399467005134403 14.201863549375602
Be 10.709980862098732 10.984557434792965 7.391727837001052
Be 13.582172844048687 10.699279764217385 9.283871050793747
Be 8.576360197517822 12.164454576090334 10.004932323690403
Be 11.772629227414415 15.460695004993966 12.858650827499138
Be 9.887734648164988 10.73937467030675 9.282867590609143
Be 11.770287843014946 14.664428461898035 10.928686074499982
Be 9.88545966909867 8.7823744422357 12.092063635210984
Be 11.750503800675068 13.262216666174906 12.645465186666362
Be 13.535704586517644 14.70945634058662 12.116353467445153
Be 15.063641441694713 13.618004020738862 11.378080021303111
Be 9.863394356821304 14.279571285962609 9.971012174636925
Be 10.039585362334831 12.696446998623353 8.537076152951752
Be 10.632680334688398 14.42353625135919 14.197315507638972
Be 9.782590462913287 9.384432450063692 14.210430158147163
Be 11.706816954304387 9.199877907216301 13.028333045111047
Be 8.650940218812433 11.263548248646142 14.331854802866674
Be 15.086991772658514 9.791038937178062 12.889802188189654
Be 13.524230641555615 8.749063663879316 12.098573638851201
Be 8.452190922217232 13.688045492440192 11.363650606789495
Be 11.755164669224724 12.745969828211601 7.265181754283443
Be 10.000081995303042 14.746253900287792 12.109173909076144
Be 12.908341586288207 12.412526275925694 10.905937553209105
