55
Energy = -163.0128405 eV
Be 15.589257731714083 10.512755012755122 7.914861641488041
Be 13.555955043832709 10.986328056019257 7.653945578257534
Be 14.167181697746061 13.746251306789999 10.452217597994458
Be 14.218937883207008 8.989125868237096 8.03933011539501
Be 15.83388683560045 8.982265330436567 9.38271319778292
Be 12.365804905604175 9.001497470735986 8.930834548449234
Be 12.888803994535325 12.880692164876017 8.60076869345919
Be 11.815413305492068 11.000689971704663 8.795251939959424
Be 10.614883524798367 12.982591480569585 8.969862531804562
Be 14.857670828003993 12.26948845728824 8.942108218440241
Be 10.924201554875296 11.662221948781685 10.522941336591703
Be 9.618760605953948 11.081644056929608 8.944168683597608
Be 12.036738036479427 13.847681306650008 10.326254596308512
Be 15.335821151683607 9.708210439342718 11.30046730242267
Be 8.757111340177554 12.459262081098652 10.218073456983536
Be 14.049944528506149 10.422980249231964 9.681088821096713
Be 12.416788787281945 10.00258991192278 10.949479014785576
Be 13.079780531742808 11.984171751480845 10.516428997074552
Be 9.966916880568363 14.06183580678971 10.791469864734314
Be 10.714536687309097 10.257999005859297 12.077425769885556
Be 11.322788428219368 15.53507033860432 11.348781502318367
Be 10.543521911091482 9.471925335513983 9.935984217664366
Be 7.657770430047677 11.703162561343744 12.041667262681708
Be 8.906914004413675 10.39204453055016 10.821082052684632
Be 13.950967062791964 8.338738246264814 10.185419709065998
Be 11.798905703807897 7.94063327714459 10.713051429462418
Be 9.702134855555757 12.126953264119752 12.024052967733866
Be 16.33225256328887 10.914124062732022 9.71753344311134
Be 8.80010480067491 10.175881385276549 12.953393256535792
Be 13.052064835646226 14.726059223628784 12.048928716682934
Be 11.671572727214162 8.34077247986125 12.66805194107089
Be 8.412647191546085 13.76890755569762 12.197057083800907
Be 13.694974401716372 8.768684710818626 12.247413076683932
Be 9.599056909830976 15.483520511757888 12.448555381031497
Be 10.663151792886019 11.561051501754491 13.740208071767439
Be 9.85225538990645 8.491994624671998 11.679204614306578
Be 15.20327998853328 11.929349376161035 11.093207096468742
Be 13.912030956011732 10.898025097812756 12.37229187519856
Be 12.021002107612832 12.097906191632767 12.285536605443138
Be 11.676573348015818 15.67898227696063 13.364111068197525
Be 10.66964605190349 13.668437735282394 13.127912086731582
Be 7.323937213956029 10.964512995558984 14.043641374497554
Be 9.985490150812456 16.28753535961784 14.302832404826226
Be 8.639654238186342 12.473751035710082 13.84454199998598
Be 14.06591858614401 13.009603984128173 12.523099895854795
Be 9.203982973567875 10.768743472752991 15.021547079731357
Be 12.360933162295826 10.03839962827835 13.580835044386717
Be 10.440557692436235 9.394014065623152 14.029159424280962
Be 11.356433763729836 10.869887985383942 15.476322080911448
Be 11.002639911533045 14.664038323511612 15.091861924729036
Be 13.074294894475956 11.915962179057177 14.196108843231972
Be 9.927313594028119 12.802096824478456 15.457560297067392
Be 12.83258939784125 14.028508605291618 14.024165583729209
Be 8.994837982846724 14.495608807760753 14.227557058353225
Be 11.988314793642912 12.88374043907994 15.6065412945848
