51
Energy = -150.83743013 eV
Be 6.488617737838913 7.723533676701092 5.0797650216720935
Be 8.258121552703491 8.679294840591751 5.2295205169409
Be 8.141527952212394 10.559738297293887 6.370860272462802
Be 6.422131236327873 9.657733962690418 5.592588367134335
Be 9.979089876787393 9.471202150735042 6.2503791839574205
Be 11.611624870060249 10.192054306349329 7.246916835612219
Be 9.585112348538754 7.401521235428473 6.219628333472781
Be 9.931162268650084 11.577982572878607 6.968064588478376
Be 7.574440054946833 6.852841982122873 6.596309244548489
Be 11.653394697309837 7.994492315893949 6.568498036563404
Be 5.92063198249494 8.193800614380535 7.055522718556371
Be 7.735372245324165 11.775814799668522 8.065901211465182
Be 8.089100912679314 8.702658823719277 7.522193228084932
Be 6.327950634613997 10.253851942592949 7.540728389863181
Be 12.869662534463298 8.865836110438982 8.101672925574254
Be 11.445178223433352 11.86923654462637 8.353211036799232
Be 12.31619152037168 6.971445909676451 8.58374322641656
Be 7.471491626440442 10.04348537522381 9.485186052565053
Be 10.784936676039107 6.2636215079690185 7.417847051933188
Be 10.445003979687325 8.306862765158359 8.217475597039352
Be 5.667288867089447 8.971432204828636 9.02859257369528
Be 8.884460839433272 6.721994641478753 8.188544511087931
Be 9.56874762056924 12.203376182037609 9.080701647182412
Be 9.28789210336287 10.203424160519734 8.348077824062017
Be 6.957006787050879 7.322586175400723 8.766996073902861
Be 5.876579359407806 11.286993093004737 9.443968851017686
Be 11.035824469259863 9.975039861148623 9.405757945612848
Be 11.329806101033357 11.872761392654327 10.411510745053326
Be 10.39926806241945 6.33871272551838 9.511770530609313
Be 10.619076497747956 8.41059575310195 10.72546120465179
Be 8.848111511502799 8.490699072877776 9.599561729526783
Be 8.439326605476687 6.544005575263876 10.325239319312232
Be 12.816485235176001 8.518940652295205 10.133499137172787
Be 7.747757541118937 12.21478796071335 10.171866684556047
Be 6.899120265593267 8.161606495646492 10.689756196200415
Be 9.355899431876534 10.412052909944029 10.672118365814685
Be 12.903776576563343 10.599706485810776 9.265405046070676
Be 5.628748026554458 9.822604326976686 10.893671951196566
Be 12.069760647406069 6.641192487851479 10.633994801625292
Be 6.389958228936709 11.566022324634417 11.530984300918638
Be 9.550966678860458 12.748693905304846 11.067018338078428
Be 12.022025818268313 10.112487331340116 11.32788260433709
Be 10.194018044363991 6.571600054607247 11.616785672813627
Be 8.64479289355871 8.038014569705943 11.895518799753873
Be 7.3693828468330125 9.752033466937224 12.040661905228735
Be 8.354196463744435 11.637837275524792 12.272389738622453
Be 12.100972133490199 7.995812460238602 12.196704687590909
Be 10.544512629887366 11.437308312751725 12.341798791927003
Be 10.266249414380857 7.956159109013823 13.161290004172153
Be 9.26265031588242 9.849733447822219 12.970203538721146
Be 11.333847815485612 9.684028614165955 13.235507403602782
