5
Energy = -5.04893129 eV
Be 9.156448296331419 8.142438944545436 8.075015644022423
Be 7.526056443209004 8.978071934118642 9.061409022996358
Be 7.709976733957829 10.393288740250213 10.54614385739688
Be 9.31696046552203 9.617877216417813 9.533275155547358
Be 10.362877787456743 6.944848820661693 6.8607980794886485
