55
Energy = -163.31238948 eV
Be 13.168859101899677 14.012741330809282 9.258401767283363
Be 10.430661270424542 12.530716646644759 7.783813872915214
Be 12.222544096896609 13.368249350514882 7.396577754634532
Be 13.661193818662046 10.489815733243043 8.966367893625424
Be 11.692308954859216 13.653047703839915 10.810860658091812
Be 11.095907754397523 14.29220489558359 8.8452232944496
Be 12.126382018323602 11.10119570736078 7.474035216191033
Be 10.393130755941428 10.642413863584263 8.614691369268836
Be 10.07525009901502 12.720433137770232 9.805405183009492
Be 12.008729276694195 9.239691285272642 8.742425245196166
Be 8.657797020683917 11.684831597122662 8.890425312847379
Be 13.822216944788181 12.292250380315966 7.8708181108522
Be 14.373341467884462 12.346283927741458 9.805837187126032
Be 11.613838317779113 7.80440384568037 10.516538646906158
Be 13.516780490935455 8.745130939825199 10.200805116707272
Be 9.333414291465967 14.603360253518632 10.146931560609747
Be 12.032778710082185 12.047061619777779 9.455414760315092
Be 10.089173956476994 8.756130781090993 9.313429796985272
Be 10.867579292068852 11.75395741873498 11.430250924070323
Be 8.40862521896444 12.448747043336494 10.971664743615127
Be 15.09937896556092 8.513674134773746 11.603908352710073
Be 9.194477425501889 10.435448559430073 10.447419825775167
Be 9.6878551668566 8.468112268861535 11.26738201739332
Be 11.542004356202618 9.95044774953647 10.794565849699431
Be 15.2336229299889 12.100011796872213 11.665270364992377
Be 14.935284884107189 10.340616677914523 10.624347605348742
Be 13.678102618129154 13.551999487887377 11.424928090291651
Be 7.984149552587582 10.822243558160228 12.240444382325114
Be 13.906794804279562 12.014101970236531 13.211358922485365
Be 13.203701447004386 7.567957817607581 12.116718597184766
Be 11.380674866066245 8.532209769900293 12.534055736891414
Be 11.92419749518757 10.725211207757186 13.013913240072128
Be 9.985971399247417 13.505579915241372 12.003984422273547
Be 13.046804894085197 11.473185846150832 11.255103330800608
Be 8.125455417884213 14.42015430928408 11.888407559916963
Be 13.385314151523612 9.631614511750232 12.203298629291782
Be 9.881755767393262 10.101605591523029 12.472560541579153
Be 11.19424401646024 15.641365257159546 10.559251960485069
Be 15.32224667983622 10.368839518824116 12.765403190412146
Be 9.616080157728845 15.794243941185801 11.862499136526523
Be 8.71659385717106 10.9242554040327 14.279850971736245
Be 8.14527098717395 12.700700828616421 13.12535049368366
Be 9.033444564756143 12.927610713281167 14.975307656754461
Be 12.564706448117331 8.701208573570197 14.123208808557164
Be 11.318964755087363 15.014704701730588 12.693839697849375
Be 14.549592292522528 8.489373843470172 13.560649308646815
Be 10.549920007985074 9.661003104064772 14.383003273241044
Be 10.32059336047426 11.950774805071605 13.458303983593868
Be 13.868234046033875 10.337636639026908 14.393394101161864
Be 12.052894663733001 13.016243561901533 12.840967572887266
Be 9.218940487655127 14.572730287930924 13.675181276687715
Be 10.457363857062573 11.494981863869823 15.513925215697627
Be 12.137699759574417 10.151835839824132 15.558675398903073
Be 12.350161703861389 12.010870174131854 14.714335557104427
Be 10.908258051881376 13.666047004617884 14.560535209303302
