54
Energy = -161.07773904 eV
Be 9.43380874863396 11.165890490752476 7.245819454078375
Be 13.387485161696631 11.353024068601657 8.668745915141901
Be 11.534706107823231 11.008197077662699 7.698066086403917
Be 10.450282596532814 9.248255476510701 8.038906351730402
Be 11.83177434716746 9.937041663129401 9.75712657444561
Be 10.124295195664473 12.856529067527033 8.327517142347231
Be 12.713153431711977 9.179666186369897 8.189788065399014
Be 8.907930728230637 14.202025187017354 9.78782976320357
Be 12.149277674698302 13.003909265099491 7.960861142400638
Be 8.275291877219656 12.098430533335256 8.900556403995736
Be 8.369142299485828 9.98365005877537 8.478744623964657
Be 14.976311272106638 11.920884334305587 10.207657315117759
Be 11.198430386598654 7.822381569977885 9.62226393751383
Be 14.120651013257884 9.879307748437471 9.917130855579318
Be 11.630299955200114 12.021671380084742 9.646491835334354
Be 9.522013545493955 9.047138977050627 10.029107087917769
Be 13.155909370119609 8.11748020115326 10.095331753352323
Be 10.02601458084696 10.900299647809941 9.254884829885752
Be 10.229092162096515 14.418540517132515 11.614200150837739
Be 11.185962511672734 14.114373869042868 9.705118824089068
Be 9.716724422649339 12.504647320188012 10.41873270277712
Be 12.558453706249251 9.68090159060902 11.768656069861736
Be 7.650768547808732 12.695008431350667 10.990009658535318
Be 12.545574359086652 14.490889628852731 11.486833565869967
Be 14.494312530793689 13.681233015909505 11.308378160394234
Be 8.345728724615409 10.730274193737834 10.59606478540878
Be 14.264374170722823 8.414955486129049 11.816993398955335
Be 8.229544552200135 14.479228420921617 11.83463138809086
Be 12.232382349278005 7.620132008194238 11.877220137851971
Be 7.298977117772742 13.136799899195154 13.036680643488063
Be 13.241602393119594 13.289469911953178 9.800680944765341
Be 11.486490422498813 12.806804184425397 11.518224962471768
Be 7.715287734854163 11.139725733082972 12.614827145790713
Be 13.375707644952822 13.157909230099863 12.970937084011
Be 12.87696193603815 8.843450799114454 13.694518039574092
Be 10.650428234185275 10.738488714009259 11.292896066128675
Be 9.634969844451097 12.324743979061457 12.479470805304128
Be 15.131253693353422 10.258479134018277 11.666584680141549
Be 13.127474631813886 11.601019434844867 11.159280490595453
Be 9.20081405471591 13.96467752546342 13.719597714013025
Be 14.840250139543075 9.431307182815887 13.563045401690829
Be 11.598875537378118 11.266110810449348 13.034285469679887
Be 11.361662045542788 13.596292586406213 13.436939969405957
Be 10.28008015500306 7.887600276487859 11.500980844646627
Be 8.942599496861769 9.378039417065809 12.119195428346831
Be 13.745315698355348 11.086964168419549 13.26073411001293
Be 10.331015136197959 12.2506659182304 14.619051866365437
Be 10.825427986793008 8.970383429056035 13.157595784115486
Be 13.437666128709436 10.214418718225433 15.078642414965316
Be 9.505798292669798 10.474736724632676 13.817882626156086
Be 15.231219556822946 12.185386688719358 12.366977174910309
Be 12.452261267944383 12.174826460869989 14.739675894006796
Be 8.301246569773285 12.125223632286152 14.40021672331849
Be 11.360337239317147 10.33392731372848 14.920829023939305
