52
Energy = -154.52406653 eV
Be 5.784458757078334 9.14338263315904 10.658011816063198
Be 8.908772179928514 7.887607404201483 9.297658330058534
Be 5.21616248058327 10.099572214145747 5.035802586568466
Be 8.717248336312485 11.188246851215176 5.231910633976008
Be 7.053684196569557 8.82259559537846 7.899438674429795
Be 6.388866569684031 5.0364531897261156 7.514563377909274
Be 8.343052592091926 4.4016409508403465 7.682035340376808
Be 9.519086327722446 9.70034567117412 10.71535753334556
Be 11.217594673687227 9.858197213505962 7.505078197445298
Be 7.250012188582194 9.409483307711488 5.965233430968447
Be 10.581019304312623 7.890164135921771 7.823388890261538
Be 10.465590921325182 6.351793658359448 6.334199166076827
Be 7.679464861726851 9.655724465179508 9.924201333727716
Be 10.740115024944428 10.666613247962822 5.576939163406029
Be 9.443804856696572 6.112478627629363 8.072349699614822
Be 9.328246285128886 9.29470186098816 4.418730646555765
Be 5.82609924485682 8.318194533113568 4.588710128903652
Be 6.6776370167865995 11.447166021667721 5.504522596239419
Be 7.714664382876835 11.052595159065056 7.350216703063864
Be 6.71225429439612 4.861992713100822 11.340543683722881
Be 4.957567544783631 9.101201018887275 8.707931440048258
Be 7.261202736875117 10.000932255333781 3.998544282866636
Be 6.307288509739099 6.879230186454714 11.451124316679051
Be 8.55657123297824 4.16226455899047 11.226416594678367
Be 6.844150115191074 7.72482702540401 9.656373375575352
Be 10.728100505830685 6.5852743717135125 9.58259858637502
Be 10.071119540994133 5.553773643188271 11.217625574185307
Be 9.30385179178996 9.666673743903836 6.453940260279761
Be 7.485647058048151 6.638355460226748 8.05965381471206
Be 5.644110474948205 10.458163006357903 7.052045131863871
Be 9.629569918457948 4.55244726759606 9.441752714663403
Be 9.825531399497772 11.517694048161351 7.392005565994521
Be 9.190589749652311 9.640246947776252 8.407508909353128
Be 10.935634670789245 8.45941967879715 5.81666152894026
Be 5.987712024333439 5.732922804219071 9.544553954419216
Be 8.321530414399884 5.868683815077518 6.0838482665966644
Be 7.85992688947818 7.8224130179575555 4.677148495480851
Be 6.58406891031767 7.190174758754378 6.279800921800486
Be 8.564195563349967 11.44336784110443 9.26882863257652
Be 10.60204255395795 10.915394508829621 9.282066541711485
Be 6.310161394521086 10.753414614231481 8.988224989151881
Be 7.980506200415472 8.193682810317394 11.383714582713937
Be 4.788284988091149 7.4171187350828465 10.022457945013496
Be 8.276946894606885 6.202604168070335 12.162754368929816
Be 4.957548319387394 8.589154529407415 6.500771687196265
Be 7.370143460879826 4.057270555667304 9.44905830607675
Be 8.714266225056436 7.790540584823618 6.772027063744177
Be 8.183347679534304 6.122909216704853 10.002981641591377
Be 10.98559291714671 8.800721780073285 9.62438713510398
Be 9.769527875034646 7.190268017096236 4.67209290103523
Be 9.98439285300216 7.639035703802423 11.30890838524901
Be 5.4165890239040975 7.096423804227208 8.038854084965406
