50
Energy = -148.38660842 eV
Be 10.881177309035529 13.51494276586276 15.486583722782129
Be 9.90567213931264 9.96355544254065 8.497998831707378
Be 12.739358999238116 14.715155721744248 12.667636924528678
Be 11.167735782805122 11.699793718341253 8.159669636706177
Be 10.374341811655515 11.442736985067834 15.66269220597022
Be 10.976254252447674 13.85645596690082 13.427377116282969
Be 12.70594840950721 14.70029619968924 10.465428215100637
Be 11.733858848902889 10.429860741477532 12.404488796829842
Be 13.240993756857256 11.79398123042113 8.386391880077543
Be 9.376030108033914 11.939017013271252 9.19846448760136
Be 10.873196558137398 10.579724380723926 10.351721114014701
Be 14.901693359638273 12.154024522867045 11.363045738121833
Be 12.347420737346058 13.838084907742187 8.429935587556495
Be 8.278697294570176 10.348717798179232 9.781344440111956
Be 11.009177014538036 9.677229401736323 14.499926477323068
Be 14.279271518045567 13.022662233081892 13.278452773327071
Be 9.477913444135341 8.815179378077902 10.453320569526392
Be 12.472060105720377 12.61569129678701 12.005601214287593
Be 12.798052533554333 13.627762012398009 14.617912778823682
Be 10.918339755807526 15.006931917975626 9.50858773514639
Be 14.374924408341103 14.107039579305734 11.513102630745758
Be 13.138916299050514 8.76375696011333 9.958866844926927
Be 10.927750208862655 14.445920196482287 11.4823658309213
Be 8.584083597316763 10.321452862936368 11.80460540302628
Be 9.414738165893501 12.769102464009993 14.2451287614081
Be 13.115946603933612 9.739656215581652 14.08139211884085
Be 14.041649931918661 10.966448403110581 12.742658207296808
Be 11.875467997829938 8.344392037518523 13.206972763470526
Be 11.468497505622901 8.510455014332976 11.197861581825412
Be 13.031869339240512 11.009173841497168 10.606469701823649
Be 10.242307436588776 13.600517438686648 8.276064091513257
Be 12.361872762007305 12.418865537688713 16.277763763520824
Be 8.163553166083437 12.229869962338212 10.872556447123634
Be 14.273199630617386 9.95173636951075 8.72610569231905
Be 14.915641154221342 10.045958837163825 10.76269953727576
Be 9.518118847381386 10.767749844574375 13.677131510247179
Be 9.371431811973935 13.775217618076343 10.239896072853785
Be 11.133951754099304 8.457761413110479 9.211383198133225
Be 12.209888893821057 9.943156089477041 8.356803021643143
Be 12.301087968199532 10.48436679864565 15.842310970792303
Be 9.969296281835167 9.003702232397053 12.591778351642946
Be 10.31275922113125 12.17227689315505 11.995808639919193
Be 13.923627719082425 13.238877994514208 9.72734948414973
Be 13.406119743330768 9.0993679138406 11.977477442072628
Be 9.019658084779186 13.82806964716184 12.383481581240538
Be 15.132627704395105 11.634854860679592 9.405446318483037
Be 11.639057207372213 11.779756449170945 13.9713858068851
Be 8.072611296492635 12.049061415230584 12.880117259572199
Be 13.724985492186578 11.641730626686092 14.840444888525548
Be 11.46932803862027 12.70803416929226 10.062950494519898
