54
Energy = -159.58199852 eV
Be 13.925412682394738 10.392645578540968 12.007874183695083
Be 14.317463418349499 10.668278071365846 10.048222266901654
Be 13.887177079135604 8.652440773226765 10.714972433495333
Be 13.067988118214883 12.15471226911615 11.08255522753351
Be 12.48134589573574 8.942501492044226 12.577772570025953
Be 12.047237894292133 11.064001830881493 12.735159773009856
Be 12.824575805215261 7.278773407324816 9.252886560651778
Be 12.61001152426339 7.204253795833762 11.378470959812324
Be 13.215978078699063 9.406079347048511 8.823705752036565
Be 12.261721361321296 10.098898222646675 10.708118637959911
Be 12.885037446678275 11.695358132125612 8.966110208133749
Be 11.326332605591812 12.842042347576193 12.067133970083018
Be 11.033190442348939 7.426206630028147 12.673576732041125
Be 11.263999555471466 8.495527852924663 9.564098358675123
Be 10.431455925821632 8.845490088403736 11.371023125538606
Be 10.581105730888456 9.686600759151068 13.204401221140078
Be 11.350819819531134 12.697897817875486 10.00529183289852
Be 11.89885792310396 8.447476077138655 7.477678592315943
Be 10.414398627520713 11.017754506738138 11.160548316502789
Be 12.529444105787247 10.532982674388148 7.227916384822336
Be 10.720865001940403 6.699816526286726 10.723536921036093
Be 9.741737823382405 11.698806186395549 12.976557588990685
Be 11.110283221013038 10.554650320212124 8.942108549656416
Be 10.645167222426435 6.878134972999151 8.36257842505636
Be 9.400188352730204 12.996102169864683 11.266935455906813
Be 9.464864373288204 9.781797378046106 9.841383561984673
Be 8.913271514397193 7.54799978519889 11.905879399850901
Be 9.181281229014028 7.659790419731701 9.760537517144655
Be 9.491048256234215 12.112149929757852 9.404766796123637
Be 9.896446867540323 8.802868669344836 8.034567202186546
Be 7.704889572263784 11.875427815996943 11.753006114899353
Be 7.303143291032122 6.840868352139035 10.6924385224586
Be 8.665049790797958 9.934502349364816 12.096473264892056
Be 7.707030212053691 8.964001884642045 10.44787536389186
Be 10.691318554496398 10.043252658007917 6.457372481467047
Be 6.980539695704612 8.18319767897463 12.247722406251178
Be 10.829759945153603 12.051188453209852 7.517932047008338
Be 9.66276094241209 7.604607768922302 6.490502940087962
Be 9.215754912325478 10.705760103575805 7.978898984564937
Be 7.940402294509359 9.133269949712725 8.39630105003395
Be 8.411962418004839 6.836661020450276 8.059207704385093
Be 7.760459488489337 10.92546779243036 9.537042131897891
Be 7.573163927035953 13.014535407661088 9.912388982988013
Be 8.693444151494557 9.508993270651668 6.35487485441821
Be 5.933716300173653 11.750653261321808 10.496891816664318
Be 5.662178022222165 8.356102070825925 10.628112359030085
Be 6.594539628831836 7.644812717946733 8.88603929920533
Be 6.4358249033706505 10.122935039878971 11.564690734794636
Be 9.123016264617986 11.531603059828955 6.155023424701508
Be 8.177479861986209 12.528666720145228 7.811271791006947
Be 6.008040126585207 9.887977625488872 9.153105330199649
Be 7.421005785378445 8.024168608326638 6.756716791046354
Be 6.278297702590084 12.03943452380768 8.483735854955107
Be 7.1837555914640765 10.688729717931226 7.155046703913741
