50
Energy = -145.86709983 eV
Be 7.722652288685487 7.998918065275916 5.1597275421103355
Be 9.029748335488039 6.294897897546045 5.448709355364915
Be 10.144601654327424 8.067289586629238 5.335782621387496
Be 9.072357547515683 9.75890370992618 5.856718039728948
Be 11.155876255219498 9.890650609112917 6.1196673805711415
Be 5.816037878721113 7.716099691456262 6.534542426209403
Be 7.1140978529530425 6.246296057071394 6.1906406671334535
Be 7.747332078400736 11.419665386039282 6.1727574940284775
Be 8.709371433041763 7.801379752023311 6.936702681594247
Be 7.027729599790289 9.460072379250935 6.624573763094268
Be 12.066755730508053 7.872492237258841 6.263845852215108
Be 10.572378694521936 6.465745062504035 6.744679292005111
Be 9.771822965107953 11.564213182302591 6.859489802967506
Be 6.258362722754293 11.305709505861003 7.694903922018464
Be 4.960337753101208 7.568178711356363 8.510406277995799
Be 10.503469824609068 8.476718727282552 7.443304898470968
Be 12.493043434774851 9.188122633601674 7.871161821957231
Be 7.11774250256343 7.729282562445299 8.287197018367408
Be 8.557326065549308 5.711622273069706 7.610715029617939
Be 7.94859790390973 12.51675395440787 7.87480020402211
Be 5.177124189577096 9.494246122333482 7.548107376019426
Be 6.369799258284018 5.880974903962869 8.102473873413098
Be 8.430978503627204 10.464423261871362 7.9168624300735395
Be 9.973994095505553 6.807523413930959 8.804465502273302
Be 12.0476747597345 7.057996590186854 8.208762361092841
Be 11.045885507880838 8.569064940898993 9.34376426307553
Be 6.06085063820167 6.7303533317151985 10.127431663755731
Be 6.830565648885471 9.641944010942076 9.008606240156295
Be 3.838697723312567 9.26716024500436 9.0016899287345
Be 10.78793582305541 10.445796212938607 8.299979951106355
Be 13.11581089401435 8.170427625859883 9.672314791237062
Be 9.372735283997727 11.71861005140483 9.240862444513196
Be 8.94348382960449 8.758927908527223 8.918313160394195
Be 5.17909551525695 10.759225705710302 9.504528923194368
Be 7.160252438173716 11.663218415069727 9.621750387777363
Be 12.400265061884463 10.102555754969337 9.863125552367054
Be 5.211954344497673 8.674925952094148 10.370646873049134
Be 8.418939568281047 10.201367081872338 10.474892567785277
Be 7.985294448073215 6.221006172892863 9.594579229606417
Be 7.490757658793352 8.231914042018198 10.35093965403727
Be 9.635360610288839 8.25780575940561 10.819613481992532
Be 11.735364862191098 8.684683537213612 11.327336240872688
Be 11.579467201288873 6.801852859369631 10.408910871882364
Be 8.195224142012433 6.818793872662758 11.72162907986579
Be 6.494869972224836 10.080771977793425 11.209375484757853
Be 10.450534548796098 10.246536482255474 10.510848898681393
Be 9.728486951220379 5.760349741810281 10.626389426597827
Be 6.383197625074593 8.087624927126601 12.024908042086253
Be 8.23813093668827 8.915266283972262 12.206483316110573
Be 10.41436129794915 6.918376689686185 12.11681775255049
