53
Energy = -157.36064183 eV
Be 11.159700582577047 7.929979564891652 6.018096813468003
Be 9.994479456973982 11.088194774968807 5.949966424600856
Be 11.842114859677348 9.991089706471355 6.028294008944246
Be 9.782843099903792 9.230885205239005 5.367928288769126
Be 9.136771920175232 7.921123481381101 6.7893414795288765
Be 8.278386787017856 10.006386452942289 6.792992546011674
Be 12.544966239085408 8.430274484484068 7.4335950829632775
Be 10.923287666271 7.211283944408701 8.00036831904576
Be 12.864474036713707 10.539318711430873 7.792348936172291
Be 10.448698316491148 9.435748961376719 7.582215340502483
Be 11.255341091341354 11.722399014804635 7.375479013150839
Be 9.079793484433141 12.024122157565689 7.541938965617486
Be 7.174731499725135 7.9084071876634825 7.626230565795662
Be 6.467346804196132 9.766922802902627 8.21020865667775
Be 10.415531669724995 6.210387000448856 9.823914222368298
Be 8.529090670648662 9.207657520804762 8.67763266314787
Be 12.271901836206606 7.343752261445782 9.556185347080715
Be 12.065741231561457 9.400567861775277 9.266026960798174
Be 7.778739315868004 11.221864912576763 8.94608795724827
Be 13.315572611972687 10.575403067189361 10.490760469398323
Be 8.837940567139078 6.988269065991592 8.660064837934362
Be 10.470694540854746 13.08239790110091 8.78492299873688
Be 10.18344190492658 8.493610822774402 9.749183280705099
Be 10.103710633679766 10.754443955996317 9.108044003521112
Be 11.993678647575472 11.71396163467027 9.417482624894415
Be 8.485924497215358 13.102918030816003 9.50720198395919
Be 8.403237087710645 5.39035616751355 10.019917295347046
Be 11.370310803570804 7.213108822633946 11.416758309326068
Be 6.850948787645588 6.276241106565228 9.014765648882086
Be 12.87091576017032 10.350160186129308 12.455905274509274
Be 6.125407710165306 8.109695181561547 9.46112164881161
Be 8.127765886943333 8.142680783651778 10.389856704822101
Be 12.225002747476463 12.05774673571998 11.566227527599226
Be 10.099017882027363 12.000317708437173 10.76265917586633
Be 11.061881036427671 10.116349844977217 11.019717801481603
Be 12.82491921827239 8.633281120188126 11.268360187734975
Be 7.502473325564875 11.81621807129209 10.9722386838687
Be 6.735043325402178 9.980410588097927 10.253058004508064
Be 11.715286940515847 13.657452086017653 10.365006248406447
Be 8.522407957622038 13.547182216594939 11.54143822482463
Be 9.768171400045011 8.437286849447933 11.819078288815398
Be 8.927489553924511 10.129647887238894 10.76482853025272
Be 9.87422727609476 14.418463746646957 10.374619264798783
Be 10.955254968675137 11.198715762293919 12.96197518732962
Be 9.193848903241358 6.518221065787428 11.458556177589049
Be 6.960381010771169 6.494590155145527 11.08092321719181
Be 6.182884953205884 8.460327445343191 11.519759589033983
Be 10.532497801614252 13.411120758144408 12.231413800876783
Be 11.376152395793325 9.006235963845699 12.918359057776486
Be 8.903757628077921 11.790503718694417 12.615428054495107
Be 7.902965576460973 8.00361228827242 12.56702504582189
Be 9.332999923474455 9.85044789649186 13.161841812355457
Be 7.386414245145794 10.066482759521392 12.300248206999147
