51
Energy = -151.07175047 eV
Be 7.584153464402269 11.869244878394465 11.288856984538153
Be 9.541955783400297 11.553190934537644 12.439761795591446
Be 9.099852354266975 13.206906530591942 11.305774101435409
Be 8.15399751733376 10.040864560652114 12.147981619969682
Be 6.399599326125077 10.182353862318221 11.087521761712814
Be 11.720473208940614 10.848098112684287 12.608412345235708
Be 11.07878369168736 12.585611741365598 11.280204754353324
Be 9.974703389576415 9.517605282462878 13.046484530164019
Be 10.186457917650046 13.762971479523452 9.687072758412713
Be 8.149817441397278 12.88052109864625 9.459909028868271
Be 8.52294107213624 10.322357577071818 9.94201805281875
Be 8.368208408863044 8.171297800006915 12.980118214263168
Be 7.0749332571689 8.286446825065646 11.321949953135526
Be 6.587814079189856 11.28198947023708 9.349632314688423
Be 12.125798742635244 12.981496862519048 9.445669141401835
Be 10.55630439729353 10.234633324402335 11.010698994504896
Be 12.644006681931229 11.361858587266141 10.715306226746312
Be 10.390493685560264 11.475977447629116 9.107914209895064
Be 11.833313876312753 8.677359858947 13.145430478622679
Be 8.369595998215884 6.5339818012068855 11.690993633335175
Be 9.222921651698792 8.407025099551515 10.97155090002559
Be 11.273225573124803 14.145604100554248 7.964052671347009
Be 6.1285340085433155 8.940767492823989 9.485021107778849
Be 10.279575567978933 7.3606170625045415 12.764409347483022
Be 9.468431240491563 13.217309410076384 7.774398098097759
Be 11.507416940625292 12.255345833166482 7.330125878286404
Be 6.946201464771107 6.909911446914208 9.733370158376639
Be 6.601887228446999 7.762495216026191 7.817582972257864
Be 12.398499218641506 7.02011421426614 11.880490041902878
Be 12.901805131447258 9.395614297086032 11.594378657087463
Be 8.39780462694991 8.368270085827907 8.928983647369954
Be 6.887426691982518 9.844584181172207 7.713581750989384
Be 10.395936975672695 6.226086190285992 11.053835131278904
Be 11.25691409100195 8.21920071025891 10.678364782687513
Be 9.088536423698363 10.05895083491031 7.853206188897417
Be 7.882185852088094 11.79683765814971 7.736271829292327
Be 10.260036434477295 9.246019627997699 9.235970935360616
Be 12.326630330400782 9.662409748654884 9.57486291480369
Be 9.751652185428425 11.591236368294178 6.496283814515783
Be 8.725992969031308 5.933534693067268 9.78212863932691
Be 12.833536575821748 11.30691884384514 8.53811401579697
Be 8.470361039352023 6.683354311249481 7.77989817940714
Be 8.166541486700146 8.423362289728896 6.583249726210768
Be 13.31671781884313 7.87625734207903 10.146184367655788
Be 12.099198750698855 6.356918676552626 9.822726043830743
Be 8.025546600116769 10.466024013111758 6.087777136686567
Be 10.276781893779614 6.96018758075622 9.020374346285493
Be 10.111961578565483 8.15803134829313 7.35031975662849
Be 9.872893657536798 9.57323337860857 5.8890615454474196
Be 11.987228215736957 8.031598034683928 8.40361150755521
Be 11.330925783340593 10.053622960333323 7.487131972178589
