54
Energy = -159.59883014 eV
Be 11.658877493077448 11.177118360627443 7.700147971794257
Be 9.591899958751887 11.636489289074952 7.834652481594087
Be 8.840674245952489 13.57971990783184 8.297902008769897
Be 13.717319166299578 10.703061532701584 8.444096407198764
Be 8.62458822990914 12.051454546934206 9.618568822204876
Be 10.872605499058356 13.272865324287938 7.91459108434049
Be 12.841539849947438 12.592046870909014 8.603851228945057
Be 12.00149912769164 9.620097453037816 9.11785044471604
Be 14.001097681281047 9.104188890479305 9.892869193091666
Be 10.009994224564396 14.89588043946365 9.290501051384355
Be 13.669834152870488 13.547349714011265 10.466397203383107
Be 11.074292854436127 11.871601402679106 9.740524252844514
Be 9.777077494342738 10.18348508469474 9.437532786611953
Be 10.386483382025995 8.305125410474394 10.015612492656786
Be 8.24527149966594 14.029868226175164 10.31275318723459
Be 11.314572452405285 15.509306950027836 10.879329634906906
Be 11.84228210325147 13.989017830989336 9.676123626822239
Be 15.680186739480286 9.02061952933014 11.268365289159451
Be 15.376888690392141 10.68843846080348 9.96587085734835
Be 10.168159538981017 13.36899294161868 11.273592000608183
Be 9.332740371258945 15.572658252507516 11.192198069548303
Be 11.292329055629219 10.016778056547341 11.057283269751375
Be 12.3487776993685 8.064456533640882 10.80985957766105
Be 14.275251615657533 7.658957749870261 11.473062526782384
Be 13.215353653559037 11.276469422411367 10.440273357710067
Be 14.766109286766795 12.437655138632076 9.109926564644802
Be 7.956514820907917 10.33126606775883 10.623110897982219
Be 15.324282049269597 12.477623346303117 11.087947669628093
Be 14.669767778801555 8.813762919815883 13.193001326673954
Be 9.344218134841604 9.177094565840587 11.617880440286559
Be 11.708769602595773 11.88881413627631 11.851381700594171
Be 15.126018750574236 10.749129500313435 12.12076153990695
Be 10.72612911707839 7.661511455333462 11.984230735972467
Be 9.645008252603157 11.29964688373751 11.24075048744311
Be 7.8147054667981894 12.34016422220693 11.618635249906395
Be 13.659495386490818 12.313826919849303 12.493509296938383
Be 13.095948397174931 9.983798268239159 12.157625529028996
Be 12.288188634509511 14.038895499049882 11.911714995610428
Be 10.570131994650632 15.000864039005327 12.787397916721579
Be 8.35077804197529 12.35508989733619 13.661069810036041
Be 8.096867230307833 10.490480850850524 12.747606081271027
Be 8.458596974563003 14.182598844633455 12.493574089973466
Be 12.77002356567811 7.803951565319539 12.849891678974215
Be 11.284378987491712 9.227427574360059 13.099098253983996
Be 12.100441262431609 11.17564003157355 14.017732147779878
Be 14.241805001957738 10.776050572975047 13.95515261697407
Be 12.941826901308275 9.262129980575411 14.383879029591435
Be 11.341418304743573 13.116609158742266 13.522904974786808
Be 9.260007557332107 8.939126190182979 13.673352515797365
Be 8.756975645778843 10.588730647664494 14.791656981830714
Be 10.200347965576507 11.056522513094585 13.14240856194726
Be 9.552580688047586 13.923100620998575 14.266475346362082
Be 10.691260587768094 9.92881773916361 14.985653052250173
Be 10.221764920344178 12.047580757263672 15.01181976826032
