53
Energy = -157.65302068 eV
Be 8.825436309753483 9.756630717262329 13.320020333933146
Be 9.433316766411242 5.883418026898764 11.025138517478815
Be 7.358027472670465 6.600589209731687 11.630834619352926
Be 8.920143485714588 7.941277755178952 11.935984029171854
Be 7.115688817365645 9.029385566804836 12.531585348794135
Be 10.440878782381136 9.356270607108819 12.070948655618835
Be 10.871397701896234 7.571356004505686 11.008693092360975
Be 9.80721877427436 11.44281327087206 12.703531727342774
Be 12.006450087884234 9.409381657826378 10.643468274404587
Be 7.6327755541581155 5.103773113984836 10.25074929409458
Be 7.633404535986863 11.355932885113516 12.428383075507044
Be 11.857204321161515 10.897205420460288 12.328500145788807
Be 9.2843943338974 5.072054212619347 9.066759249573499
Be 8.5613405215907 7.285417780213749 9.735379490307382
Be 10.602694982215535 6.74480107156821 9.11486716357381
Be 8.53680193291209 10.121682569999514 11.067906408336894
Be 7.029590646127299 8.364817703173244 10.6334697343004
Be 6.338668346631349 6.577598148487969 9.765667429310612
Be 6.309996074898858 10.286125945980775 11.102065468904312
Be 12.520872624120527 11.50122021769933 10.384711847580878
Be 12.565203699482709 7.682114942120564 9.486603685010257
Be 13.171753266228697 9.769522857188944 9.006989367136022
Be 11.177953587650254 12.673254093965031 11.608808458805903
Be 10.466041392990508 10.916120665175491 10.725320887329737
Be 9.795873581190914 9.107118162352698 9.749393846023668
Be 7.663922260211885 6.014759744345849 8.117909545215282
Be 11.330785940174215 8.7318133024485 8.390361994100914
Be 9.05983433044669 12.538029771265423 11.036805198265299
Be 6.8508002421332534 7.992753248414471 8.323920204489788
Be 11.321741219615568 10.747812153763176 8.918729373597936
Be 10.638661851030108 12.685833579807987 9.580572844503456
Be 5.385980854996386 8.920167766178459 9.60817043325765
Be 9.283394512348814 8.078260776313991 7.917624731173725
Be 13.053346816164908 8.575392934593504 7.332875171951916
Be 11.42852713449717 7.067702514708829 7.152719952810065
Be 7.499160370025979 9.773693756744905 9.259283716525896
Be 9.554262656557292 6.039115536785046 7.255719689469701
Be 9.958445452987705 7.398832422517188 5.733482030596342
Be 9.150789740738947 11.058434215324974 9.115795554075808
Be 7.286509683908143 11.901266185427135 10.159763774125231
Be 10.016703204340995 9.985413358496674 7.478573252999283
Be 7.9329105521599725 7.563925675964593 6.459007894503341
Be 5.517307772168966 10.99616283684481 9.358954034902268
Be 12.29268246459892 10.539026853369737 7.133085289464167
Be 5.837952288311587 9.782909514886459 7.773947803931453
Be 10.513307636350127 12.16431172652653 7.543913094982109
Be 8.730982427071064 12.96008225823445 8.597020245274093
Be 11.429259406754245 8.930669637548297 5.975257282357729
Be 7.814892368345563 9.61560219913565 7.182131632637862
Be 7.141921587215232 11.523951210050727 8.05751758336906
Be 9.186752556393715 9.28716988387213 5.722915848136295
Be 10.701111357733755 10.95226601714368 5.818307447609481
Be 8.73047798578981 11.480990906822598 6.707841721452086
