55
Energy = -163.78647961 eV
Be 11.592976457547822 13.192070433432558 13.398699913876905
Be 13.232211929090894 11.964489190722444 16.177268864308086
Be 12.932786779751416 13.792162965108542 15.195268534010307
Be 10.970536983310481 15.191677703474378 11.9569704946945
Be 11.233668707956536 12.613421097829466 15.48696063983045
Be 11.900165650135017 15.248364161757639 13.831751222619774
Be 13.130272732908198 11.697360453257385 14.034526313623443
Be 13.330887348634363 9.856240708125108 15.347272950415825
Be 12.671017787696657 9.709511478025622 13.353083094848559
Be 8.905806059429027 9.86654583315156 11.865278778886728
Be 14.750983204712897 13.038270401942107 14.789989868539616
Be 15.921394129379184 10.422458204413989 11.659156224702075
Be 10.306599173700425 14.156395080396976 10.130805694109956
Be 11.212072272377808 11.75210852339851 10.172178886305474
Be 8.524361005398632 13.05575861538769 10.391160849182016
Be 10.01421987786508 12.252281140320699 12.030119113307334
Be 8.27084907275316 11.149061815416264 13.531085963121786
Be 12.259443774126005 15.174867530626225 10.215699041849179
Be 12.031777117881756 13.39918067540934 11.260510443961829
Be 11.924818363849175 13.501770912857515 8.93103557919404
Be 10.847064507211346 9.337612328315055 12.537045218600616
Be 14.788240329693675 9.8169198808075 13.754447622928565
Be 13.005243186447219 15.202852365665606 12.123391403931679
Be 15.444416322809854 12.414557411932266 11.196157382020788
Be 13.602602687136198 12.880234211889883 7.798314888575366
Be 9.6335429736557 10.861712327875683 15.387867253322312
Be 12.051469889460755 11.443281136602469 12.101479752543884
Be 9.794476584629155 14.463523334021724 13.46758476255825
Be 13.401216059806814 11.942504702380138 10.31778369837012
Be 11.221014734752098 9.23297761870048 14.753711559214457
Be 8.965707477180663 14.679587709708624 11.601422783585205
Be 14.04396766244264 14.754984476980633 13.813203199846177
Be 12.043971048009277 11.56475832326386 7.959080285850095
Be 15.133647494467658 13.036394829633736 9.226530337802311
Be 15.75864480784632 11.068833252273322 9.697012643606321
Be 15.543236685516709 11.733629554210486 13.31985210127361
Be 14.035375071262303 10.844370733588459 12.085098265473846
Be 14.107325053131875 10.983462867954755 8.35907166930175
Be 8.123439920909927 13.219217388620216 12.779801669771793
Be 12.385361922616715 9.869020531862867 9.179021358650594
Be 10.543698901820878 9.638872592532199 10.503446564942038
Be 10.972797537706196 11.168115829674669 13.82798569107286
Be 13.88749703278 13.057976149596756 12.579433487133134
Be 13.767130524344234 14.588648725497167 8.895933333683116
Be 9.31117442127552 9.476782925829196 13.897486936008232
Be 7.750884809140608 11.562797196608246 11.595750741680835
Be 9.917095420271465 12.534119729251524 8.738626389539782
Be 9.029272633987699 11.069780743641086 10.062347101649936
Be 14.263922729024221 14.204698450977629 10.841689843749636
Be 9.452381901971396 12.590314402302148 14.256064246471388
Be 14.352380768939275 9.77721579422454 10.167829395715152
Be 10.430355960162656 10.478106101930686 8.619362279640349
Be 12.529458681299504 9.536729745108568 11.200375165335661
Be 11.614952785043881 10.678297728198448 16.133974160030903
Be 14.985140544741043 11.108069473285028 15.317951834730867
