51
Energy = -150.09284083 eV
Be 12.735189890970615 10.34120364434106 6.610209027301596
Be 13.550789510611308 9.898285448143328 9.214436668463433
Be 13.083077155613811 11.823215238468437 8.348128119960865
Be 12.998253680829679 7.822544741790584 9.747193891952172
Be 12.90563271126151 8.475938121631325 7.844295595817673
Be 11.543890027235062 6.833212917361366 7.8256487128052905
Be 11.690794359439538 12.107569719065308 6.890550995019432
Be 12.330172278999683 11.459467174544839 10.282730507578373
Be 11.300549504237935 8.596261428666656 6.595571802607393
Be 11.644358045350208 10.222567648455707 8.313507710143728
Be 11.953592815831403 9.46867755423107 10.493284080532312
Be 11.59512294932357 6.301996741499896 9.85824448321728
Be 11.516821270028078 7.6404693626145095 11.419442256815234
Be 11.12828663046591 12.584003461111829 8.943708311635291
Be 9.557872377874785 7.469029477717837 7.342895042036943
Be 9.82569886272871 11.715765993192143 7.636340500128695
Be 9.854411930574065 8.825198302534998 11.05894420134385
Be 10.866201236214547 8.36463418193284 9.037110165845949
Be 9.786577952961416 9.579349164586292 7.657788182079714
Be 10.816719399992078 10.597820223879735 11.84043546985446
Be 10.623691920981942 10.511611932936523 5.936687699468487
Be 9.630250368315101 6.370490047963245 9.062788856497884
Be 10.119212822996538 10.529286125705195 9.616533926306987
Be 9.217463521525342 8.750153273748777 5.664678663110902
Be 9.965183608361095 6.25010164137984 11.122704859329422
Be 8.742888072541952 8.547474012940366 9.3123171218016
Be 10.584925555124801 12.410294484829123 10.954061587918664
Be 7.938834888993238 8.832827838239051 7.433330537988084
Be 8.43756362579046 10.609699772993963 6.261620112627984
Be 8.96428909272153 11.608901691545393 12.095297158159878
Be 8.042457731581313 6.621394946136192 10.483614311116838
Be 8.962686582596529 7.424275050733918 12.487353073768796
Be 8.817890416844815 12.262325026963389 9.72000738801823
Be 7.680682753333142 7.1998472361630235 6.243582542224733
Be 7.454191463244541 6.983972320824926 8.464519183537435
Be 8.229941909724632 10.65569046024463 8.391228979351233
Be 8.978791682625387 9.588785930952485 12.806213884625777
Be 8.259432813378217 10.361721031537304 10.524265633012131
Be 7.609954301347508 8.646396123264637 11.18167267765206
Be 7.046571582839933 9.057577266812363 5.602860646551778
Be 6.6689847097528085 9.237201410899162 9.073861265570807
Be 7.058821121965313 11.99408655009696 11.12660002784056
Be 6.136672564925184 7.542763802994011 10.176008740695556
Be 6.451744379485915 10.25042346305418 7.258269486933836
Be 6.901692615727961 6.884182789147152 12.225117310146207
Be 6.058521080251845 8.068374210869246 7.302075071468688
Be 6.618652846640566 11.45334551632759 9.217645944772917
Be 7.404923254990138 8.45987937918742 13.455991856346348
Be 7.100445980964893 10.42125231307692 12.517352617714524
Be 5.963107231412217 10.160272717903359 10.80392673466657
Be 5.757777697496382 8.6190649705773 12.232057104898423
