52
Energy = -153.73811565 eV
Be 12.494123683920884 11.332976415687686 10.32701340030608
Be 11.516195148717506 12.574369459373692 11.709370101875857
Be 12.870015358066789 9.22052652612368 10.596614811525644
Be 11.928512243143109 10.512828704455947 12.299298240423779
Be 11.81751673042049 13.461101047049503 9.792396994166864
Be 12.835278389173219 12.080183848455947 8.471541995822736
Be 12.187684450875613 8.508417140320956 12.523033571706714
Be 9.87218447421362 13.192389095099612 10.65953891300749
Be 10.440251905817368 10.981341683027884 10.92224940783067
Be 11.109991002209636 9.982347893163881 9.161549723380704
Be 9.868287498414789 11.492930248959608 12.83659655130054
Be 11.53387783167643 13.354242817253668 7.556269510728167
Be 12.933008817153384 9.974033572971493 8.43966261808648
Be 9.955093327259554 13.93718035370774 8.646137298624119
Be 12.184937065697813 7.175119145856335 10.956489505262104
Be 11.471248392538422 11.135224455132136 7.156733117847363
Be 10.246721296638746 9.370846393493371 13.017661729923132
Be 10.611650048536415 11.914025836706797 9.053967643740748
Be 8.449919027185144 11.796830087030784 11.336701827649387
Be 10.454775142125925 7.282138376866003 12.241636819349628
Be 9.467894874219448 10.756967746115 7.775592985883221
Be 11.844801615796353 8.002156429022548 9.053685424073292
Be 10.80323845149549 8.820878085133717 10.912303889589321
Be 9.668448875999415 12.573254777005374 7.02364623795041
Be 11.036422098837864 9.021404338989989 7.277550572490963
Be 9.019444356412155 10.400827909319023 9.623206514189432
Be 9.781475679916403 8.408883742419615 9.211343926713585
Be 9.709801865622033 10.143061567670548 5.8745810329690755
Be 8.881956051341364 9.474397079607751 11.355925474538164
Be 8.999987126046006 5.862142206405682 12.229861339259198
Be 10.349267893146493 6.506831807522432 10.047242216912242
Be 7.9090272445217975 10.33637127016949 12.822380812313785
Be 8.505041546154656 12.354108267250457 9.117922641504244
Be 10.260978051506095 7.037226851438591 7.658216920161283
Be 9.8439604308655 8.07939820159111 5.825139782459922
Be 8.703333675151251 7.5012272354423875 10.821494097493998
Be 8.475450375342685 7.986986203288163 12.884381376325472
Be 7.828703642654279 10.844498154092477 6.468297988547378
Be 7.04324500918873 10.508819256431577 10.611033874078863
Be 8.563009922903056 8.912558932092134 7.6451362277657156
Be 7.237298625148544 10.603463857049276 8.504958386777567
Be 7.749381602607623 8.794198872406765 9.56463549693249
Be 7.089289582337246 6.547673276740252 12.013313876684506
Be 6.888964784706376 8.606602571361762 11.565273943202206
Be 8.439147589016253 6.832548194502853 8.787796685273012
Be 8.056313522141881 5.53086014748937 10.449286441777014
Be 7.873149343408229 8.88106161708467 5.661149852949374
Be 8.35142360066124 6.985235347171996 6.665326548690749
Be 6.304875742966106 9.514735768654823 7.039218638221813
Be 6.635477575030667 7.111812236275374 9.992768487651933
Be 5.8447827964896115 9.128291313956804 9.210774213419091
Be 6.716801131816629 7.715376479814995 7.901722302348438
