5
Energy = -5.0477271 eV
Be 10.155083531185962 10.13149084068468 9.769113438654772
Be 9.008974329405492 7.7835862587609075 6.534433072949207
Be 9.37111758644763 8.932875146984601 8.253013140357398
Be 8.494715390838179 9.157209097429197 10.129266957088209
Be 9.288214628786047 10.312944122804321 11.632278857614116
