6
Energy = -8.68537649 eV
Be 10.154207450809238 8.328585560490774 9.59961503724584
Be 8.358575441593041 9.300946580043767 9.271169731150263
Be 11.651156192032134 9.680849159176105 9.907427708705317
Be 9.788173315386253 9.89196517530895 10.76639545474769
Be 6.595190550980606 9.02039367722919 8.222482527672495
Be 10.062623617907352 10.387186416459292 8.842836109187019
