6
Energy = -8.70369458 eV
Be 9.457570785523888 12.069591470727667 8.504904551898333
Be 9.66685949322082 10.30649356595212 9.55049031969504
Be 10.309482090593072 8.40562690157805 9.011461720666968
Be 8.72523174943846 7.116154005689225 9.094398254925762
Be 9.09904826407272 8.514254023923247 10.550194655237158
Be 8.243663381865343 9.089735796843994 8.790406262291569
