6
Energy = -7.96168738 eV
Be 7.532305386674747 8.78486764431952 9.091130499111099
Be 8.777865500733864 7.324151706051881 8.42923376126788
Be 10.282781223268774 7.808408248965708 7.1636119697683105
Be 8.024324707186263 10.752294810998503 8.833998107858466
Be 6.9781987979272415 6.830753166458074 9.221874941665384
Be 9.18350344339184 9.278503482389045 8.03912977951147
