6
Energy = -9.14702889 eV
Be 6.444346475070741 5.291183515627635 7.687577360940367
Be 8.170930326032423 6.3570412654788475 7.991767587568553
Be 8.479799707764128 7.842565846342942 6.554525635858857
Be 8.004905331081993 8.407656476541215 8.314736862315348
Be 6.989999191398156 9.231748325945672 6.745662755909789
Be 6.422123406499816 7.319560801911602 7.172202526134715
