7
Energy = -9.82560919 eV
Be 8.634079285416998 12.295653297793415 8.9520359840841
Be 8.5290973941681 10.245291568470833 8.910722351381299
Be 8.590556746916283 6.650457473534512 10.643727065765885
Be 8.868584684421796 8.653660042183654 10.249010743450693
Be 10.373312841672263 9.199136652240535 8.85560178509725
Be 10.349084186319104 7.32098015791091 9.764464339508727
Be 10.185449276925624 11.164985223706044 8.15460214655208
