7
Energy = -11.05406231 eV
Be 6.455559404312903 7.874219668087803 7.758030160584819
Be 7.949837436130404 9.050763065587828 6.97676530353691
Be 7.756446028096874 6.405360121726397 8.197801674527662
Be 9.292289561605259 7.5352083226932995 7.4328666993145776
Be 7.455079433937511 9.20682692159634 8.963180707077926
Be 9.413777248010991 9.358337814643058 8.37830355949661
Be 8.79877138790594 7.69104440821287 9.414812395461835
