7
Energy = -10.40326771 eV
Be 8.156395976845573 8.988777946565028 7.832862163459531
Be 9.361427493567733 9.264978104374196 11.187721764792293
Be 9.782867100229423 8.588745462402905 9.12860505006538
Be 10.499389340038322 10.415549967442864 10.16140234599918
Be 11.186451595711935 8.5385140152174 10.607123244135863
Be 8.530877523297152 10.187269399164181 9.505407906507132
Be 7.014676585804896 8.548250720328452 6.108963140535647
