7
Energy = -11.89690834 eV
Be 9.157159564188525 6.818726864093231 8.338548577113336
Be 8.083582250245518 8.118578615111272 7.115789922196674
Be 7.15559159606285 6.968465231355031 8.638308824367623
Be 9.92723350387833 8.691684020968292 7.946191707775647
Be 6.694246809518002 8.932388283465468 8.439376843664341
Be 8.461355262572924 8.44394649531945 9.43148289152915
Be 8.406743206924887 9.989811892792316 8.005026813405323
