7
Energy = -11.87927117 eV
Be 7.771359322533855 6.948283863188176 6.331769077282398
Be 6.433743302113842 7.818082048000017 5.064741908346547
Be 7.342781537172573 6.662004896022953 8.349350594764745
Be 7.044557436041195 5.105036354710676 7.212027068205291
Be 5.479090190774621 5.944808948162412 7.999448251059837
Be 6.0572771519039215 7.850297875248389 7.013613251520719
Be 5.646878377038394 6.141647839358788 5.936913402485688
