7
Energy = -10.55268756 eV
Be 9.828715115946459 9.398486636288633 7.827248156189861
Be 10.610709884400032 8.831382270440804 9.638229625229181
Be 9.619537640388005 7.48203695341931 8.446443303806491
Be 8.944861238442321 10.050007944785877 9.543064254208703
Be 8.759405804096806 8.11940396325804 10.169212054608508
Be 7.904051764820791 8.682669910948102 8.322127926275419
Be 5.994128732211202 9.097422501164981 7.7150848599878294
