8
Energy = -14.9666085 eV
Be 8.16422024062299 7.89508412323214 9.588694019558602
Be 9.996591700142023 7.782426036078466 8.68410209952192
Be 6.718688976724123 9.329791296599545 8.734973467571246
Be 8.87872565163676 7.761376931893536 6.96828277312059
Be 7.234376020020014 9.229573902905774 6.832051452859648
Be 6.917285628765413 7.488828001154729 7.859633417418946
Be 8.706403575183494 6.314113865799383 8.404939608672041
Be 8.695743699210112 9.510841334641706 8.239358653581814
