8
Energy = -14.43915568 eV
Be 7.964038908373437 7.004712808005171 6.137873216418455
Be 6.6844139570384025 5.456672515080611 6.167203817179305
Be 5.997295562326491 7.287724024025348 5.9953152232815485
Be 6.6161233021976855 6.637560873467553 7.861019538826369
Be 7.215789266400107 8.626568806356623 7.364686671567928
Be 8.683330817597406 7.206836230319941 8.19816614237888
Be 8.814801768867413 9.180758001618978 8.550743757286934
Be 7.363341342980483 8.142692214808756 9.369292859986114
