8
Energy = -11.87364991 eV
Be 11.441139854618935 11.091448260920265 9.299791137048679
Be 8.344793310041727 11.641846107129616 11.137381023232209
Be 10.141010180643386 9.29010094595143 13.258144665505757
Be 12.44805559902355 9.805076307949 10.488408230066083
Be 11.870390749407903 9.008148031379429 12.256267920113457
Be 8.56760022797773 10.45793272324583 12.757684539586045
Be 10.346349080729908 10.456217416437108 11.254661627044124
Be 9.623450973320002 11.919517332222723 9.594319751038592
