8
Energy = -13.04066934 eV
Be 7.870768800803526 9.103859588981072 7.989038171938246
Be 9.932079920521439 9.821324783019097 7.871631978247098
Be 11.14261985015389 8.662551351005364 6.787728640771947
Be 9.489364752667434 7.881019545719731 7.805693636633974
Be 9.155041688562585 8.954808213807812 9.711142513380334
Be 7.770785984279344 7.440776124267893 9.006318195910428
Be 6.989374700406189 9.044477798944873 9.989531913451387
Be 8.247384184934631 9.688602476583442 11.436334831995623
