8
Energy = -13.75362814 eV
Be 9.821324286555646 8.93626467540359 9.421534795853361
Be 10.217380960544608 7.597941198755681 8.022680727235173
Be 9.312048179053281 9.301113221510754 7.327453074556776
Be 9.236064712280154 7.070056101333151 9.713358650370736
Be 7.280204578158595 9.561942132401018 6.940011384578289
Be 7.996907305946519 7.868507184938047 8.03229289228847
Be 7.7685326035260625 8.482734592885075 9.991654279286022
Be 6.290247404863628 9.022690285724135 8.620456820714555
