8
Energy = -14.89865638 eV
Be 6.440605890230311 7.289092174534826 5.809702408435977
Be 8.359371501458472 7.1173620352894424 6.4802022471822704
Be 7.082075347242552 5.609633301563245 6.987147152212674
Be 8.099300927771973 6.636084810663731 8.5604904890111
Be 8.977870239166142 8.427489656831128 8.007793353829932
Be 7.331782466372044 8.50110797208602 9.022332141980101
Be 6.160485452533406 7.221955673565 7.828729683132452
Be 7.235538367992093 8.884304568233473 6.990632716982615
