8
Energy = -14.68187131 eV
Be 7.754714094629029 7.702450545337414 9.512266723936202
Be 9.466512712877655 8.34172891799875 6.891949314629486
Be 8.995032862317176 9.929660298109033 8.201308478381868
Be 8.763267046787389 6.75661058066654 7.916985534244534
Be 7.4528692037965465 8.320459742633316 7.530461625386325
Be 7.119022392227237 9.647927874567355 9.136797749629705
Be 8.802710013901367 9.40421755119755 10.205771315953992
Be 9.948103673463605 8.199176489489924 8.906691257837647
