8
Energy = -14.62994762 eV
Be 7.788365391312449 8.285935278360688 5.837333677186729
Be 6.789250434731738 7.336056047538973 7.278001716284431
Be 8.938035791245664 7.182510742810715 7.039819798055774
Be 8.048821767704098 7.046797600685835 9.015552791384156
Be 6.479405827370487 8.365675015066188 9.01110590278555
Be 9.777914209837245 8.095154106085703 8.675202731755183
Be 8.082945149265663 9.046946550964414 7.74509985120123
Be 8.283530278404621 8.826330282480155 9.892423966246012
