8
Energy = -14.6819015 eV
Be 8.303940308017683 8.658010536598185 7.489715597340186
Be 6.375198034667722 8.186913600843779 6.762534724740279
Be 6.669145942653395 6.143954355411578 6.399018909492788
Be 6.957831580638352 5.512082877470411 8.39669610298913
Be 5.417991119390585 6.731283107128164 7.949328294811619
Be 7.155954652750553 7.529695199698399 8.852439999106357
Be 8.113185588306472 7.562700248784743 5.809900984990787
Be 8.589351642329646 6.6052827679468 7.635605562922461
