8
Energy = -13.23609443 eV
Be 6.462697869760486 9.91726905762152 8.603101750243756
Be 7.499719201032722 8.5009570094687 7.675227315849603
Be 8.506024704909654 10.216840945740758 8.389072464244753
Be 7.937193196824139 8.908915797181669 9.70380871077411
Be 9.495972388849001 8.30332095332649 8.353370794353191
Be 9.989793923082575 9.620052863226356 9.852786075721731
Be 11.282262097408571 8.078563195927138 9.391305667105986
Be 11.725013274691308 9.352756834065959 10.930003878265067
