9
Energy = -16.06929358 eV
Be 8.493673288954248 8.910353569271685 9.546330126501308
Be 11.261149862446603 8.686482369479869 9.519343038322644
Be 9.765132051496709 7.483163398241605 10.278167862737599
Be 9.919439186426889 9.524971935349134 11.027210214762128
Be 9.780649340214946 7.867642298913962 8.33335314911296
Be 9.944010272454324 10.039197555072798 8.416848172056769
Be 11.046695998619251 10.80972026386732 9.941258865279249
Be 9.058204261510296 11.059298025008122 9.970313227028914
Be 7.8369613013583646 12.725086148277134 10.073090907680333
