9
Energy = -18.49848997 eV
Be 9.462985771354923 7.88482108910149 8.676383529642019
Be 8.126224511639302 6.290608134257731 8.421599059669497
Be 8.349216240148483 9.246036189315532 7.527189684412685
Be 8.97551336349878 7.210506002615554 6.7606030686703615
Be 7.285248692033355 6.078996206882427 6.569977233310547
Be 7.4917705052119885 8.326262436014597 9.196268125352795
Be 6.234435623841114 7.162219450704467 7.959698674045009
Be 7.1225149017597715 8.11015464359546 6.227966367736368
Be 6.323923590898713 9.210779602185099 7.765522843204671
