9
Energy = -18.09781509 eV
Be 7.479587515634069 7.27783978719645 7.054297860617224
Be 8.710578636284675 8.97499671967685 6.624608722551277
Be 6.9350143343023385 9.300101887467147 7.505019227990097
Be 9.550593157616204 7.345200112804025 7.714246344252815
Be 9.628291407233103 9.38953401868384 8.363457284121344
Be 8.117832594802945 6.267647810782331 8.71999375781179
Be 6.8245455593548945 7.8315299083374486 9.051058650805087
Be 7.851187833368047 9.705978832585624 9.24628797273769
Be 8.895104296708556 7.899906257770886 9.71376551441751
