9
Energy = -18.49904971 eV
Be 8.526804594392255 7.871206832940354 8.140596784624071
Be 8.405578984033115 7.497653291191296 6.095509335329107
Be 7.540619802764392 9.227052843678734 6.885369840219412
Be 8.834143947017251 5.989875655284078 7.40255222697082
Be 6.280753117049518 8.20004103853649 8.199111164093402
Be 7.033059615680185 5.913171215292618 6.412765595192923
Be 7.15448872229338 6.299568452362053 8.542791163569708
Be 6.160392462456327 7.8322106866510435 6.152031349976647
Be 5.394503088468269 6.499564318218429 7.499616874178998
