9
Energy = -15.12677958 eV
Be 8.196440435054358 10.288498521138033 8.88540639744465
Be 7.850224844857806 9.51804237599021 7.004030633251407
Be 8.187212247044613 8.775620630752565 5.099403061871383
Be 8.818745179255798 9.141196042422392 10.472977165328318
Be 8.217158553854192 8.26014244367256 8.659304228234788
Be 8.102621621532489 7.47460537744362 6.705075199327495
Be 10.130853071926794 8.110788819706942 11.698509010605859
Be 9.200683794519371 7.119131010798965 10.134293192692585
Be 8.812036761426395 6.340039940512783 8.272240209206938
