9
Energy = -17.13654669 eV
Be 8.114480226536287 7.3960884110849525 6.283158662658576
Be 8.700393552448247 9.129620549201928 7.356973012525405
Be 9.536280496726791 7.231348267029098 7.813045425083336
Be 8.666652811102907 5.571071178371893 7.053453827791613
Be 8.493125648852349 8.326827896060319 9.338914516607405
Be 7.35823182439049 9.948752083937647 8.700057869077902
Be 6.635156852398954 8.625204124603469 7.265545287820181
Be 7.4203817344261935 6.809246639831305 8.193750890693849
Be 6.3857952194148435 8.307536298975128 9.35103387089856
