5
Energy = -6.78667075 eV
Ag 6.028221945835053 7.257076712340512 6.3436830687007735
Ag 8.574223095775038 6.586166554458623 5.506462904348519
Ag 8.07166665457325 8.679625775541014 7.324469921850666
Ag 7.547872047927538 5.797385894783464 7.995408589232578
Ag 5.9818952686235205 7.883624075610667 9.033854528601859
