21
Energy = -41.99280621 eV
Ag 8.100732333440458 9.528497511501453 8.517479659633242
Ag 7.798362766016772 9.420281591596968 12.511031510698174
Ag 6.150557905275137 8.873037216892927 10.280242868449717
Ag 7.4250360564348 11.444740731545625 10.491566577528904
Ag 8.705983741574958 7.578852066446903 10.48349375724414
Ag 9.563975096403079 11.919793846456495 8.694653760663721
Ag 9.23846534649403 13.70498929752123 10.797976690206049
Ag 9.991097113652089 10.167706317176176 6.551044004859715
Ag 9.962549922523829 10.14518741977347 10.985463083240333
Ag 8.77043487817419 12.061411167079651 12.939895791386745
Ag 11.789406317934672 12.278277641257143 7.025579251115625
Ag 10.703166671826754 8.497933278248547 8.688192335743965
Ag 10.808976523812822 10.414850781540853 13.806522144805378
Ag 12.707796198089435 9.529445042503731 7.0191203835533145
Ag 11.498613596940418 12.328845184167355 11.914141106716116
Ag 10.167891330405588 7.874086309947477 12.926219186900017
Ag 11.498125149737605 6.828058180344935 10.771442862506374
Ag 11.66648944937202 13.668516545224053 9.458041388399431
Ag 12.255834708737371 10.900054255390078 9.479093618533254
Ag 12.497358172467687 9.281674321301628 11.904253473929161
Ag 13.426042571953497 8.315368303692802 9.445760630325855
