31
Energy = -64.44149181 eV
Ag 13.636544276803207 9.58940654037716 8.14553050901977
Ag 12.599287804589814 7.188500537140788 9.166263715925615
Ag 11.072320328221076 8.909218703966896 7.347195085220379
Ag 9.994480114212362 6.594824287912923 8.581363915537306
Ag 11.950974149752069 11.632272874257383 7.31120202800137
Ag 12.378349426606052 11.310583215292136 10.12369601345945
Ag 9.26370465175748 11.215375339474301 7.054225487233215
Ag 13.916692558816113 9.027522186859336 10.849038561497306
Ag 13.42090513835988 6.4403278205311265 11.786126009492525
Ag 8.496740819775049 8.995672674689978 8.51069183053273
Ag 7.505708547069757 13.001205301791504 8.2931929273308
Ag 10.687284555335683 6.468190932562154 11.373597964121771
Ag 10.645757751583409 9.064574388745733 10.32482735988178
Ag 12.900402493873532 13.820622785132683 8.850424239137395
Ag 10.175638152639884 13.66253371195452 8.299545332636988
Ag 8.08031529395747 7.059067141960311 10.591784228565604
Ag 11.862846450641607 8.520367281545967 12.934020675025556
Ag 14.533200796413789 8.380095863123334 13.509742153637662
Ag 9.269061761340154 11.537544416988336 9.946076101025936
Ag 7.285033403368173 9.691223504587263 10.940923532805698
Ag 13.850142160303339 13.401777165440874 11.422882482338673
Ag 13.455190914369705 10.90576664201951 12.882080644581682
Ag 11.121995639576136 13.80412460569423 10.981284776283543
Ag 6.546591685728326 12.355325754349764 10.839946511737592
Ag 8.421916318127023 14.402100080929047 10.605746912403676
Ag 9.116077107562338 8.63978840280452 12.757666195953622
Ag 10.600882600587955 11.089023011725175 12.449919842893125
Ag 7.839602127981378 11.331092472413575 13.153710030709362
Ag 12.092736375444654 13.249506330849433 13.565485496586122
Ag 9.415753080678673 13.682787150171212 13.173964450982826
Ag 6.756465707273395 14.023817085294853 12.991619433341008
