40
Energy = -85.60598550 eV
Ag 6.180914758334133 10.741909993614595 10.882923987360137
Ag 7.781988483788174 10.95661051604915 13.072708344315839
Ag 7.870782339956765 13.288786897157351 11.445533067178195
Ag 9.543568196627863 10.446220944621604 15.140590581519199
Ag 9.46441709785227 13.047986251234631 13.894255147780626
Ag 9.747022673085576 15.52319555654244 12.569908004632719
Ag 7.25878708324199 9.396654752401858 8.704110777604802
Ag 6.821470124375427 12.525191040366906 8.921386815622336
Ag 11.637372961209303 12.192862264321311 15.570437137008387
Ag 9.466014112598181 13.639323036437796 8.622419127329517
Ag 11.802315077626684 14.634063041093597 14.257636667506203
Ag 10.6339338023396 15.812141980313047 9.944162758678653
Ag 8.199806694457077 8.76115485677418 11.371244281809842
Ag 8.890487318515353 6.98520480468919 9.421097144734595
Ag 9.998343877779073 8.139580997467794 13.385784832320725
Ag 12.195507003460023 9.581252284134838 14.597007698081418
Ag 9.148908980547438 11.13539157212509 10.002106923750516
Ag 10.506278938507794 10.683569387391039 12.448004917025868
Ag 10.664875440349183 13.246133498962447 11.245257891339424
Ag 13.75251871218637 13.918954635922729 16.21835038097318
Ag 8.598616361430334 11.366898385985179 7.150696271610764
Ag 12.643844166904165 7.497132687862959 12.733306337900522
Ag 11.042636165291912 8.408624880277436 10.577011022534547
Ag 9.97728366455077 9.127715369868408 8.062901972523928
Ag 12.828684513467516 12.241800748370208 12.839245769743062
Ag 14.325030955426106 11.396702410251136 15.103668692580294
Ag 12.715742537087833 15.122250710731219 11.640606355457919
Ag 12.279206087570763 10.992283924060402 10.277883625896933
Ag 14.296605042048956 9.698517384730808 12.77550397344091
Ag 11.321741024860957 11.611680933808824 7.6366874361916155
Ag 12.3881773639306 13.798130084169344 8.976846295584506
Ag 16.40804326643675 13.22426212225174 15.372078047798173
Ag 14.598053440522381 14.302873431403727 13.536592386968701
Ag 13.928751443097584 8.269961080701476 10.395376120334648
Ag 12.699128682577513 9.161594561514395 8.100489565697167
Ag 15.95267023970989 11.950136568730512 12.862311542262791
Ag 14.519453816813577 13.156537638361101 10.709850889934978
Ag 14.149190086292347 11.651623714396433 8.2523060409426
Ag 15.584582966475006 10.589401398121348 10.432885088263571
Ag 15.444735840355147 9.083182447977658 8.123257677231837
