49
Energy = -106.64504483 eV
Ag 15.196680021142399 11.636916070813175 16.841639658809257
Ag 15.866413444637226 9.96880456211807 14.734769805788757
Ag 16.97703959078909 13.849303826024263 12.056440112852417
Ag 14.872272428510295 8.908078768987181 17.26171491547238
Ag 15.21491388754044 12.820706482019315 14.194695951290758
Ag 12.791579975134528 10.858973560972585 18.109857711444995
Ag 16.6241673186016 11.009967740616071 12.264598435026382
Ag 14.582003600710273 15.314978547113668 12.39904552596016
Ag 12.843561397489784 12.803132245997537 15.997400992977301
Ag 16.664227309347822 12.410288836042362 9.586481598415572
Ag 15.046808602698043 7.328077404294305 14.93524053290652
Ag 12.945002543581788 9.964216744454722 15.513656751240857
Ag 14.568206875790473 12.7163541025896 11.31179897219103
Ag 13.398348631420363 15.356887768531033 14.928343337563232
Ag 13.53830700125984 17.080624866130467 10.423162531217976
Ag 12.633012591438716 7.335694480955465 16.38422199964877
Ag 15.266431466751815 8.379270952352536 12.356593808402604
Ag 13.394267369622376 17.689365501736447 13.280549599036625
Ag 14.961953464389826 14.841793706999432 9.532964105281064
Ag 10.51907552615545 11.186682598983735 16.40070352507556
Ag 14.974608347965482 10.156066415506256 10.106327981084348
Ag 13.663529212800832 10.58150956889529 12.893371068514877
Ag 13.360931881289794 19.68093798371759 11.318450765684648
Ag 12.609611502720792 13.274561901910262 13.180141905381475
Ag 12.317134785051262 14.445982289273456 10.501214333593335
Ag 12.682868238732752 7.844268641625883 13.527352758129096
Ag 11.283637189040885 15.865848064223279 13.132917329117305
Ag 11.09454343667028 18.15590024277175 11.515865973931874
Ag 12.716460181498745 8.678381527116843 10.857851669234616
Ag 10.856587641409762 11.107734422316794 13.633985477028382
Ag 11.135153990433238 16.7334755208358 9.047708595024092
Ag 12.41899604080852 14.628868538806758 7.77240440061684
Ag 10.408794726240878 13.732073994747177 14.944247322574515
Ag 11.920000326580112 11.530794386709397 10.840446530252896
Ag 12.829337420156984 9.828618372708476 8.31231192004573
Ag 13.917669162038358 12.374013200280078 8.569451604000205
Ag 10.47417454273091 8.554427658831944 15.109321062528476
Ag 10.138985695748007 13.50606272042542 11.949685791680146
Ag 8.523652845981967 15.32241367943254 13.576523181470685
Ag 10.286821684369468 8.766343683210149 12.193612859016541
Ag 9.2871223434087 16.10739519112233 11.027956624400506
Ag 8.344033643259339 9.847035516464873 13.99054746556359
Ag 9.720987136617342 14.302092727972504 8.913839793432421
Ag 11.143781138160431 12.094793425915324 8.041897182873209
Ag 10.255197269210807 9.701357010293439 9.447970600130896
Ag 8.779282894274889 11.044740625963785 11.37783912752844
Ag 8.122748409620547 12.570311921953566 13.630518830883599
Ag 7.67369850991445 13.67520228883576 10.843071401064599
Ag 8.446492803181888 11.837528508828278 8.684446302109476
