30
Energy = -62.73219267 eV
Ag 13.79061398520472 8.624438083518408 9.033263368296044
Ag 11.724631020954629 7.435947912086016 10.861928125200034
Ag 14.266445234929718 10.985182016222526 7.478615486117299
Ag 14.442341772541726 8.335762062826003 11.734260464045756
Ag 11.71093043433082 10.203996576645125 8.207993881631756
Ag 14.745389133815662 11.14684001445756 10.225776970990749
Ag 9.633483284963019 8.259642185532565 12.539480801507533
Ag 12.037326748889052 12.390667637569148 6.49639219347692
Ag 12.291371339162602 8.178268038578786 13.523097483270751
Ag 9.677548239927175 9.650539560108236 10.07267960474023
Ag 13.267408468054187 13.192445901155189 8.928951453491274
Ag 12.343611730014446 10.056201670809395 11.025969696025081
Ag 13.863045407089771 10.57933362664143 13.401905014925783
Ag 9.53262312565007 11.689717912480644 7.556405068288031
Ag 10.776594746967275 12.227682526120025 10.303450811123904
Ag 7.336508543394333 9.642784470792819 11.608593333465276
Ag 13.187811521452652 12.857930356983431 11.831388429405537
Ag 10.717008014490316 14.276507332065924 8.113042256172447
Ag 10.926081484548353 10.769716509431618 13.272282372700689
Ag 7.754947367355116 11.727534775583003 9.64652973477463
Ag 12.1838424046483 10.289020226800071 15.722407630140964
Ag 7.978125661029776 13.979411361556538 7.872784276883323
Ag 10.180957035642646 8.383644432510998 15.306550701832235
Ag 11.774877321286905 14.931056278314966 10.588530341519869
Ag 8.592832651786434 12.041452254668721 12.29770072743356
Ag 12.560560255614217 12.789557451008513 14.589549302224356
Ag 9.00031773523147 14.309306665524621 10.440162597016224
Ag 8.279196091315848 10.064303738886581 14.24556414313699
Ag 10.644774219047775 13.788636098053276 12.860704948657746
Ag 9.852462388734681 12.237113883061339 15.271170145716807
