44
Energy = -94.78322479 eV
Ag 8.71070920345372 10.401852242216906 7.946367576171085
Ag 6.835442268729937 11.161909289908444 9.876900555255082
Ag 8.900027059706415 15.315700881927423 11.245459921804825
Ag 6.717549926841153 13.564262967914175 11.23103210622055
Ag 11.481812200448838 16.568230183804175 11.77092117512556
Ag 9.246919834841304 12.637238561546289 9.945142860055459
Ag 11.279357574375684 10.049702912712783 8.83980222652762
Ag 10.833639909317267 14.8932357915425 9.2278386889748
Ag 10.70005730441123 12.422166907755855 7.465141018533285
Ag 13.440519340533008 15.36591720695749 10.067762601947777
Ag 13.676461705583723 9.92638005542743 10.196297837461609
Ag 14.691548837318885 12.298961602392083 11.699292360094823
Ag 7.930451080253618 14.107941663363363 13.67455409217541
Ag 9.311188337362706 14.582393957292243 16.01178011557079
Ag 9.847850456028347 7.710620245801397 8.838124436198816
Ag 8.18852554244014 11.539829946215054 12.438641630327265
Ag 8.926734999921608 9.542102284309514 10.690642396392674
Ag 9.446211096871009 16.47595010981888 13.779105431276776
Ag 10.043704809884197 12.358630038007837 14.28846456094624
Ag 9.989795790064077 9.467347408785214 13.684362990570106
Ag 11.200053565448963 13.87744044036398 11.950363967095335
Ag 11.292663327727906 8.287449647763006 11.341175909978764
Ag 11.026505838261185 11.163836581712314 11.755179535088612
Ag 10.443403237815557 8.042138646619053 16.086441227068594
Ag 11.623980003022046 14.993836725206856 14.556471926747486
Ag 13.719988763656627 11.299104057467272 7.679236470873605
Ag 12.757037498685015 7.455527046107147 9.112855494843018
Ag 11.544287071530604 12.851172222829987 16.530737821432314
Ag 12.940024921818281 14.102759692037399 7.464535825410323
Ag 12.394291996537103 12.548958098602474 9.77138763281096
Ag 9.752425992056015 10.656788929109373 16.469062583824797
Ag 12.13659378834429 7.572274650243969 13.973849499635945
Ag 15.166256129027605 13.43169090778439 8.982333658040462
Ag 12.306378818488598 10.169491914063727 15.493380897230027
Ag 13.74917195230216 14.95776721865004 12.77558084721736
Ag 13.186737494111348 9.937781477759163 12.896449019024738
Ag 12.827742850960185 12.542247892369122 13.917864032411666
Ag 14.941307906424985 8.754801425698126 8.01813872449425
Ag 16.007994426748027 14.769358176788954 11.216851827546767
Ag 14.024098639074687 7.480913444919866 11.708391326890426
Ag 16.132831600558728 10.902498206041297 9.458159100143227
Ag 14.810797349663025 8.303512079360823 14.432801126007547
Ag 15.119301346973138 11.120573023340775 14.499738440340774
Ag 15.875218454402908 9.719995576982354 12.10130471393736
