43
Energy = -91.86209390 eV
Ag 13.026649203072031 13.033952892133989 18.04684095703926
Ag 10.746087321510778 14.79486272658455 17.39619726003446
Ag 13.096159137836683 14.658337381101942 15.802855712306394
Ag 10.646795673821925 15.214953575481111 14.572791863250783
Ag 11.262784578578898 12.49367059576492 16.006079996716092
Ag 8.646286108731902 13.755803948511781 15.83907629340335
Ag 13.907624251507357 11.488409116647478 15.805827182843998
Ag 12.828400191861034 14.486987471038713 13.03131685290105
Ag 15.149821034112952 13.645067575606515 14.282667512491605
Ag 6.434505635041083 12.207662891097316 15.532981999353614
Ag 8.23855884103143 14.463614130269217 13.104876621679304
Ag 15.93733328936972 11.020809482416029 13.783898005636694
Ag 10.532997748515116 15.222086259100031 11.719734977318918
Ag 8.960019943574528 10.951238528446222 15.506902539344454
Ag 11.560556147000606 10.016289087040477 14.828944342373962
Ag 12.957407556132601 15.266662790114236 10.343073834417906
Ag 8.302482282584068 15.488149058130514 10.17257274051209
Ag 13.227656395539771 11.572798387197293 13.092821641045454
Ag 14.780980399389081 13.209205668827034 11.385407138006382
Ag 7.638655459541054 11.670187051893967 13.14172067948067
Ag 17.313325605857784 13.263261335080276 12.623683271423673
Ag 10.455464685649376 12.425654575153482 13.300796647923645
Ag 13.990681096667702 8.983507635580125 13.758916566592342
Ag 9.365728189966514 9.436224280281646 13.187894742517356
Ag 11.4851724165995 7.689840956152558 13.279437902415538
Ag 10.717719950673304 16.663996821897324 9.264313876478392
Ag 17.847487499337067 10.676513138589646 11.774319591325787
Ag 11.998960281835611 12.54973442729645 10.855041388790958
Ag 8.872819995865726 12.819552489595901 10.892563717236966
Ag 17.091169546739323 12.63491304883289 9.888222603244339
Ag 15.121430603685543 10.051542637969854 11.263450614471555
Ag 13.295322294916918 7.902359858180592 11.212700686121503
Ag 14.87483832087708 14.017767940203543 8.70701053085148
Ag 10.309245303156878 13.967650477477289 8.833692974958073
Ag 12.528674013386672 15.255677819647245 7.59717954938755
Ag 10.617982513189942 8.730239749415396 10.781067361678845
Ag 8.212868925107161 10.133239824775886 10.77320241488251
Ag 14.994007505257876 8.400045820252796 8.988943315699379
Ag 17.34054944986197 9.842351544485119 9.202656510671504
Ag 12.568845414542531 12.47272425349407 8.10521696194238
Ag 10.221594710830447 11.095699812744693 9.135340556246712
Ag 15.052481403489015 11.21578299648097 8.558675310013113
Ag 12.742464695460422 10.017402084069742 9.512716949485679
