10
Energy = -48.04728161 eV
Y 13.327847169472193 10.022549179581393 10.875294281227628
Y 11.72073833892064 7.194212294979603 10.243972840982758
Y 11.656845732866351 12.78422497782719 9.147531648786876
Y 11.694280252563727 9.71290852328361 8.082418064519125
Y 10.907204843933282 11.685217959590828 11.997689609328923
Y 10.856285890806362 8.689718035719853 13.08366846273224
Y 8.09181047590303 10.703623414823731 13.15016130212551
Y 9.044056067258673 11.617545844268344 7.475801252829588
Y 9.148370949335899 9.513810366834582 10.226761331899477
Y 8.345092557764834 12.837909669175769 10.487869187879147
