10
Energy = -47.41623983 eV
Y 11.66418151786498 10.673656140392335 13.813163909988717
Y 13.27024218593593 13.553197440180172 14.276839425915476
Y 11.364559197578348 12.399842558515472 16.657644417613163
Y 11.985371675841888 9.299448889444669 10.325977778803686
Y 13.653259619691282 11.812321063544761 11.36100601533555
Y 14.684724861371015 10.157650911865892 8.695324386717866
Y 10.172087717747374 11.97235026097237 11.191034288343594
Y 10.111553167636238 13.733026299850225 13.980027882137795
Y 11.999548808593119 14.637541488792882 11.233968582996575
Y 12.106342298875946 12.20106617258483 8.605162688434625
