10
Energy = -47.82263814 eV
Y 13.233589996544595 8.497346319000142 10.814423888526267
Y 10.4921662152965 8.550117793183423 12.608000601130945
Y 10.395003339271176 8.359148008410795 9.03821843793997
Y 13.032788617195266 10.169856903913995 8.00224520641224
Y 8.670794693396829 11.321404131284877 13.101348468619005
Y 7.74592401743059 9.094310016536447 10.8652100478568
Y 11.136413224972799 11.153925750406197 10.6667698416554
Y 10.081625610767945 11.30863294623779 7.4300049585714785
Y 7.3596371560988825 9.577748869691183 7.673170652805631
Y 7.956733811044621 12.076613543402921 9.908195717555268
