10
Energy = -43.80206579 eV
Y 18.41002117323742 14.90347835522649 16.26952163548747
Y 15.276544907202894 14.088905199534896 17.02890513421499
Y 16.911595448695305 12.779795038145728 14.377493427648757
Y 19.4772992329837 17.42524984683957 14.56808510995933
Y 4.340871539786162 14.96873283401245 15.79255924814334
Y 20.074051192578757 14.214202212239243 13.587612932832025
Y 16.105075781850378 17.069889342537444 15.666524683597695
Y 17.263790141285423 15.673437606572948 13.013137894050706
Y 14.22428050499144 14.80415521969078 13.98921108450895
Y 3.0080862466768905 12.393469030586106 15.956513068508457
