10
Energy = -46.43025894 eV
Y 10.031226443668086 9.571891791835045 6.0332436523164565
Y 7.607730885227263 10.730836221775128 7.78742418413394
Y 9.335551014797243 8.316210115342436 9.031792320501435
Y 12.024581377595775 10.31919613201231 8.55493523771177
Y 9.467857226916555 11.42101471754066 10.421178542948395
Y 14.12269185831588 10.720252465126233 11.020379396041985
Y 6.855141353747361 9.52145706365966 10.841889583159162
Y 11.37829666170309 8.877068117016615 11.576504088206866
Y 8.90702083488886 10.152010366901402 13.369347482815643
Y 11.732005902522545 11.832166568173168 12.825409071547147
