10
Energy = -48.0150586 eV
Y 13.803679047892516 10.568711010589148 11.314776733090092
Y 11.31962585975864 9.711242205766302 9.0968187742656
Y 11.364388553974797 8.4475046635468 12.166284183111367
Y 11.455837079430403 12.7570741582683 10.387102709314133
Y 11.559250255035545 11.512845674128126 13.49246577864106
Y 8.893564072766365 7.603465599524657 9.950270171281286
Y 9.046891039614273 10.658890118035158 11.302975015854868
Y 8.970308767016494 11.895953757778486 8.214191837800605
Y 8.77253489537865 8.85109069759749 6.848078396846739
Y 6.617986645016262 9.780518661088449 9.026038680058432
