10
Energy = -48.00527711 eV
Y 13.30750933414361 10.411857651271253 12.806963024111887
Y 10.356366430946233 8.78046855580754 13.202246259348314
Y 10.497367253942798 11.448709297309478 11.209127819422509
Y 13.401980895496589 11.62683830302568 9.496627545799965
Y 7.852073169673622 11.601714714000996 9.083919380128872
Y 7.4967581945132284 10.424961638734821 12.38425695018072
Y 10.663306259417025 13.47179876236486 8.55512230589829
Y 8.864995533822025 8.576504221794679 10.184070139996226
Y 10.726065662547265 10.288750702085641 8.042193251215116
Y 12.267469954415237 8.580245121292815 10.41764108403715
