10
Energy = -47.97255186 eV
Y 12.867664844161741 9.90291700983602 10.04878314752554
Y 10.459179538321031 10.968097333713532 7.264641983145827
Y 14.335332225457348 9.684308655061926 13.587026899877877
Y 12.168807711803794 11.642500130799291 15.323262444984877
Y 11.213017106483798 9.71918564913977 12.97299101108132
Y 13.087565809434267 12.342524597749962 12.358129789387403
Y 8.283287545743702 12.929157160140363 8.986479327612015
Y 9.528713073956991 10.278293686099598 10.228766479784946
Y 11.405101184652555 12.900536695971304 9.61095465743963
Y 9.74954002589157 12.717787200609147 12.535473859311871
