10
Energy = -47.94593939 eV
Y 6.058574760838584 10.765937123087248 10.62452701416263
Y 8.885895237969619 8.787657630269727 10.840712104339689
Y 7.23796556470595 12.150342556650928 7.897422064210299
Y 7.016073054160196 8.80975413976102 8.073854061177913
Y 11.710076328816433 6.805657161929378 11.054925016727827
Y 9.799597287891052 6.838501122249918 8.294557419341642
Y 10.059697812728583 10.15976805606549 8.10534847855744
Y 9.13414443620868 12.101884907694744 10.662580823970169
Y 12.877395431505592 8.171548049702169 8.313635429701565
Y 11.9366453315749 10.144877994690374 10.858400881985112
