11
Energy = -52.88697717 eV
Y 14.023251056628434 13.070205106205817 10.543383140434093
Y 13.31683648395498 12.219301891331982 13.569781451641733
Y 10.750185852181062 14.292733965087338 10.164118620974527
Y 11.446014790268336 11.000678765705509 10.222564244979639
Y 9.006256021299164 8.662655855511527 10.021863059373706
Y 12.714755876650266 15.303668066897073 12.66297698805918
Y 11.929350287554017 7.544770474506417 10.538623097917105
Y 8.347203207212452 11.710728314431911 10.954681551909113
Y 14.010404451351018 9.6711886164922 11.85601441811932
Y 10.300206271030884 13.008097764875775 13.056309793950023
Y 10.597879238762381 9.622227294710463 12.860704587819113
