11
Energy = -52.93799446 eV
Y 7.842898722396985 9.288013161539014 11.185097934476838
Y 7.845420046180572 9.280125018696273 7.779196430584831
Y 6.495114420856366 11.840142553419687 9.475314971384954
Y 10.252030690184215 7.840197391010715 9.487269448324584
Y 9.92357251872444 11.260965365730263 9.479170263328022
Y 4.958993866511787 8.92740899235827 9.480934209749902
Y 7.135072878936727 6.4731073196479985 9.487959866514458
Y 11.55545681898922 9.747939508901922 11.837687015121777
Y 11.55916502524294 9.737124032531216 7.130153129094632
Y 13.55341346936141 8.335566866812995 9.488732454126847
Y 13.191366962424645 11.581914789351373 9.480989697102467
