11
Energy = -53.77933262 eV
Y 11.253838629322741 13.819315325394921 11.814349822676963
Y 13.468635233057816 12.301481423407841 9.513241195665126
Y 13.029294348609348 11.150651709572607 12.961904647534103
Y 11.07284558474966 10.95750605985273 10.601929277019634
Y 12.524051601460007 8.38756118808314 10.586761336183331
Y 10.009113663002402 12.903746745818227 8.650001525578466
Y 11.642733499711301 10.002470797728376 7.647224422944147
Y 10.2852152766847 12.28814914265973 14.669252809405332
Y 8.421789908211037 11.926931179062985 11.805713977660648
Y 9.07223067370948 8.96605199926653 9.739094069509639
Y 10.175658501594993 9.304612425969774 13.073739756644315
