11
Energy = -53.77271548 eV
Y 7.936364267418424 8.94281496056313 11.504488756313046
Y 11.35978933310797 8.542122107035102 12.366642346205273
Y 13.109323641929956 9.882656081017517 9.732341212012967
Y 10.157528198815513 10.285155399820496 10.081535622914691
Y 7.812568834390627 9.587559235905161 8.089510100577971
Y 9.957793979955337 11.569686970118777 12.918082793893973
Y 13.318794627050949 11.284181260913433 12.87037413804566
Y 8.242195752827564 12.531168197527162 9.8907299685192
Y 11.735933586877824 12.963634011085166 10.380348685647983
Y 10.637992804093333 11.520175335645636 7.430616591379177
Y 10.276238657349223 7.435370124184998 9.279853468306609
