12
Energy = -59.38933884 eV
Y 12.375185283345402 10.051819688926097 10.66671144071024
Y 12.680964842919112 11.999045279411677 8.276093735657087
Y 13.349895723014136 12.788946131647078 11.740798940936022
Y 11.156431582499236 8.718060810419404 8.151834845239065
Y 12.240537974165914 9.999491817884346 13.758691367643038
Y 10.883479535957804 7.484774936684831 11.542558833535397
Y 10.52094398827891 12.80669759448763 13.4528227384599
Y 10.791902048173062 14.042690680507535 10.063157888706238
Y 9.437930770506593 11.52582728495359 7.844565927529513
Y 8.996655458677328 9.529298810167656 13.329476017658083
Y 8.32702838929064 8.737231475394855 9.862217634606
Y 9.303477442166956 11.473673386650905 10.936637597238741
