12
Energy = -57.76410215 eV
Y 9.235139526914523 11.097824096828878 9.341301016648517
Y 7.124825972868685 12.232211784639796 11.55171118397758
Y 10.16192710288 13.62645024433238 11.27626205529056
Y 12.401558190873896 11.189479167665581 10.32825808770404
Y 8.61535688111252 13.329920419251252 14.2323732816953
Y 9.961319437927738 10.779247832175441 12.591309007617463
Y 14.394675734305219 13.497888801929816 11.705634812984949
Y 14.146161522623647 10.78132233399586 13.260233197460765
Y 15.688871630402442 10.737632498544375 10.33280033105794
Y 11.931250908313386 13.165579932215145 14.092415438949404
Y 15.119282688628946 13.507592127777325 14.946823098658431
Y 17.205942641179853 12.094139371159912 12.876733673002443
