12
Energy = -58.5364937 eV
Y 11.247856729136291 12.809351434970717 13.777021080349353
Y 13.956942703142717 11.625883546150346 12.349902272043892
Y 12.539726053599589 9.867493336459926 14.89504281058806
Y 11.597096437056186 13.225742087201617 10.313206732850762
Y 9.127515693776848 10.5310667047823 14.64390942930462
Y 8.596086496529582 12.373898381294065 11.74549439799135
Y 11.070241467288602 9.967450424841267 12.021617411958202
Y 8.855024689233488 13.661916590785369 8.444333188765688
Y 13.993390401622944 8.405703389967272 12.086251034785711
Y 13.197648222203886 10.357167765301226 9.320026879355906
Y 9.797904355071347 10.675112982941798 9.024012177241868
Y 11.502519739306518 12.496743609601927 7.0457128728867175
