12
Energy = -58.61847598 eV
Y 12.43584596847849 9.559040710707382 7.8226929895533575
Y 9.247193562864213 8.650694786374096 7.205588286431342
Y 9.647827795446458 12.146422366983392 7.731314444687008
Y 6.649131588429845 10.692850350085845 7.990371628877032
Y 10.867054008672705 7.180194467233136 9.970319452507768
Y 10.158841451689415 10.074206935992553 9.808118741395768
Y 7.565362692965213 8.392076265250568 10.252629492246594
Y 7.88225788215609 11.835810966512122 10.8935441637655
Y 13.020196334990825 9.571037643953629 11.2909092932099
Y 9.979118548842912 9.585031324350025 12.801352450344758
Y 11.262330392025504 12.505679082519432 11.411221217327373
Y 12.59483206067851 11.116947387278596 14.13193012689437
