12
Energy = -58.15931944 eV
Y 12.9671395491332 13.303836687659762 11.017979681452845
Y 13.348581321908679 8.199075152999963 13.900369259543544
Y 11.437875793667997 13.57826187327288 14.09804806869312
Y 12.921638669972271 9.7922302281881 10.98951219374838
Y 11.060720192673335 15.90728395472325 11.840511997926795
Y 10.770304232315453 10.24184030478458 13.363112019088828
Y 9.537096227111164 9.627308261177813 10.26982686062809
Y 11.44364098349036 11.60233443980131 8.516274637182367
Y 11.003672216033406 7.214615412177757 11.871387810362151
Y 10.914886314189513 14.800735480859506 8.783245239345744
Y 13.997085297038378 11.404287699412826 13.742682612189915
Y 9.772824464042978 12.88495160262791 11.26232378458538
