12
Energy = -58.41939075 eV
Y 13.715427770158424 14.949442364993224 10.29325564759682
Y 10.832542355639413 15.408684302070329 11.847750495534267
Y 12.732209033864345 12.784811584112237 12.653206534754945
Y 14.419185637560904 11.795205530071156 9.643568915833658
Y 11.260784726966753 12.75720730555767 9.756120696947548
Y 9.247246792534916 12.603006764067613 12.733088465641776
Y 10.857254699117581 9.92884235556308 13.928837401484689
Y 13.028387023596856 9.680509276024871 11.612856783462584
Y 7.8876922353830095 9.134788770442375 13.149789693620859
Y 9.588115130164926 10.179595623558797 10.688678824484546
Y 11.938256633872108 9.37272387543882 8.66074217391991
Y 10.592654625329962 7.44845778792094 11.59742530503897
