12
Energy = -59.34903174 eV
Y 9.673722931913185 9.279390209870238 9.086603019610386
Y 7.904368625642355 11.743843570397777 10.72712930898733
Y 12.877817549181747 10.101561404993069 8.663843797345969
Y 9.149437172915103 11.96646849443432 13.800178739643702
Y 13.363119748472739 13.019355459135017 10.475012742517448
Y 13.493906228113804 9.756611577883087 11.93852814272583
Y 12.419698248637538 12.541191093978771 13.751734375262874
Y 10.439383360465472 12.646108348930479 8.485868683963208
Y 10.094440455802756 8.762516881575655 12.552449428847742
Y 12.017627769430492 7.252865965447166 10.323102654953521
Y 10.25095064134205 14.31621688435867 11.65687770332069
Y 10.931365582654863 11.427367971448351 11.174049740045882
