13
Energy = -64.60747146 eV
Y 8.987587856656141 12.504548298427979 10.59700391830865
Y 11.141971368860306 13.397150643487254 12.890950101039122
Y 9.995977528170904 11.911831026025972 7.238028995070406
Y 6.902338627206854 9.64238953930104 11.024716976780155
Y 8.950629321191029 10.918070585737647 13.42515861499199
Y 12.02387669242069 13.121458987256363 9.659072143262694
Y 9.582196884048031 9.58642195342671 9.3463931055574
Y 11.764877064526928 10.376301663987219 11.627718170646112
Y 12.676950913628001 10.207636640863939 8.19416144290251
Y 9.399530779630185 7.837146023797433 12.211994352804945
Y 8.350657851949322 6.746952773239412 9.232478191828301
Y 10.418748494047067 8.243254380429388 6.698846058816043
Y 11.625161831003767 7.257529666351553 9.639654062145258
