13
Energy = -63.99262713 eV
Y 15.79104269046787 13.198384790590538 12.602739186556922
Y 15.782764438923945 11.134985602890417 9.9879136079468
Y 13.30334917497159 13.308873933600273 10.400141847375101
Y 12.672402487947144 13.58645063624875 13.817287098026664
Y 13.74527292967169 10.554102908873135 12.576606983476603
Y 12.654889337280386 10.047220460695604 9.354512135322803
Y 10.908558062025675 11.72595612745681 11.668427452756864
Y 10.552003665071258 8.66617092240598 11.808298481843368
Y 10.573909670478011 10.879139887524984 14.6124637433376
Y 9.242873923161614 13.824527196755076 13.51792500064908
Y 9.226473645548339 10.4284995134642 9.202394237610964
Y 8.952603048988472 13.65534679164828 10.155684509594373
Y 7.914986240552529 11.138354099519775 12.141987323906742
