13
Energy = -63.74773931 eV
Y 7.991727480990215 12.30190452151741 9.669318722027763
Y 7.9917189621355895 5.482232263300285 9.669320141836886
Y 7.825399299098087 8.892071941931533 9.80433891613879
Y 10.601884197006772 7.1871689852424865 8.726844818985
Y 10.601888456434148 10.596956441102204 8.72683630013025
Y 6.074528945984206 7.1965463239835215 7.4174763176023095
Y 6.074536045029706 10.58759188064317 7.41748483645706
Y 9.892674957204068 7.185457251545123 11.91002197077636
Y 9.89268063644057 10.59863977861719 11.910014871730734
Y 8.684690597518138 8.892073361740659 6.476863421505178
Y 8.693257093473099 12.35275355840076 6.437402754081252
Y 8.693252834045722 5.431387485844179 6.437394235226628
Y 12.578585574830385 8.892042125940156 10.99350903312003
