13
Energy = -64.16071117 eV
Y 12.392170991953659 10.878401519830971 8.063153677476235
Y 12.818499383720237 8.300273441022151 10.34568472845287
Y 10.118316795750102 10.267097869650824 10.477472842218472
Y 9.784471055542573 13.077344387272321 8.69788750510346
Y 14.774178094610043 10.969292951074351 10.325192027927894
Y 12.936685259137773 13.861938748086224 9.32814581940271
Y 7.541998235432374 9.360841037635524 12.593262000571595
Y 7.727018966165152 12.37385181772461 11.382852304445338
Y 10.491769475375317 8.021272381111046 12.884265966461273
Y 12.48647737164139 12.276720259908679 11.945730423298832
Y 10.259296521580657 14.427488283816801 11.624815263071422
Y 13.32676229285484 9.597977949397004 13.289955091463769
Y 9.998456139989083 11.309260888248062 13.720200995917402
