13
Energy = -64.1515734 eV
Y 12.426781852943696 10.158374060004867 12.747248849904054
Y 9.694498790966989 13.470446622802891 8.51534268948021
Y 6.8434623509576715 11.90679823037961 9.986187861215065
Y 12.65335861747895 12.683238028150202 10.053177589609733
Y 12.140518300784965 9.537186879783915 9.543511731605426
Y 11.962582034830309 11.604431699187627 6.919231137848755
Y 9.865497925068151 8.147600836766493 11.980226600323368
Y 7.346752917412031 8.644235715650337 10.130975139166043
Y 7.412856678498549 10.358714733791714 13.008332203522027
Y 12.716960292636767 6.934430031108779 11.381533464194135
Y 9.7549969114605 11.345367239399003 11.018878937419705
Y 9.074047677002667 10.271943928220617 7.905638971988052
Y 10.160559857265191 7.07041216790738 8.911123185508472
