13
Energy = -64.57281244 eV
Y 11.921632812881645 10.93816284907863 11.097835845629989
Y 12.940399107766893 8.252280342334135 9.760583770276538
Y 13.466296592887405 9.187200456924323 13.220755106474355
Y 13.030332670612518 12.94775714465087 13.2723118661131
Y 11.064183571563403 10.877297400971559 8.041973797287483
Y 12.294133674339298 13.826292476710922 9.830678239622578
Y 9.99650214835789 13.560827064565721 12.18147567623352
Y 10.652916219096314 7.920286310475064 12.11014416069528
Y 9.057718167085442 13.335840825873397 8.95227774624817
Y 7.837943437326346 10.50833737031536 7.611244718753694
Y 10.595075898172528 10.750161931097939 13.929859826820989
Y 8.699540656764535 10.566200577263928 10.816770873793905
Y 9.677261773443607 8.001822846425341 8.882987274499998
