14
Energy = -69.31907213 eV
Y 10.593537029894902 10.110985371298376 6.036116304710964
Y 8.86986576455046 7.171724110625615 6.996825056766385
Y 9.176719187537701 12.93182638086219 7.806631650082414
Y 7.702341406715617 10.068534778793502 7.240349940642904
Y 12.007558439609571 11.705429696669258 8.55780495648826
Y 11.014790255256559 8.742131171081798 9.139917049712881
Y 9.010146687597583 6.530166380853042 10.239528441660878
Y 6.335893434981625 8.044131103793681 9.409734039291884
Y 13.01013674104745 10.448800013548063 11.405004157223374
Y 10.622615868498844 13.14955374721739 10.990855933363889
Y 11.299832357796268 7.529769373020702 12.368020090279998
Y 8.27711107236236 10.740650875107152 10.280764415954346
Y 7.772240014545161 8.238502538661512 12.592641754233902
Y 10.177184413130766 10.457767131992433 12.805778883112358
