14
Energy = -69.1461681 eV
Y 7.212932559846649 6.994996367483228 13.021414565608797
Y 8.927052769711668 9.844978632439586 12.762933283221905
Y 12.743292056396173 12.348427570366779 9.005359053687792
Y 10.213283748079215 10.220400882371194 8.1031020456445
Y 10.400488888417945 6.869387573294718 12.295078863576995
Y 11.226522181164516 7.081320830609314 9.048853642780857
Y 9.855783343713709 13.43109051195975 7.890044411768352
Y 5.765866234816729 9.69275051105485 11.907971119023543
Y 7.4693055499808 11.499779487582884 9.710556803494644
Y 10.168834994116311 12.549353183486808 11.10094411039006
Y 11.837571976666634 9.651104629752322 10.931803981494301
Y 8.155246995541154 8.217812108181011 10.091137604269264
Y 13.391204392605715 9.342970204854193 7.811069873579162
Y 12.191849446906744 11.814862644527476 5.878965779423934
