14
Energy = -68.98795736 eV
Y 12.702723095651244 11.912692883321718 15.427086629453305
Y 14.678999868084947 12.702825408631234 12.324306613181003
Y 11.49586004766908 13.344384609005814 12.90841624364952
Y 13.304455917910271 9.875921738021695 12.81989848038554
Y 9.158620665904664 12.486893419408197 14.800627164121767
Y 14.527380137505842 9.965431584718791 9.876770373450219
Y 11.921183062627307 11.841205992246122 10.270157825870768
Y 10.597549277065843 9.560642144125886 14.45005363440114
Y 9.058475998183049 10.703399788741905 11.93365468760491
Y 8.95948293376383 13.690188772069263 10.737429812682327
Y 10.837419517677258 13.573998971950148 7.701672440461672
Y 12.053831709188886 10.345318401730834 7.361609786177314
Y 11.336593400911621 8.680769754537613 10.398449494225156
Y 9.117551333132202 11.009225202527466 8.686331893214886
