14
Energy = -69.70455253 eV
Y 10.115723550244287 13.628049129222155 14.965596922229508
Y 13.136226104679562 13.95526761441352 13.524425420502748
Y 12.220433494307613 11.025298776556792 15.116077184941783
Y 10.633082374783385 15.02831916000226 11.689251632253207
Y 13.3887618731608 13.945966212648573 10.151233195357294
Y 13.775424950530622 11.026118477068726 11.675511022023116
Y 13.636749729484057 11.243578729834146 7.9643392260521955
Y 12.177858019229431 8.9883344102471 9.726797075436057
Y 10.746110413937345 11.884788857540169 12.398723757200097
Y 8.957533866152554 10.335829983850871 14.446239648287307
Y 10.804949317052122 12.164001168236089 9.250254957623405
Y 11.358891722710919 8.614866972991587 12.933038107630738
Y 10.561471400822589 9.718973608679685 7.146529768682677
Y 9.089080817401264 9.480280217835261 10.620956372633499
