14
Energy = -69.186759 eV
Y 14.417324623078294 12.784492460424229 14.341161146084776
Y 11.42094688320655 11.363185432533637 14.494745197172252
Y 13.509335812406661 10.056645589476984 12.197415297810432
Y 11.571143106232284 14.492154837237237 15.17629821778898
Y 15.185072704766334 12.530145436758184 10.89995312716333
Y 15.007256982712162 9.541596402011258 9.322808722190237
Y 11.871773542349679 8.31657833551333 9.684016926046379
Y 10.016394981690016 10.284367647924478 11.717924234689532
Y 9.086515891598433 10.193710321239784 8.570735811436347
Y 12.373735445819314 11.494350198628206 9.157645287776054
Y 12.159735243596755 13.49249537019147 12.069034153812622
Y 8.926052135175013 13.18314506373208 13.311575460638661
Y 9.565805258844078 13.121905156012488 10.066488202307195
Y 6.992548163851212 11.440142532372986 10.982152772327733
