14
Energy = -68.37806654 eV
Y 15.517937692249005 12.505553844930528 13.45289559063538
Y 13.293434231980681 11.674694245908285 10.789576133080448
Y 12.823785604077301 8.878474683264733 8.78568768721178
Y 11.285515962211228 11.6333429161361 7.979574419199185
Y 11.57300011415819 14.467810066323981 9.653207249813887
Y 13.563590575908428 14.833269498297017 12.28568406215104
Y 12.753510716259608 8.590964065261105 12.04970812424632
Y 8.657955235602953 12.88339788916271 9.787782379476987
Y 10.153912346167447 10.044861477314937 10.6605101217595
Y 13.088656481117825 10.763107414228154 14.32517496765162
Y 10.64738171484911 12.92038276435537 12.616221230647058
Y 10.059937283728887 9.88048439040948 13.957142255179061
Y 12.863755255322225 13.718252658174173 15.275017428145585
Y 7.552547268844746 11.388301703240444 12.463654872169286
