14
Energy = -68.99113903 eV
Y 14.933712779318448 13.720310250948023 12.843933393037615
Y 11.962615652454351 15.215739423045605 12.453486820504926
Y 12.486747168361399 12.983181766702657 14.977937306950485
Y 16.091594834111934 11.422588047773923 10.710201617693405
Y 10.465338742170864 12.181595414309031 12.372577493790052
Y 13.07701645228633 13.023613052316737 10.162038427816874
Y 13.606798182884269 10.653200877794053 12.833238120446246
Y 9.947599368273464 14.363150476192667 9.770184128881505
Y 10.969831669203257 9.823494339745025 14.844141317910102
Y 10.372147464367067 11.119341689024713 9.13757487956195
Y 10.971863273703985 8.82567270854725 11.61773452739999
Y 13.407761444263668 9.797336826643292 9.663411536292893
Y 8.19064868826911 9.797083184763368 12.947749666693953
Y 7.610023419627769 12.000338134742922 10.635615251207899
