14
Energy = -69.28122967 eV
Y 8.468692293548049 10.764151907384615 7.5364451098885
Y 8.426196483760137 10.760737456621813 10.695850734107704
Y 8.674516349586145 7.89826397509686 9.50113196936443
Y 11.434702022003112 10.125119835558499 8.589754453087833
Y 15.418451070304856 13.615105257929176 11.697836192843466
Y 8.586129260061654 8.781051888654734 13.21995662814252
Y 11.126271189519734 8.701443884410006 11.484707067009852
Y 10.289089504646913 13.074263507414528 9.580630273740743
Y 10.222400969332586 12.07969598156516 13.048806957312124
Y 12.328157675100794 14.562995631244853 11.724706620025456
Y 11.73960243312606 9.693240035923523 14.49474922390478
Y 13.569152953018492 13.30389988432153 8.85275579168472
Y 13.344309646695988 12.7693805466155 14.341380796086636
Y 13.054150196944642 11.311412496661726 11.409229993819137
