14
Energy = -69.42637166 eV
Y 14.40709815937691 11.549238642003266 9.519528850858217
Y 11.131425012036848 10.659076740848269 10.433448737369364
Y 13.894578634347422 8.657361315774057 11.256770966695365
Y 11.779906693268645 13.109650814932147 7.994682068530135
Y 14.022147098258857 11.55985523936058 12.770717670211564
Y 8.64912702587146 11.76887315188269 8.214274931778538
Y 12.840022542307784 14.048909018863586 10.952342616943364
Y 8.135869282457467 8.880135263879618 9.967110456529108
Y 11.993450280144163 9.203700780347097 13.875024187114786
Y 10.756959139220559 7.321951844500157 11.493395520673525
Y 7.59284069132213 11.81716407858116 11.318399723148914
Y 8.772452073044175 9.332843144001437 13.150436848207868
Y 10.608176710216373 12.31677831297819 13.031173250093557
Y 9.623051555463583 14.17411685604131 10.217673209257777
