15
Energy = -74.9881859 eV
Y 14.068507813317687 14.309774243472027 13.22361595459968
Y 12.168273540316068 11.947168163284271 14.70420091549431
Y 10.365440394888527 14.070028800117361 12.716182807806565
Y 8.709450268343076 12.607011824703337 15.097259152038948
Y 15.303633723731478 11.220316576750283 13.12242455201015
Y 12.675050251487228 11.949911824021955 11.398171296139184
Y 15.638998258617551 13.01404204187994 10.362018305282831
Y 9.686938620345586 10.65700533970069 12.568280244269722
Y 12.705391893528818 8.966588767528803 12.76930986098692
Y 7.293304410735704 12.792375994330282 11.958337702110267
Y 14.743860984787975 9.82704295505497 10.104186858558059
Y 9.775780592012776 12.58465438078326 9.647743412160485
Y 13.112972055222905 11.990021649606883 8.135353113761752
Y 11.249210528569344 9.539337558866908 9.54636647938245
Y 7.768334490030081 10.029994596382624 9.914893829833266
