15
Energy = -76.075615 eV
Y 9.33264063140198 9.314448045804482 6.565228613638617
Y 10.305803120592856 12.278591237629815 7.417913524238349
Y 12.74599283703101 9.702392393205296 8.234292251945986
Y 7.05015424578078 11.459699067573302 8.263372444920515
Y 10.39751388994801 10.03754340171018 9.878377328635313
Y 12.23668134668788 12.943398723853633 10.017612001093973
Y 7.69353827958021 8.553190918075364 9.278682071112256
Y 10.35343162461446 6.824626798639458 8.488407641452264
Y 8.94310339894851 12.825637501552958 10.480272570847921
Y 8.835936300068605 6.9189466642960875 11.70883215503481
Y 12.186867717937307 7.499280405473181 11.085382078075622
Y 13.180790350456357 10.54384700626775 11.911008188897513
Y 7.236165393239532 10.368931274228105 11.917293875167749
Y 10.658152307593436 12.623093705301681 13.119652633949029
Y 10.238620336072858 9.501764636342356 13.029064400943753
