15
Energy = -75.59701593 eV
Y 13.420842066420885 12.775884630172103 8.896887383629302
Y 14.468620184714503 11.251973592352194 11.510705032671758
Y 12.867584586093654 9.127479961968588 9.007278327866647
Y 12.59249064912387 14.048648614720884 12.028396838541573
Y 10.820818854711998 11.722922659899428 7.380915305142699
Y 10.453198303140836 14.313553035378499 9.655639364240594
Y 12.947622135705416 8.632124790112575 12.553767643742964
Y 8.009769627839123 12.227442887261104 9.383591649370553
Y 12.273895796314424 11.642701521860028 14.121246368991343
Y 10.998271930370096 11.06255183336945 10.877452266940011
Y 9.227216293937696 9.162183080797414 8.4527147578699
Y 10.270792493183361 7.621401012915399 11.059287141335588
Y 9.177936887414536 12.901642578778473 12.845537175094782
Y 9.836452725022601 9.564723168040544 13.870115799820853
Y 7.708821411091618 9.828177770796753 11.484413450694284
