15
Energy = -75.60081438 eV
Y 14.436394336080197 10.843962717800165 13.5724881770192
Y 15.343487476988004 10.938515349476098 10.387456268929482
Y 10.485052699453483 9.941886282366282 8.427316102792178
Y 11.350709863213918 9.602915731844735 14.392962644029812
Y 12.290907070166945 12.989925769499717 15.03018837336357
Y 13.985910394099692 13.83820074435695 11.931679481852246
Y 13.761328807565398 9.317526201830761 7.883424753195952
Y 12.747993894390705 12.205806639712703 9.07248304660494
Y 12.55069862413306 9.051479025810874 10.939349623338268
Y 10.436974687405144 14.707206715233827 12.560832999398668
Y 9.133665165542947 12.126673522999132 14.356389556279531
Y 11.63171950672166 11.781233031775155 12.239404809438705
Y 8.94150316707154 10.143674798709059 11.56046889109849
Y 9.564206234685244 12.914798017172012 9.710960622389624
Y 7.305971619845746 13.286467278696298 11.940658604712766
