15
Energy = -75.9772433 eV
Y 8.904883968679 13.129532225149655 8.974449804487907
Y 11.077311837667233 14.502520473353472 10.974208615259839
Y 12.509673237499817 12.895586970507622 8.55437912866196
Y 14.393681128976615 13.283811796024033 11.311077213489444
Y 10.45748271778101 10.502201235331663 7.482355622549499
Y 8.548786175173566 12.282115288291752 12.5316489307001
Y 7.79846450731235 9.998028266996082 9.44520438007721
Y 10.54148082939234 10.891336584829327 10.812082297636099
Y 10.41571269493504 7.856383156347405 9.487992192392982
Y 12.012884391355216 12.56797561047683 13.227121959214882
Y 8.655141639330356 8.622199983505569 12.373780469090205
Y 13.519637902442087 10.255046888925923 10.349313911463964
Y 10.731933916285044 10.019256769770742 14.454355627778058
Y 14.195220519252517 10.357503636467902 13.593609204243156
Y 12.129178462565774 8.016568518198268 12.362663183008651
