15
Energy = -75.6273931 eV
Y 10.68296398471608 14.095802746654318 9.501080906960963
Y 13.655115690237022 14.632058454595015 11.618588900137466
Y 10.387100833487665 15.272619086151318 12.530113493373209
Y 8.50587446862095 12.605305218721202 11.686983350779245
Y 13.36331847920294 12.376351491403652 8.867962563532734
Y 11.72866448984305 12.10007700525131 11.914939847820918
Y 12.601814869083952 15.628072925654493 14.821290874384562
Y 13.833843480595574 9.201861303659129 8.85940033264244
Y 10.46291865488578 12.758633908807225 14.86207400783574
Y 13.796493245704847 12.643775512460618 14.36247345673994
Y 14.927660737449253 11.118029964692047 11.548601552827057
Y 10.54699091075718 10.44189676190578 9.497295627744537
Y 9.67655971738997 9.804341476099147 13.015436870053238
Y 12.516829228822349 8.706581064428713 11.73579385552299
Y 12.449049962304837 9.76727092306254 14.821498801363274
