5
Energy = -21.55068948 eV
Y 9.825443913242546 9.861474361438065 11.48417949269869
Y 11.001246147693685 8.861049388171162 8.731148191086673
Y 10.90568142640908 12.120040630481254 9.406822401630917
Y 8.472028056715505 7.233580326603961 9.964220841058477
Y 8.1977320629634 10.324473388374313 8.814950292845412
