5
Energy = -20.88441948 eV
Y 9.57104949645248 9.810174080917541 12.201176031558475
Y 11.464684189642409 11.20789057271174 10.127025211165469
Y 8.788191365506151 7.793827661715718 10.03412149527846
Y 8.307759465828472 10.891269575768483 9.277926501028524
Y 10.740294542435205 9.174208595646794 7.90056894493472
