5
Energy = -21.55202517 eV
Y 10.152849339475575 11.238277875957257 8.719998463568283
Y 7.684085719471975 9.031348089493916 8.680632894632218
Y 10.714616942074546 8.270287096909763 9.61572722461537
Y 12.204856992416966 10.768372383666248 11.268616365210283
Y 9.023155719833701 10.18028002860707 11.486417228270787
