5
Energy = -21.55359873 eV
Y 7.502640654733618 8.092710645094904 7.27079793576425
Y 8.014875288644845 9.733445949024157 9.910545556748591
Y 10.334226741381167 8.004968864098137 8.655354265178865
Y 9.390199213651485 10.728485563185599 7.053022583072515
Y 7.819625601588887 6.501956478597207 10.171847159235782
