5
Energy = -19.69684763 eV
Y 12.456726781638586 12.558035509303979 13.003722749716808
Y 10.170502848005302 12.524064196633338 10.875177143987091
Y 13.033863111765958 11.204206739705374 10.118505970119037
Y 15.27325554472555 10.93809104351984 12.303481568115163
Y 9.539775400874799 13.09120859022172 13.94788499943307
