55
Energy = -298.36225952 eV
Y 10.272925079261336 13.869526189433653 15.341165364984812
Y 16.42229279901517 20.22166892914506 16.80374434110399
Y 20.74081777680799 18.87944868229561 14.679581048639431
Y 13.835848582278624 17.42637293711626 19.965429658983044
Y 14.185995929618151 20.880480825088274 14.21056276775032
Y 10.141874511331205 19.543233878025706 17.985056552649763
Y 24.197543532433894 15.143067294594228 11.34957345693622
Y 16.4544092258329 14.400111360991763 15.747582897093233
Y 16.62607363505966 15.16648670665128 20.105512167709342
Y 22.723772249057877 12.71535243641674 12.657848818808775
Y 15.739339999390227 11.732688545116167 14.29418817051611
Y 12.67607771798741 14.501279221906216 21.477834676706713
Y 11.779078998650466 15.825727071648352 12.817381380060604
Y 22.318183448755814 11.593490665508625 15.537384939883133
Y 15.997687020822633 11.940044945169799 18.164915746781066
Y 13.483089482051566 14.29012628772713 15.0515193416286
Y 18.974203161247274 15.235105834803505 17.547594538424224
Y 11.78403882305671 16.643918806415726 16.945181160578052
Y 12.679268995150952 11.580037947699896 16.514445913448494
Y 10.750169375548492 13.549487282227284 18.735791256204248
Y 18.858131435641884 12.723242380097759 19.94997760618462
Y 21.03126199301457 16.127011016396896 11.779633315053884
Y 12.941424927059542 11.394740814876526 19.937421012424917
Y 11.768148430097508 21.72998100501754 12.274236368225308
Y 13.328017893825535 18.69777287441916 11.62981037089563
Y 17.059485975016564 18.588966213620207 20.379284775389813
Y 15.798159711632117 17.12318701089494 17.492096508987
Y 20.070938644877952 11.088375427826353 13.005854202400457
Y 20.999164435061832 14.773710039008895 14.81647987216894
Y 15.599397903271894 12.500758563304498 21.571136866421842
Y 18.972931101562533 12.128587615937757 16.06871072129644
Y 13.847407066531439 14.280916721844179 18.433199906068268
Y 10.41605023305798 16.664766946032273 20.06217714150705
Y 21.892961842832097 13.810134391195646 18.150101199887995
Y 17.91885992880618 17.097105548565803 14.479951304743095
Y 24.384923906636907 14.31197015926237 14.890843023143068
Y 23.503791250500182 17.265148620636243 13.804754048121701
Y 19.16852568305528 21.728855930351983 16.086923414037518
Y 14.252173555672416 17.4820763852144 14.62373099253552
Y 18.292097363100417 21.649134470505647 19.159380884665627
Y 21.448190833601736 20.256695893522828 18.246471395165823
Y 18.91834308268445 18.539199613724534 17.551907500914773
Y 15.119032109061163 15.023342047836723 12.386178693020511
Y 18.45387979672879 13.889528910030814 12.919669675439266
Y 12.37371567484737 12.329716411994735 12.995420190849192
Y 20.17570996068066 16.682559577056164 20.131113297375617
Y 14.904113496423905 21.228026925117216 20.077280608345642
Y 11.847155205749415 19.664625099927605 20.959650431793836
Y 11.87764312920393 22.441025621056887 19.049781627292532
Y 14.751979752573547 23.03802113372511 17.080243361017644
Y 20.92889573268483 13.15889566503174 10.152966054269678
Y 13.29020793602632 19.854008505354194 17.474372247891715
Y 11.166915036876873 19.0638572961975 14.214462951447578
Y 22.054197827761175 17.036004037355394 17.128562593032868
Y 11.406075302798246 22.09299378139494 15.706520141411715
