55
Energy = -305.74613526 eV
Y 7.554381118260423 11.091709315961223 10.113763831409912
Y 19.3623582720229 14.191136142403405 13.1128765787441
Y 15.285042947588268 10.508998768264496 15.402554874660362
Y 10.819993895115372 6.969132481694466 12.451830173867993
Y 16.305054544649188 13.995601428408966 14.694132079298054
Y 11.42056952047818 10.719520848878078 18.271524418530003
Y 13.606906012911193 13.079858948099755 9.82467882168127
Y 12.942809454435194 16.28620152425884 18.023141008065352
Y 15.77959688524584 9.491267379872088 12.218303458317735
Y 10.346195214390754 12.044114392905223 11.596217597806994
Y 10.536778860510928 11.953486730121755 8.297670661955465
Y 11.785850795739695 10.55996109508547 14.78214436150486
Y 7.471826145563534 14.603151023768575 15.89642944092925
Y 7.466812990753351 12.819913853221559 13.085606545148286
Y 8.66640686876693 11.290432147943012 16.08925653510657
Y 13.000335115368644 17.948962509065428 10.061849887650553
Y 9.605063844198666 17.608549515915005 10.08808971903952
Y 18.0194974360174 15.573834013519019 10.100385617994329
Y 11.176420674733025 18.412357861930122 13.051247795242233
Y 13.528522188592014 7.740925991306601 13.947741472302063
Y 15.053994104315873 15.692306420575719 11.650594027690172
Y 13.468662296894184 8.378172633053218 17.244041825166228
Y 10.450717518164213 7.911231630553602 15.803287655096728
Y 13.13187288201712 16.06152591606833 14.624325629982533
Y 18.402501802715385 11.134328855011132 14.001938822674843
Y 16.796386781129968 12.608445644419948 11.350594466834107
Y 10.094388378307137 16.884462352314422 16.082028200359495
Y 13.258801229961895 13.1513140258152 16.647927753805902
Y 13.760662350223726 12.485270947102249 13.02795218345187
Y 14.887540474707295 11.136681739495533 18.781457933764866
Y 10.111811724053348 13.91636137196638 17.95573623431211
Y 10.370945373409041 13.836338971963484 14.584382231958418
Y 20.882653240216257 12.688864951167572 15.745066036936095
Y 17.68923467579017 17.079466182536002 13.272831185431
Y 16.39293293214925 18.366027811743578 10.238126346390114
Y 15.881463946350939 14.500447795998237 18.335035323733806
Y 15.797707595516332 17.248591528737588 16.20559636751453
Y 14.696744168975599 18.745789382037106 13.208787825543936
Y 11.501461000435004 15.31766143531323 8.213459627010772
Y 12.600348442801488 9.888591566550934 11.289971875604781
Y 12.879302569325828 19.0543303535679 16.06459644166808
Y 12.498113953450709 9.372099925813876 7.751628745388866
Y 8.790280037967081 9.500920962575883 13.078479261538293
Y 17.874404089609932 12.11890138845856 17.153810414540853
Y 15.32126492961715 10.241654345984331 9.032241398463354
Y 15.017613101080569 15.860023084935124 8.190369496782044
Y 12.869303276308054 13.389144374647088 19.939741247822493
Y 13.718898385745154 12.542577080318663 6.736293779073646
Y 11.454007975081986 15.332385887953357 11.60273896200996
Y 18.875753803077423 15.312438679615063 16.315155752504936
Y 16.796831650382554 13.125640916593152 8.046277382386279
Y 8.394732342908688 16.243493747311856 13.032316505459795
Y 9.971503022590273 8.80138879680242 9.824125997348398
Y 13.521101101309698 7.200867298553009 10.264447041760999
Y 8.535260170380587 14.412760134134016 10.024815253044517
