55
Energy = -304.53845223 eV
Y 15.020638194367706 8.170220802436676 8.140383025758256
Y 16.656719558286703 13.847277715199851 14.73523211521928
Y 10.777717309857524 10.851753785827427 15.189872487905374
Y 6.782089911939445 13.630266759122229 15.013854176988293
Y 9.896012030388768 9.560046784621115 18.14959592072898
Y 15.630814649313916 11.664186961607927 7.164733393798964
Y 17.177926102017718 10.58798844534706 13.498533668953566
Y 12.488863248389848 11.937423639377082 18.02528444524012
Y 11.74467326504585 15.217881602302317 17.258637853482917
Y 10.191481068218872 10.056835396465106 8.893134962155507
Y 14.664452795065053 16.84945519838269 9.298362433380381
Y 10.91267375002366 17.497035327809577 14.904874189006211
Y 12.301443625497276 15.99637007935063 6.651929984135567
Y 10.082946845928374 5.471204840018762 12.714325556504907
Y 7.1098124365361 9.571558294821099 10.115201424053497
Y 15.516902521244113 11.094923725062271 16.512250594981218
Y 7.779680950503237 14.728491356527055 11.715251336857772
Y 10.7637821207258 8.818635589584456 12.23710611327643
Y 13.323119144333146 13.60405743050663 8.776617155331207
Y 11.7117196312522 7.410078787478465 7.730518914348804
Y 16.71114460239089 14.148775114027647 9.256489338132967
Y 7.659377752900854 7.880989111079925 12.952406876927942
Y 14.957319051901449 14.404924824557314 17.598154369009897
Y 14.201349983597002 16.457140061230575 14.967847587896804
Y 9.810586975552539 17.640890444080974 11.811123232081796
Y 7.579149740021735 10.08322579159894 15.784960857235133
Y 13.415645631374613 10.075856401096608 9.988439111706208
Y 12.70423744388336 6.52909085359862 10.615311910327781
Y 10.253339328930824 15.265103501559453 9.361631262405762
Y 8.179593557517704 12.60609065375068 9.284493786233506
Y 10.624935321518734 12.850496713466017 6.8728616338834
Y 13.8302890035849 10.011925984787062 13.700073229714015
Y 9.147943979394405 12.761526026439414 17.39352522344465
Y 9.192406565018288 6.900276547849782 9.948877677728506
Y 7.5650148593094695 16.91438167683284 14.153440193751592
Y 9.974282672086655 7.556737901655043 15.441376210675442
Y 13.300883204151196 13.273238726649579 14.944840784310635
Y 15.608474303710988 7.958902454198622 11.76800688913356
Y 18.423034149634358 13.31503908674429 11.878870123342384
Y 12.997798639857098 8.69817011802063 16.78654552133848
Y 15.042935445071139 12.803611815039451 11.861252553909827
Y 15.965875939918066 7.920757015517561 15.196208413829584
Y 12.670645762894786 15.41911150738745 11.900954049375514
Y 11.797507958589257 18.153223161482394 9.203361425933611
Y 13.2172667963544 18.483252679038387 12.20898569150499
Y 8.412503645055613 15.961979222549989 17.00216754811464
Y 9.956472849584637 14.335547051217791 14.325512311746241
Y 13.06915692012616 6.73121397870635 13.956815963458753
Y 16.973193813622036 10.679715256704531 10.065030315349208
Y 13.449658897573443 13.206055357250372 5.150128867552562
Y 8.193950004423773 11.382660712709807 12.670120053947155
Y 15.572270072810936 15.338924710052469 6.349322694321343
Y 12.792777951786114 10.194751498900482 6.389607841016005
Y 11.057071667143667 12.467293874508806 11.362523012655156
Y 16.18153634977343 16.04652764386169 12.146133685897826
