55
Energy = -304.2381619 eV
Y 8.804495120648848 8.494840232826588 6.050773776466154
Y 14.201797600289703 6.502041041396315 10.003168284671656
Y 10.751077210426898 6.472379570661274 11.058110140535899
Y 10.214539595915953 10.428200334546244 8.548363648171605
Y 8.116519011497827 14.14777642280659 7.468926459076655
Y 11.400095865305982 13.772635317874753 5.733079866535836
Y 9.026942033575406 11.636064115226963 5.7096252943650265
Y 5.664700164654782 12.210224304854659 13.703488721891247
Y 11.890243802920585 10.052636106524695 14.32909048612989
Y 10.911686240809633 13.73104008576127 9.204883369821724
Y 14.8547967401285 11.209189122380733 13.38432923581121
Y 13.123415499525565 6.912432898323324 13.480593704448015
Y 6.930368727478511 10.957905258866186 8.142607881837597
Y 8.458063093739952 8.367553548773685 16.813394569028766
Y 6.557864041437045 9.094366308042034 14.299984718886224
Y 18.570142415163996 12.380821779493605 10.132812725806247
Y 14.627399362616723 15.795970949009018 12.06926208142381
Y 16.525812033076036 11.922301370585517 7.383580826379643
Y 8.327484663454202 12.57378167409663 11.215409990944496
Y 6.1260845342904 15.29161825723361 12.926137662013124
Y 8.134900788392567 7.807719989288486 9.204067011025478
Y 12.140540897583305 16.5176654388343 14.450802863095578
Y 11.844165498305244 9.945145770807498 5.4472862265801565
Y 18.034637915957596 10.429959461838129 12.975246002014504
Y 14.788305912838679 12.756174949704215 10.45051021049836
Y 16.767791586677507 14.902905715312018 9.093201968471075
Y 10.690284119166607 16.546266019816244 7.585935896117092
Y 12.04371848329102 13.294706586885802 12.536746526229305
Y 8.867688876394423 11.516649932012562 14.57000182279748
Y 16.966714938195782 11.738136313888596 15.868934086934665
Y 15.95282000593707 7.870377083914805 12.470356351810219
Y 6.016871154834805 9.865437005689236 11.127493338979559
Y 10.11117455498886 11.006508164288134 17.60183017836788
Y 7.578106684295003 14.183868525497836 15.950227505153808
Y 9.337816788256031 9.37013592019816 11.927918160474466
Y 14.466275226909117 8.859019450098998 7.556516216060023
Y 5.538651481086888 13.527443398269984 10.098080581510871
Y 13.295800721231542 11.904327403880066 7.658258131047461
Y 17.19298444206414 13.688294871854474 12.867637241607229
Y 7.436599490676345 6.611549900851755 12.298043342829736
Y 15.124600837745906 8.792225028322347 15.524503130503563
Y 9.998891780605732 7.077471541777988 14.323319781817982
Y 11.978236311680876 8.109918363831511 16.957923475329782
Y 13.638772381538635 15.82060269034435 8.973241944033433
Y 11.34275699712482 16.534890905523024 11.091387490045312
Y 8.140537149646596 15.948071289519014 10.1922387769599
Y 13.582135787355508 11.411636288856768 16.849306778832748
Y 9.271436804942612 15.103746128009762 13.293824844778856
Y 14.635778639665162 14.627368839521449 6.214268136299599
Y 11.248266496636393 13.652723202766788 15.862938021995634
Y 11.491082878194234 7.438243458800815 7.928383646610014
Y 16.541710065995954 9.799427490014414 9.974053835840111
Y 12.9536556834434 9.443369658856287 10.786636589224132
Y 14.53006438417258 14.178998346426733 15.016996964239254
Y 6.64022992579827 11.172769613797769 17.02179292622503
