55
Energy = -303.70625181 eV
Y 10.135500824995285 9.637621970168999 7.316193089287105
Y 15.235555753089209 8.81521198604313 11.990990059364687
Y 12.001120020971348 7.501849342589669 12.437389266691762
Y 11.067004992834965 12.276300939637387 9.795284069190597
Y 9.939347466309354 15.407153270077682 8.67961936368407
Y 12.460855768752518 14.996997021812858 6.545102841056188
Y 9.90598280621398 12.809767134111636 6.599971108804304
Y 7.410452340014105 13.27622696342594 14.975124638324674
Y 14.246777396068703 11.402755334227395 15.247861419150663
Y 12.73293837979613 15.226030850236146 11.053800820151672
Y 16.677833559184577 12.971227329771837 13.817046833642403
Y 13.977806978129287 8.15213138250115 15.17567186427172
Y 7.939094862108248 11.6577530887585 9.057013899457829
Y 9.551913291610731 9.660938250524092 18.8764217723149
Y 8.323979231998901 10.232927601013346 15.839908750197338
Y 19.544585060881325 13.771347457362875 11.475756516340363
Y 16.252405273111492 17.321460128705287 13.693008530157243
Y 17.638144926604873 13.42227050282049 8.832008780238796
Y 10.39076475711341 13.894790712652254 13.245756021933172
Y 7.747480255785795 16.32933903247654 13.983223769070271
Y 9.598985057875183 9.094084375535017 10.560547269773792
Y 13.981076501806015 17.993006668655845 16.105746534455175
Y 12.951975405945452 11.410821243739482 6.741255197121927
Y 19.802243421493593 12.01561216027753 14.30642275080372
Y 16.1040481939063 14.818243429723307 11.299324390667811
Y 18.46432451373226 16.77182166689827 10.613376913395637
Y 12.619811253334285 17.53496585962094 8.861438700264964
Y 13.739143789711665 14.911303111011822 14.340077086460978
Y 10.902896442807421 12.421768365496003 16.224664708577254
Y 17.63107976057562 12.34102424341295 16.828568502039133
Y 17.285158607013457 9.725088826549104 14.645494130048569
Y 7.832623524987663 11.1009484337406 12.537179858954449
Y 11.062577536829016 12.71541887013031 19.39728409283923
Y 9.1935245534228 15.212179095930216 17.107863269698264
Y 11.189647644478898 10.383877772914685 13.502201562768297
Y 15.636091750401631 10.5021199376287 8.8750008911565
Y 7.929610163978741 14.354782321612364 11.171087874988434
Y 14.230259522153961 13.602147820580937 8.733184308834904
Y 18.840313267831764 15.328057947978415 14.219567444755159
Y 8.732206839388288 7.845749136241282 13.461547442467483
Y 15.896926628402243 9.60823436655599 17.67043457591198
Y 10.806933940516505 8.018957516574277 16.002477861574718
Y 12.641102772848658 9.961574434451 17.88015984545091
Y 15.325283505983425 18.018141809339806 10.60186082702216
Y 13.012043519647284 18.139625426758027 12.812180465634315
Y 9.988203921849829 17.04954035554028 11.588339483019169
Y 14.549241446789638 12.787125850778317 18.255167097695406
Y 10.885506875113192 16.881308862136773 14.933905077662484
Y 15.790359426872849 16.300967873779257 7.9888667094886445
Y 12.574708109315793 15.292808044062701 17.53685866960201
Y 12.744742303484719 9.190728257658504 9.512275056145809
Y 17.769628721109747 11.041887107887911 11.384451052169517
Y 14.031348300260433 11.874561184357646 11.700450292138333
Y 16.174961469266336 15.447744778580521 16.622821327758913
Y 7.871014787330527 12.508819970982158 18.309912741363433
