55
Energy = -304.55076804 eV
Y 8.455288488609158 11.186041639824534 16.49138458605712
Y 15.930362384154861 13.642506759688231 11.241974102133929
Y 14.545547681404992 8.942198565966105 15.851832792304862
Y 10.980405555050613 11.699198458754578 8.943747853497136
Y 16.024043572588013 14.087536153513742 14.94094065373189
Y 14.560611121831457 15.090758622323975 6.609499302779844
Y 10.32178905041999 11.13891536590634 13.618386937599812
Y 7.9846216502129925 11.481027444471554 11.036978948952896
Y 12.88880711453778 14.869473837667352 9.565257144396034
Y 13.979936162934417 11.336803159120478 18.4374861201071
Y 10.831170659148013 12.583797954627421 18.338147619965234
Y 13.098818475370853 14.869933126836512 13.16402824851994
Y 9.939695391629302 16.62418536884197 9.56599788304857
Y 7.299152270012674 14.965215480443405 11.519717028465553
Y 12.975084621283033 14.989918834127979 16.819256200013182
Y 10.250423153594094 16.919908890445324 13.04877084409276
Y 14.279288281684014 12.055589819233818 8.274061488338155
Y 19.36172094751881 12.299934758736736 10.322732109883857
Y 16.635737144961414 10.410955725224156 9.968429463257593
Y 13.224338091287493 11.419692640401829 11.815650267826827
Y 18.949581305095073 13.3556731041942 13.308377107234607
Y 16.420325538119172 10.99045214867129 13.693874253935823
Y 13.197162657195456 12.002157104957275 15.26892126788314
Y 8.431997478954143 13.800366510172 8.598222957520532
Y 17.038914320471438 11.164576645815327 17.07420956424737
Y 12.586337092603598 17.534089199945218 7.610814789397221
Y 7.947059037324032 14.44930853005649 17.428364086745518
Y 15.6943099331564 16.71049760841274 9.296321475851387
Y 12.872082310218904 17.818287155343054 11.121400566171676
Y 10.462670756042344 15.773292877357415 19.389538267444443
Y 15.82638368984847 16.92618159389961 12.78415304524999
Y 13.100048380668213 17.890116758096372 14.87192519578212
Y 13.188293269448355 14.283304925850262 20.2283846196142
Y 10.259461219169419 9.165473553574214 10.944053258243427
Y 18.926495787997794 9.522100209954205 12.276261133159098
Y 18.9235042945003 14.026516345102603 16.623862649846505
Y 11.251231531206974 9.52073692975491 16.575441851091263
Y 19.805140197744528 10.877122398378912 15.186582471751331
Y 15.91036629475858 14.194933412599072 18.36296917358767
Y 11.235423947283016 14.530457208885373 6.845564825247185
Y 18.612663059817507 15.64503532525204 10.854832623029028
Y 7.406877156791246 16.172746266479326 14.670756472150904
Y 10.33150735758383 13.81245115744102 11.528003875795815
Y 8.375184711594335 8.902293576310367 13.84618157917224
Y 10.152850215415496 17.16160568197322 16.488071197155275
Y 10.1589322430039 14.053054159417037 15.064867792787082
Y 7.100085675927465 12.772556920952185 14.07533247324367
Y 13.288424213886435 17.410580411221826 18.67631620333375
Y 15.585036185919117 8.138595694494358 12.472252014163544
Y 13.451448499625185 8.97382070014548 9.86283762046919
Y 15.978757244557848 16.93781222276757 16.37190442124464
Y 17.750749484253262 8.290889091148074 15.192700521417686
Y 12.303642284390206 8.402220923046896 13.371145762526888
Y 18.707364256249303 16.426706385243403 14.301660895561971
Y 17.230967730240113 13.778515836225678 8.18773557226565
