55
Energy = -301.98285318 eV
Y 15.329119403500284 15.776966652216933 15.157504491498486
Y 9.744011187752802 10.447014693181057 13.90460650106761
Y 15.239591989581584 10.305238657846687 18.322980302619605
Y 9.5691654210229 15.602197642763713 16.976959399218096
Y 15.458746401928325 13.947485343251534 12.075972157422997
Y 15.216655810422298 13.956638492759133 18.273358780074798
Y 15.34208708844466 19.109252302650653 15.143451154638285
Y 15.429501851063943 17.486205908169268 12.134992835496318
Y 18.015861349321995 19.07258698334548 17.321708176212898
Y 15.337615288278833 12.124874966455124 15.161538603547498
Y 15.444197462740718 10.409746625373142 12.145109055517494
Y 12.31010404131172 15.650803380052096 19.011157091643486
Y 9.573952847740932 12.26981988742612 16.98480780500188
Y 18.23090332389545 15.621041379557287 11.247828430864375
Y 9.542686485594459 13.941650291744663 19.94956633035979
Y 15.363940971523329 8.787699372204882 15.159553889041204
Y 18.238442527995357 12.2796738678564 11.25019487551902
Y 18.20968750619119 12.13941047809082 17.33668163346938
Y 12.339384115509993 13.945008284869365 16.06606523997844
Y 9.613676147944075 15.753371932986987 10.849367385728522
Y 18.039399634426765 8.842348933715483 17.333662064822082
Y 12.36062244357786 17.53176506273353 16.060266762854525
Y 9.617279487918925 12.110423287490311 10.854314100923032
Y 15.219557122645465 17.604822546876576 18.31810309750183
Y 12.381836433955495 10.35911616123951 16.07087073040879
Y 12.542551926640831 13.940588393042605 9.85909820467189
Y 18.182495395380013 15.774200418707142 17.331494563336506
Y 18.246305056921656 13.95378142809293 14.240113644267964
Y 18.27246734936167 13.949548609004141 8.236071258780468
Y 9.93293609096873 13.928299695057376 7.799956022129117
Y 18.098393612653204 17.430126098121168 14.280454392040834
Y 12.568808527566647 17.498684476186327 9.963758598410722
Y 9.931955025512185 17.35723720787315 8.005007456763824
Y 18.112284950703657 10.478217040820292 14.28975933094376
Y 9.78716750877986 19.067635976388488 10.857507908252453
Y 9.948716229681919 10.500373072780931 8.01504354620667
Y 12.460370391945434 15.753926512001751 12.996592333273401
Y 12.583704499222438 10.380424768058482 9.974670479236087
Y 12.700883082945374 15.60956245058626 6.960791582077717
Y 12.485642767533928 19.097660502413067 13.052048715647665
Y 9.812528566521733 8.79633968818758 10.871820602868759
Y 12.710491378427877 12.258939681541483 6.966260485436578
Y 12.46912237350502 12.130626104999779 13.00338906756517
Y 15.610926108650336 15.763723306479298 8.969299593464337
Y 15.599300284302231 13.941626265512511 6.252030908187314
Y 12.512424342312405 8.784423549871212 13.065225613989364
Y 15.619284821947263 12.127512733571448 8.97515809853648
Y 17.904984596639608 13.959766278685404 20.346043952246877
Y 9.55851631458737 13.934462358285117 13.951933553498918
Y 12.32237101020117 12.254455271522035 19.014238299059816
Y 17.91144063430687 17.389345775925538 20.197648808595286
Y 9.723256657471811 17.423505446211216 13.89505364647794
Y 15.142227367909886 15.610614006862091 21.154994976416035
Y 17.927890727888194 10.530953260754018 20.202044719729663
Y 15.149600828008666 12.295351260388111 21.15894351524586
