55
Energy = -304.26311131 eV
Y 14.995893444825255 15.558303718055166 17.186411879862742
Y 14.838935782174898 18.29827487226464 14.709937501192044
Y 12.270158143596365 14.21037650507165 19.42738168962092
Y 11.72933688321831 11.081084206488585 18.213543963466826
Y 14.813576989879952 12.47693293062408 19.47274456538052
Y 9.980727427350212 18.28117181096707 13.500387553163849
Y 17.8064946981858 17.07582058778057 18.548029270484133
Y 14.560797324333995 21.61596061852028 15.843789737766697
Y 17.496505557799342 10.189207379270192 18.90060418378566
Y 20.462859016638504 12.739489481295184 14.4673816242484
Y 11.732636567178814 13.985802683190453 13.084832074935624
Y 11.880684593932349 19.618914086251024 16.235995059668657
Y 8.858285314495774 12.306181899608426 11.870450180680631
Y 14.88746043622456 18.880766549966342 18.153641022436155
Y 12.980206893393673 13.155726036701065 16.13359568179534
Y 12.949357487588523 14.142060607578442 10.043269098889647
Y 17.888302738882874 11.060513801756032 12.6174172221837
Y 17.74777363720422 13.585387031319211 18.813146605301203
Y 11.886388245334562 16.38749172455634 15.398469457466419
Y 12.8448439841074 20.412195075730146 13.149363641528003
Y 19.68705195045565 19.46856894473739 13.76427742699337
Y 17.963446509495146 16.73611831456927 15.214372927110322
Y 20.583354177612655 18.244193259887005 16.677142362228818
Y 20.1510897179162 14.976336248644527 16.977735029413026
Y 9.78560703575427 15.532209234991708 10.953838203047697
Y 8.772513756321606 15.121494782089858 14.272955553283358
Y 10.328204467764738 9.317965820489071 9.65380907661095
Y 9.678979967561236 9.078166035234997 13.005792272690575
Y 15.152994466948032 10.798740875666072 16.698031756881146
Y 13.250432930752565 10.97600284901054 8.606159427561558
Y 10.3129839676165 12.588830641401735 8.91786995684235
Y 15.674742820524372 8.669136363883949 14.102195840891273
Y 20.94085816655226 16.26562605333201 13.944262054275457
Y 12.432981228257189 9.678889319791761 14.890403201155692
Y 17.35367074897652 17.74674625810926 12.1333962131191
Y 14.732836604857246 11.731152497127153 13.386497304535403
Y 17.240609825132243 13.28961797156352 15.437965636707968
Y 18.52568979661583 10.148851338962661 15.740908039164404
Y 15.12610975175181 15.059382269718101 13.022612798791267
Y 12.645204150451146 7.89365657750031 11.967610948514738
Y 16.52950725169129 20.8491167030038 13.25102091682675
Y 15.733472269942268 16.08014478361462 9.801071088846756
Y 12.744117130237585 17.1351602487967 11.88239654923421
Y 9.085193610624001 17.681995191631763 16.700685193277927
Y 15.972045775758595 12.720818295373144 10.359475318580998
Y 15.295764130488585 9.50940671969307 10.890886621987123
Y 14.994324885105236 15.907020850556856 20.356393523816042
Y 18.373680935333017 14.46776533974083 12.272281490333485
Y 20.35833949596531 11.772962302387267 17.848506662053722
Y 9.90130693873157 14.426946051677312 17.3782087682751
Y 12.025481054644684 11.095807336619233 11.639529408590521
Y 12.02000293995668 17.245535903118572 18.61077026257745
Y 9.890953575609178 11.904303815287248 15.119177358249514
Y 14.915684240141408 19.260235705418342 10.77502802814175
Y 17.586500143651858 19.936395074918824 16.353302351075897
