55
Energy = -303.07883848 eV
Y 9.084694408267177 8.45006872383882 6.309621116957872
Y 13.717152836023402 7.2952735449003905 10.708220164459378
Y 10.398543849788863 5.955989043165387 11.546246528348798
Y 10.994369948589615 10.352331946466913 8.367243152530968
Y 8.032936956446992 14.259475151055588 8.009397186782639
Y 11.028219035733873 13.557638142070125 6.932222070536267
Y 8.745982870732345 11.602512105611552 5.789943791941026
Y 6.733392687500244 12.899064068649999 14.510166744183406
Y 13.229731733996058 10.624089646268475 14.33683882761279
Y 12.73388083463386 14.292669782603493 9.731792571017545
Y 15.687982076387804 13.830705121413597 11.159242405019622
Y 12.715429619282752 7.145427427992248 14.065778096228781
Y 7.3692629769699325 10.902579088900687 8.712976031393813
Y 8.366526550879852 8.62398750501898 17.72894602279382
Y 6.718112696429026 9.487871937449823 15.099114594319433
Y 18.723926996192443 12.907016259069646 10.629752839344997
Y 14.95230352342643 16.7874559628082 13.049698328357938
Y 16.785945739003854 11.458497989371981 8.348018780201556
Y 9.883798920072625 12.596887570771152 10.466999325839817
Y 7.667098240935713 16.262821307027465 13.816386312429067
Y 8.682499232040223 7.959692458406311 9.555003044792649
Y 11.51428139689526 16.544809287825693 15.063522125784333
Y 11.850503058704835 10.13478686312318 5.3874441904702355
Y 17.116355120381872 11.087077700686896 12.937427146913048
Y 16.654235054941047 14.712887905895732 8.19416078567912
Y 17.823144845061822 16.31205011572657 11.001461066309195
Y 11.007535555555465 16.70672925234204 8.186596490356017
Y 13.179100862332282 13.876645215117907 13.229709600206254
Y 9.733014218393107 11.064220138498529 14.693042582344344
Y 15.866674068577616 12.12606855337585 15.702810437132284
Y 15.52781459966317 8.341274427627848 13.164112283792631
Y 7.736580315755975 10.310901609673534 12.070533419344812
Y 9.820493426742702 11.523592666339953 17.969251437423534
Y 8.615325995336011 14.517538225767069 16.66358490072719
Y 11.064235087071024 9.275972629276106 11.752892630173223
Y 14.43807257996355 8.992660204341277 7.813136837929485
Y 6.824969002827809 13.70798571175738 11.23032697733583
Y 14.022801089157449 12.30704027607417 7.188842380308206
Y 17.394098067178486 14.474972063939315 13.85956145011579
Y 7.038910392152209 7.018092837582874 12.2960028785529
Y 15.148005691750255 8.899362519230069 16.415920914551812
Y 9.462555332541685 7.614772023057449 14.403944966350915
Y 11.65109515900715 8.898602682269829 16.7617954470996
Y 14.628801633662368 17.039856904134446 9.657724909166465
Y 11.854120636130475 16.987601965437676 11.740792026867938
Y 9.063992758850933 15.903173705006694 10.63002521734205
Y 13.514731369343128 11.522681092873349 17.819440212791473
Y 9.828713366652861 14.144149071982216 13.389381517613222
Y 13.72705977366887 15.647717844327646 6.673942743382887
Y 11.699879586446798 13.476456832304459 16.178908585833625
Y 11.55937761118069 7.093693083387332 8.200727745469054
Y 17.062195446398487 8.998556101618863 10.361982836668913
Y 14.120582070860147 10.807717908832998 10.688997282422243
Y 14.572896828057855 15.075835934076263 16.13855987850193
Y 6.608051320465473 11.584456918669396 17.64182321498908
