55
Energy = -304.32868262 eV
Y 6.630127661789731 9.163404787329691 14.046749606272607
Y 15.203311379211145 12.92653265661517 10.319532437045112
Y 12.30657539542955 8.306038000632318 15.86136675886669
Y 9.41050810884281 9.966718102066748 8.736553654400574
Y 15.188171652776587 13.240910714307732 13.853422021596842
Y 12.640911191301537 13.524865099976207 5.070449962733165
Y 9.394178068906541 9.964619275493678 12.337012805939343
Y 6.637573375690009 9.15710965169144 10.621124233674857
Y 12.358571521574644 13.794429213783083 8.53722998656908
Y 12.250446319715532 11.39064451684678 17.539070987843946
Y 9.397282033017566 10.178538217831017 15.876586853498504
Y 12.347434035869856 14.165223852977268 12.084726481817611
Y 9.204390042690555 15.876686508367614 8.743839543412259
Y 6.676446571890409 15.056395263401669 10.741003556250892
Y 12.308754922037819 14.24445012783036 15.642690130763485
Y 9.496452044893491 16.254442730069243 12.206335389942707
Y 12.373607918872628 10.748888854721914 7.026131229147404
Y 17.95437124821953 11.536450284731279 8.837184488813518
Y 15.173349549727883 9.675279026349607 8.859228481253883
Y 12.270534577789096 10.891669140923021 10.529000328614087
Y 18.17073739001799 12.001389092732065 12.159080253747751
Y 15.128904862568485 9.977039180029225 12.384017846354793
Y 12.276762404488744 11.11838229097284 14.056106949858691
Y 6.812150371553178 12.309004856432214 8.827809033389395
Y 15.17162456363531 10.383222157529374 15.935209477712004
Y 11.6960156320185 16.215129968646597 6.579475539870538
Y 6.696683087451867 12.209601966887698 15.691083893463496
Y 14.927648242773676 15.766051517646822 8.233338617761033
Y 12.208730810580281 16.937436817197877 10.014744606285596
Y 9.400072950999386 13.330842844463906 17.36676852747711
Y 15.24071361313694 16.14457169074502 11.687041579833599
Y 12.517015576443221 17.1836141109422 13.769240039132306
Y 12.054578269816005 14.410287709230653 19.123818953215743
Y 9.33519432260319 7.011978199906203 10.700070433407182
Y 17.81355149764364 8.786728513566118 10.910557820988524
Y 17.84322053679329 12.608372133523341 15.576820737586262
Y 9.351154740289799 7.1124133238069005 14.179829278749276
Y 17.888096816227733 9.313827475782267 14.230409972722748
Y 14.980191833445975 13.722748494741783 17.413015121251956
Y 9.670943339582859 13.081266173235397 6.848343991734257
Y 17.87007815836285 14.7275619356899 9.885707542102203
Y 6.836694319224326 15.1644852892653 14.171676344356397
Y 9.463019355531761 13.064197321330886 10.482092622400087
Y 6.575144677122465 6.263586886877853 12.414035014384401
Y 9.79080403561862 16.2796257997848 15.696473949124275
Y 9.439436583769911 13.205195230580138 13.985119805679426
Y 6.482605268927092 12.163324410808043 12.30973782776524
Y 13.04071998998537 16.87577783487749 17.279703950672047
Y 15.039537915040771 6.916291425777856 10.858032244564466
Y 12.23185142287703 7.910512575718528 9.048625581762836
Y 15.522791725471823 16.27915886288327 15.164506531347953
Y 15.202103672940703 7.312538135801951 14.234921057716464
Y 12.250792433058553 7.884350864326 12.475742087514618
Y 18.001490860860706 15.076575354648979 13.299773342427498
Y 15.269525936343241 12.613198365116371 6.96141532263568
