6
Energy = -26.63141166 eV
Y 14.854327868042946 12.450775791001261 13.263224552226884
Y 16.43606046238286 -3.7417071260466117 14.366038046109189
Y 14.179912775673666 15.473442872546599 12.099665905555902
Y 12.371669839996159 11.396709678778999 15.153355387690446
Y 13.31834475087028 14.568382570469456 15.165329470232576
Y 11.741667181656718 13.232409724877638 12.651619640404688
