6
Energy = -26.73132549 eV
Y 6.889663515329505 10.06132560563638 8.379985629067564
Y 7.396446889695399 7.463779118258586 6.497629396307916
Y 6.9849201800576255 7.129876323699199 9.772881242572181
Y 9.81578624325004 9.67075760646431 7.027781465018761
Y 9.910939332908878 6.739425149701577 8.420688860917705
Y 9.404280838758192 9.336873196240067 10.303070406115744
