6
Energy = -26.66007964 eV
Y 12.035150073380604 10.155619479719402 12.737817699876013
Y 11.536703895615606 11.18496364117788 9.689835675347377
Y 11.218646973999506 7.987395399481359 10.470494143395584
Y 9.13677552272873 9.453939920652287 8.192473853214429
Y 9.068737645662615 10.333577070013112 11.386245609643936
Y 8.644932557340969 12.548959448530683 9.02915021982689
