6
Energy = -26.66066099 eV
Y 10.480026895854332 11.419111085014713 9.265976045226145
Y 11.958481563465023 8.49173553027066 9.697073952253762
Y 10.850613499319108 10.323107173949426 12.361027442795725
Y 9.982556720362997 8.969523968461585 7.167731754487383
Y 8.732044978862838 9.029023133074071 10.181282991901462
Y 8.187210462007446 11.958433229101047 11.517841933207023
