6
Energy = -24.88194469 eV
Y 12.506245094924427 9.392482682229142 13.899802838562056
Y 11.79544925492721 11.51315970851018 11.62300173438661
Y 13.063802758466093 15.835161676038277 14.816510572530273
Y 13.525778178465256 12.56028750611267 14.056658746381618
Y 12.674807405133981 14.738294609805148 11.807580548630833
Y 15.610072259964669 15.083147513542643 13.045555696474095
