6
Energy = -26.63643077 eV
Y 10.4080001163808 8.767170762562314 11.098271561908293
Y 12.300687355566808 11.501857470424856 11.3231063596281
Y 10.591383824815882 10.714405359954121 8.566234056098562
Y 9.173662342121217 11.800450972534131 11.31974788469594
Y 9.779461144107577 7.567136192286238 8.116528024850489
Y 7.61356405682907 9.515738082060086 9.442870952640117
