6
Energy = -23.61203591 eV
Y 6.726487317671654 8.186639662487412 9.205214423639891
Y 11.94952888542948 9.092970050598531 7.080648357452824
Y 6.373310640756605 5.650900447917218 7.157473394175703
Y 9.17582042432756 7.34756821793182 7.097329260380624
Y 7.1510567873003685 10.723155575033315 11.237264894655395
Y 9.566240182454752 9.941211046031947 9.164514669695318
