6
Energy = -26.66195762 eV
Y 11.13156433595505 12.066889442654116 11.037166710972633
Y 12.387532278986018 9.21456282469338 9.626739244624043
Y 9.940382434319254 7.310143502359552 8.68333270113204
Y 9.553238002264598 10.547454310734887 8.55411100010463
Y 9.549449868242375 9.175998922663725 11.329913021911652
Y 7.890601662670116 11.957041174191929 10.979320779874282
