6
Energy = -26.50573086 eV
Y 8.913645245237282 10.871389179597388 7.999058834151909
Y 11.684697774015039 11.012525901723354 9.530415402981934
Y 8.957303571810941 10.39164145795567 11.15594683360383
Y 11.79277988289772 9.49401327769205 12.355015850007478
Y 10.819407650012485 12.81804243368217 12.057111768847575
Y 10.408646799629071 8.075442609241474 9.509610953870231
