7
Energy = -31.58667142 eV
Y 13.849565174942173 11.19149942328112 10.544762366906577
Y 8.92150153267887 9.738745207429625 8.181615270194193
Y 11.628379815782248 10.396788308851034 12.734853085943909
Y 10.56490586228803 11.837312553033865 10.015042263060376
Y 7.269772624023426 11.726350304341043 10.159908313361385
Y 11.770577925787666 8.797894276504994 9.900024600307782
Y 8.837188433004057 9.221874652150932 11.38885233987142
