7
Energy = -31.7326115 eV
Y 12.50766441596974 12.871163295760766 8.849505832969635
Y 9.739332944069172 11.550868531031226 10.196904927335513
Y 12.3264745740185 9.716017322997558 9.668346648427091
Y 10.458206946086333 9.357018402733896 12.436315641193074
Y 9.40387084975875 8.284701492269356 9.542559947870648
Y 9.405582769658842 12.270182812923416 13.461788706057506
Y 12.329129715869321 12.120310357714017 12.014840511577054
