7
Energy = -31.58610463 eV
Y 10.03399337639539 14.237017025195774 10.593057119931602
Y 10.966463024507103 11.48239030947018 12.231128091383374
Y 12.674268761330033 12.576456197335055 9.704156990152
Y 9.684617990765178 11.384311033456667 9.121616415034362
Y 11.707335158815683 8.303118909580027 13.111962476001949
Y 12.036807708700715 9.246720293412329 10.058499807175401
Y 9.077496997779747 8.950969249843965 11.360562118615047
