7
Energy = -31.56691892 eV
Y 12.622333532974622 14.408774830264186 12.882028036847501
Y 11.158359730720937 11.783069057470659 11.838244527500883
Y 9.538156832206674 13.772137409150583 13.981901419867883
Y 14.34936029149071 11.586122341689729 12.551233717304957
Y 13.342997596455216 13.013838961577257 9.79127500043777
Y 13.1767122279599 9.718432135025012 10.173148596769824
Y 11.970388355710543 11.875933832341078 14.94047726878944
