7
Energy = -32.35176922 eV
Y 8.357417563761862 7.186703805013723 7.195371382923201
Y 5.45705767891173 8.55453979403499 8.024270868527532
Y 7.594556224000654 10.289588762665353 6.326826726734136
Y 10.786558021974992 9.325528498820207 7.38747432614907
Y 10.53732280970889 7.0021131975643565 9.749520521648748
Y 7.2833128771573605 6.47896004962142 10.169500070529713
Y 8.296721824484628 9.475513185071941 9.459983981862887
