7
Energy = -31.73137309 eV
Y 10.4801281454469 10.065245897251186 6.273363951826438
Y 9.047625099509045 7.3632654391536025 7.384743366783455
Y 7.655094119805212 10.371208682297667 7.855218567661899
Y 10.207866606276395 9.423766885197285 9.561675683779864
Y 10.037065726171727 6.1231745913082865 10.217364831712027
Y 7.3850347121845035 8.013520077422953 10.218736975433904
Y 7.703887390507828 11.156520227270626 11.005598422704283
