7
Energy = -32.16996718 eV
Y 12.934121822527043 8.100994160288417 8.85311541134058
Y 11.234315776616976 8.946937313562321 11.539122480253292
Y 10.205847715314986 12.066989176693989 12.099450474255772
Y 7.986408506949542 9.68304809424393 11.399995585322069
Y 8.656269727794713 12.052553040456095 9.164357568041437
Y 11.901296118878756 11.224933052412295 9.340425308194055
Y 9.741081563559035 8.935090493276144 8.658270926476945
