8
Energy = -36.12943229 eV
Y 10.381861879685092 12.654553233842197 10.90493878531172
Y 9.897188714628264 8.929754425025443 12.605157763650475
Y 12.44161508457929 11.313091766465124 8.329400264511687
Y 11.912232299687302 7.411185542322028 10.066697314707223
Y 8.936980933202461 11.452097824382813 7.895036458800554
Y 7.609467909500319 10.726890310355707 10.877371159255416
Y 10.489086043564896 9.891896751545932 9.848960326170925
Y 8.458107539435431 7.7470705503438175 9.598978331875058
