8
Energy = -37.1595057 eV
Y 9.123864079340313 11.39319926989927 10.227471285112365
Y 11.59015715786315 13.54098759519772 10.715998240032224
Y 10.411922444328326 13.005868344962305 7.6475415521037675
Y 10.39790749836963 11.772653022141235 13.339199816069144
Y 13.379053828125668 11.129170374194521 12.287216236829622
Y 10.905688093681876 8.962945558896006 11.788769704205956
Y 12.115041505782564 10.736215731778957 9.174917125634384
Y 12.099815579345409 9.482410289766644 14.842336226849332
