8
Energy = -36.54024574 eV
Y 12.55624160407595 9.555457845108679 9.671402228076701
Y 14.082628958287069 12.415370128636416 8.872544141370845
Y 7.5190944986096 8.861653920959935 12.737339377625759
Y 11.55989005696489 12.258685143745327 11.133610078226791
Y 9.259795113407302 9.990576599111971 10.042915323807179
Y 10.794261573688475 9.488229936930384 12.841102805354105
Y 8.536099568227636 11.87504527640826 12.64665764639469
Y 11.09279709081744 11.903160318615097 7.893247590613587
