8
Energy = -37.56570383 eV
Y 10.619499247886367 14.408777339982493 14.834901197808716
Y 10.773719719414068 12.983932579220081 11.749991757587443
Y 12.91874250400451 15.137489197837406 12.733575259405994
Y 12.710638648510164 12.103605028482217 14.13711871698862
Y 14.384863061563696 12.55494431138696 11.377458489228752
Y 16.21675345528243 14.952946456314859 13.01042767343696
Y 16.016158952216937 12.065983165947616 14.371122727387057
Y 14.116304395934176 14.59050889549459 15.709465163693439
