8
Energy = -37.15667297 eV
Y 10.806775576132559 8.214020350672943 10.6043672897165
Y 7.605963388632067 7.674806477974328 10.596161317555786
Y 12.23764353500827 10.766847539056412 8.90041131042165
Y 8.90073693536105 10.18586697690978 8.87087107075975
Y 10.276171073484901 12.805709890947865 10.489005148154032
Y 8.877013868063356 10.267460794089846 12.211570514732468
Y 13.434799401844668 13.435574673463291 10.49604745424243
Y 12.21473258265292 10.845200116238932 12.19900571156855
