8
Energy = -37.08844962 eV
Y 10.501239923214097 8.968949283393583 11.909677144621616
Y 12.486936150170445 11.438877681660534 12.90473460222413
Y 13.05781054143679 9.869353451476888 10.00679681983074
Y 10.287107816962555 8.80225887227873 8.709442588645453
Y 13.37977352514268 13.262084137390994 10.2670054975445
Y 9.194811689439005 11.789271070355111 13.326422338403752
Y 10.392842054459802 11.881005506065232 10.264549599992627
Y 11.104980959149499 14.381757810579487 12.44384966306816
