8
Energy = -37.67784537 eV
Y 10.659447438168822 10.799448560720398 10.738447101711747
Y 11.15164144784973 7.301361570014512 11.080717869377825
Y 7.6667841602173255 9.339805035034386 7.647861517903192
Y 8.907082906410224 6.20459864331392 8.762585832151197
Y 9.864035427294981 11.908445612248862 7.644511011411907
Y 10.770508925728798 8.778020034258265 8.245610849091639
Y 7.528504861703267 11.806504973702154 9.954936297026817
Y 8.258118832626982 8.667939570707235 10.731453521325676
