8
Energy = -37.08968524 eV
Y 12.414582601594125 11.793466874648859 8.497330218724727
Y 12.752268589239431 11.256646217266633 11.711416477354394
Y 10.725836155328413 9.287567999194314 10.054134088194644
Y 12.682874935653016 14.454724565806568 10.594839265512118
Y 12.074130077973466 7.999957722228716 12.745597898135108
Y 9.9497445541436 10.404000144475932 13.21448682270805
Y 10.003705126928395 12.486050758162149 10.652314612213543
Y 11.282522555651543 13.534140228583551 13.531073895688898
