8
Energy = -37.16423897 eV
Y 15.436885321628512 11.096920756440056 12.928027274848645
Y 14.392161096403587 12.859667484781227 10.247857985552796
Y 12.49716402248053 10.510562800900553 11.636001869615583
Y 12.814581467478938 10.708384533079723 14.861376816472918
Y 10.008264568664204 12.01226213722328 13.320350403845913
Y 12.94849836061481 13.442975232419979 13.09548582772121
Y 11.024130655804958 13.23249387678933 10.41630053023689
Y 10.126157271569793 15.246324074656279 12.72943969930496
