9
Energy = -42.77456805 eV
Y 7.839467580804918 11.447531201170294 9.249886239542201
Y 6.71022157903978 8.130287696479483 9.869781556361717
Y 7.178317049002472 9.4507425861154 6.749627427879133
Y 9.435303237070912 7.71618637555473 8.293885518812088
Y 9.674783491431384 6.296923053644307 11.12628422016019
Y 11.114014687011977 11.987698634495766 10.190689112710814
Y 9.366944557660865 9.457983021138816 11.20801252283074
Y 10.380317340485869 10.596587093254183 7.326958608781689
Y 12.1279264774921 8.743356338147288 9.812170792921439
