9
Energy = -42.77661808 eV
Y 12.973281543092142 11.020421559445678 9.643111002312713
Y 12.043298055063843 8.342608941180957 11.799907857842223
Y 10.422025147454642 12.193675487912598 7.665811177795885
Y 12.968552320554085 11.494751410013205 12.853628940179753
Y 10.81323273830818 13.251479443038784 10.751827822247025
Y 9.929104129747811 10.626948940125859 12.297687835992274
Y 7.935259473053396 11.356090721211537 9.844904573323614
Y 10.310804452646419 9.324295344815749 9.204609931435627
Y 8.404977674374214 7.996109239271696 11.366883022728791
