9
Energy = -42.83768145 eV
Y 12.318273680052348 12.735693415730513 9.83894408272443
Y 10.205086793344131 14.236138999362282 12.096995542759375
Y 11.730928457314226 9.078540118232507 12.69319478844422
Y 13.677324739755544 14.608327370082126 12.046372185537006
Y 9.799301531847236 11.024291651326902 10.938885329204393
Y 12.285912426338976 9.430981282019449 9.39280101460226
Y 12.14222572514618 12.142385547294522 13.302890841454719
Y 14.442003055525602 10.91489076747959 11.523407145129983
Y 9.12862194161446 11.53828526618995 14.017257163299188
