9
Energy = -41.65616538 eV
Y 12.035438780152337 11.009191889986033 10.948961641248065
Y 11.663557435588888 11.375699725252417 7.6331987004785615
Y 10.896655884223108 13.870503141552952 9.755193010910622
Y 12.725706676656536 7.891681864887233 11.891725354561805
Y 9.590637933680933 12.606165322728092 12.583428351569342
Y 10.751544103884154 8.380309179639864 9.259373161712768
Y 9.614950322259578 9.100706226118174 12.202919015572428
Y 8.992359967261164 11.18747656979021 9.613992474133768
Y 7.434997321955669 8.284114505707398 9.81705671547502
