9
Energy = -42.17160306 eV
Y 9.053258617540285 7.685982278717417 12.67434582972439
Y 11.521307802540562 9.847563395172541 11.63188579567736
Y 8.662586203561268 10.897911842312181 13.047721479722378
Y 10.688879232429192 7.088128834190318 9.925444293337666
Y 9.985099973051403 12.627334946527801 10.62656915873226
Y 11.463209099655387 9.791488328427183 8.287885404561045
Y 12.82257930517951 12.571200230431067 9.121169303058542
Y 8.562527710174614 9.690156329606108 9.923370652296988
Y 9.906224669727775 12.46590642847512 7.42728069674963
