9
Energy = -42.2934902 eV
Y 10.797525707223508 10.432612296908928 13.604812342614503
Y 8.937801994196455 12.80661687952452 12.2178663201133
Y 8.695247999663152 8.501434853706533 11.901832159236578
Y 12.294455546165006 12.460329564798384 11.42453623331196
Y 12.468707486663895 10.719957151938994 8.431481933759267
Y 10.358047461026876 13.44880079714394 8.905165440961301
Y 10.05785595574372 8.19493483434226 8.518748453546744
Y 12.080512188277112 8.581922215345372 11.137773868860945
Y 9.992731849752948 10.719896804182607 10.34700738971065
