9
Energy = -42.82427111 eV
Y 8.142145279269505 6.88739955050182 7.7974601838534
Y 8.199720405722681 9.462811962903675 5.76721154036213
Y 9.307098903453193 10.819135463805939 8.51587438300104
Y 11.186234221677408 8.649254427079706 7.1360760245735255
Y 6.451122502161389 9.46890688092666 8.720425298199734
Y 7.022389674134964 7.123944373146974 10.961863459739625
Y 11.882412667793389 10.393700803957769 10.210658496296931
Y 10.111995968979093 7.806997135175783 10.09370997616533
Y 8.475530688956445 10.16649971465002 11.575370949956325
