9
Energy = -42.50210334 eV
Y 11.41486353537662 10.409840844325801 12.854478334844966
Y 13.210745590748697 12.293107833892298 10.902380770742802
Y 14.054557295638734 8.968078733241853 11.731409446570348
Y 10.071705239159975 13.285412173825248 11.992373489002258
Y 7.4483156920741855 13.300316812824558 10.125608461738134
Y 11.038870216997179 7.430435778950379 11.633797225256084
Y 8.900498841589618 10.353325839068727 10.791643064103688
Y 11.859416528748628 9.72725361560179 9.51144955763687
Y 10.413540212542008 12.643454571870945 8.871067859906006
