9
Energy = -42.37722011 eV
Y 13.231352289228566 11.330036649643134 8.33359057354452
Y 10.573420989838123 12.821898498889714 9.529495922597132
Y 12.810100958802563 11.821640724559735 11.830175093041685
Y 11.776917244132514 9.068533564950261 10.201769195055771
Y 11.925628836176639 12.116899642202727 15.066681230376059
Y 10.239383827954878 10.21702204062286 7.471910184389122
Y 9.73457245774646 12.72613037947816 12.767629605884466
Y 8.768477498961925 10.291830596317384 10.52862731770387
Y 10.709627276331464 9.688593498042746 13.311570663480305
