9
Energy = -42.57319444 eV
Y 10.018329325494042 10.66697888725923 8.60524075347442
Y 10.817935988583907 7.416637086349595 8.952066649063461
Y 6.20944633591283 8.051881217741409 9.1135087383641
Y 7.474730760515201 9.836740570045688 6.668719452496242
Y 8.268047599309917 6.59177294154721 7.0184016788122
Y 8.22729047596655 5.646196044917253 10.251499214754482
Y 6.852851362869636 11.279322932072517 9.646527546456722
Y 8.667386777958809 8.848642986699668 10.972827823055193
Y 10.571957468423008 8.769804484195214 5.879185143523294
