9
Energy = -42.53594053 eV
Y 11.201390169404236 12.460126374289294 9.320846138024306
Y 10.920323636290679 10.056472626910226 6.9810762761058465
Y 8.309150035438593 11.007744301175082 8.887207456885527
Y 12.645759112162276 9.458326948631418 9.805962191969853
Y 8.737404929669951 13.035738985306423 11.549511124984118
Y 9.751316380113638 8.00398981049476 9.370625012788855
Y 11.394414836062285 11.167233800107352 12.420025750944145
Y 11.244783896727238 7.80434762439273 12.38381838720083
Y 8.498978001850107 9.709540526411468 11.98444865881527
