9
Energy = -42.61718973 eV
Y 12.691550798200062 13.031128990068408 13.50571749942975
Y 11.738311914804083 13.195414308696979 10.33115212880097
Y 12.445721676792433 11.258866668764426 7.87859283217939
Y 14.085366007408142 11.075860206517369 11.008446285754253
Y 12.134126748217406 9.876134685564603 13.620194428745513
Y 11.163405527942468 9.817779051091417 10.44267258271723
Y 10.63306403684649 11.864250436746545 15.735331177403701
Y 9.688149812729101 11.879327446531931 12.518006734780464
Y 9.248864706387241 11.829799435346182 8.788447559516738
