53
Energy = -116.39664930 eV
Ag 11.235918793832903 8.433261957354519 7.637360458250223
Ag 13.321481596262732 10.190221534498521 8.414595428852419
Ag 15.60049037868968 11.89795428818905 8.859685200133907
Ag 12.900485517156444 12.94167092020047 8.650941124186835
Ag 14.759956811012566 10.008159301211135 10.848001618051713
Ag 13.243909156668936 7.718295067825949 9.697496226258245
Ag 10.67430383598401 11.137700862762077 8.327532867004935
Ag 10.206035815912943 13.893417070731878 8.642102555416239
Ag 8.523915720698843 9.368578896370016 8.572136503820353
Ag 17.121381302468837 13.911025892396667 10.135330857442934
Ag 14.949802728195989 7.440299019363022 11.971111701231072
Ag 8.056008014251962 12.167981228601818 8.359401387015199
Ag 14.780040670070417 15.017969160694618 9.209074934874677
Ag 10.678655306971775 8.801907505829705 10.247397932931335
Ag 16.95898208979427 11.613196344064159 11.654828268158512
Ag 12.103480602259323 11.257892490458252 10.955015379882058
Ag 6.915928698692619 10.830777939732064 10.4896736834654
Ag 12.225518658565658 15.76347261272091 8.551492026974504
Ag 11.757039491488571 14.077832487284612 11.060931233290347
Ag 16.094495597846187 9.611879143562412 13.400614030651258
Ag 12.561518434225452 8.756773822151544 12.302250728490623
Ag 17.85203724395263 14.08006588748437 12.805143813879175
Ag 8.08044595715896 8.434741821101484 11.193780759414697
Ag 7.969766124944655 14.476629300704392 10.169444101592017
Ag 9.431621733441242 12.14935243894758 10.988627861409517
Ag 14.460795610342359 12.975791983907946 11.135354640740152
Ag 10.18197462546738 16.273610618223994 10.475235828348525
Ag 10.054700664986719 9.887839214259872 12.768606082180101
Ag 13.864274316767133 11.35072642606603 13.314979523771028
Ag 6.971037109921777 12.95490802452796 12.29625098905878
Ag 8.346714694376509 7.850607844932827 13.86571847595486
Ag 13.164304452879131 16.537519320786433 11.080724876551635
Ag 16.599975542991867 12.20796130375507 14.404483356830262
Ag 13.91112400950128 8.233208334775924 14.607993729768847
Ag 7.279606351778493 10.380577650119374 13.289842928037332
Ag 11.208975664921976 12.44213095587356 13.415369872096218
Ag 9.34561903489714 14.572777377904012 12.669969151658202
Ag 14.858546698290283 10.606224498497559 15.879688184320889
Ag 15.65133534564161 15.603445075801629 11.91853170028714
Ag 11.05889090837388 7.7179502575891075 14.460784378641813
Ag 8.60492518167743 12.570762287158335 14.53229163162885
Ag 11.97653143048881 10.215345892291458 15.147146050970196
Ag 15.971394539193863 15.010315491682958 14.637959118394125
Ag 13.370563728589328 14.334530617257133 13.378931100415082
Ag 9.172675448794319 9.958316339711388 15.481880843207941
Ag 15.503801167467197 13.270269098065533 16.75896343626998
Ag 11.258668730100432 16.562041168742756 13.095058278664949
Ag 10.418177630180715 12.19970203793852 16.586151595261704
Ag 10.907138759860326 14.665911984757264 15.197764017116917
Ag 14.028384124413304 16.988467906844235 13.849962358979269
Ag 12.991642694339461 12.74075770365922 15.782001518481835
Ag 13.649058716618068 15.36371722298623 16.208587992429134
Ag 11.848357395262598 17.353207884605606 15.66865212476931
