34
Energy = -73.13121123 eV
Ag 8.052564480767467 11.058373997301892 7.518668906838009
Ag 8.27907345738055 8.590093757264896 9.05557586563292
Ag 11.979709202668994 8.956940703824042 14.402601303714109
Ag 11.809139929735544 12.453984481282921 10.659487295732179
Ag 10.813138787601941 7.296537048475337 9.167997885705542
Ag 7.6870799204213816 9.273973822855153 11.845003865340281
Ag 15.424347783794698 11.226745489738443 11.993882441527813
Ag 8.92265261858518 6.887295360281611 11.20008637412228
Ag 9.417979075092674 8.098190542552278 13.697521852112851
Ag 11.529443626704142 7.374888848983133 12.062406355645441
Ag 11.955032525465512 15.2154493919587 11.139326799049332
Ag 10.056604466537568 15.01801182025156 9.096682620221781
Ag 14.013737528484976 13.621900047829108 12.210968751085275
Ag 9.341656743738179 14.261220333364173 11.66203479102675
Ag 11.500605917948787 13.549672191760662 13.401021642924555
Ag 12.624985706516926 14.116265391795135 8.518493714978343
Ag 14.633745158444828 12.613790243906672 9.7012965616839
Ag 13.526694397584874 7.272314892641678 10.158943121629283
Ag 13.27286592377571 11.376938752922438 13.765245922304292
Ag 13.882508074848719 8.963732181496223 12.365605176496462
Ag 8.874283353396903 13.28445426162728 14.218355423966111
Ag 8.289906761921051 10.565563055083572 14.266590496712853
Ag 7.904202926277578 13.27185969838302 9.387412854747899
Ag 6.545186938970368 10.770748120650167 9.82854681747067
Ag 10.354394579497624 12.605565900447786 7.74058678249163
Ag 10.485171678862248 9.72049659508362 7.587106533348401
Ag 7.5428213200383505 12.147106763577414 12.037732979867357
Ag 12.988125534805496 8.568958782228343 7.747135020241809
Ag 10.82817585624628 11.437960583025037 15.190845444415293
Ag 12.856559569101096 11.346065038102694 7.95058138800429
Ag 10.589321143606039 10.621229992218572 12.54671735103196
Ag 9.417163060186219 11.000705373672005 10.031672578432707
Ag 14.716188878272293 9.812752761610763 9.668516199487101
Ag 11.9210623954539 9.656371368249847 10.211346924171226
