53
Energy = -115.72875594 eV
Ag 13.933942996864126 9.785079158361143 7.369233304004772
Ag 12.735664123467267 14.220735478661489 7.138262725713475
Ag 15.457032200143773 12.783638492473832 7.522496437115209
Ag 11.9854827062847 11.63171682330272 6.490619646347214
Ag 11.496601189808615 9.96501600051167 8.697959596768298
Ag 10.486534527695966 12.706676195809 8.689462131681978
Ag 15.50400132580783 10.61306216934916 9.518455564544118
Ag 13.593876578438385 8.226820189956193 9.719117340879931
Ag 16.59113431975273 13.224532215074868 10.053805153621074
Ag 13.238267462653612 12.170453568858685 8.973251184256121
Ag 14.379091751370646 14.7967734050091 9.317445670841828
Ag 11.544631404864992 15.372114457625788 9.401557521382717
Ag 8.827456831096043 9.613286799791556 9.38253106616645
Ag 7.8746438324879975 12.158849515420078 9.844210628609906
Ag 13.014283443598899 7.804827645316245 12.595720970107747
Ag 10.290987533524323 11.280476194909049 11.181522532820441
Ag 15.467298708302254 8.906543149858603 11.745643266772495
Ag 15.483229241152616 11.720124471804667 12.133567900508723
Ag 9.552614461866927 14.144109876784869 10.993637381248458
Ag 17.588232274372245 13.486417462880175 12.643579950542831
Ag 10.928930244077273 8.413743996048654 10.88353268927061
Ag 13.348497486517948 16.656036151149927 11.11994576988107
Ag 13.076877517122117 10.532759066173677 11.281859543926723
Ag 12.445884293832272 13.451831598170266 11.31078577090561
Ag 15.003975714275988 14.590980703922291 12.157095725876673
Ag 10.524937337420415 16.668075677849355 11.702960747156556
Ag 10.478020328279673 6.3047857606525675 12.531950785051466
Ag 14.37327873915745 9.875255688884161 14.12204963588372
Ag 8.305044088582331 7.372287252487853 10.958433320751285
Ag 18.51317820559936 13.367776817450208 15.20751818373644
Ag 7.138658624669013 9.973410490112599 11.60788939926146
Ag 11.539880982139854 10.342945738396732 13.598489762899694
Ag 15.829349106893625 13.96124484141862 14.867795001279921
Ag 12.318675118208578 15.362507104848833 13.501855672020886
Ag 13.413181928062837 12.684439627609974 13.841692536231045
Ag 16.70947840512084 11.32950407937062 14.622391558971888
Ag 8.707671853107778 15.093465543938633 13.539084968965865
Ag 7.96635863475833 12.424188714242797 12.66893223562024
Ag 14.70497798500587 16.49292937380771 14.361899220302565
Ag 10.077689161380672 17.356414764102645 14.367009481621556
Ag 12.53458458118768 9.71654404243934 16.240213288186215
Ag 10.631788453238125 13.061882730865145 13.463233545365707
Ag 12.518401852362961 18.17916471151824 13.263362225956172
Ag 13.373588376841521 14.488677169895128 16.11304239264795
Ag 11.208225565794622 7.804707454577024 14.748276815940574
Ag 9.135861744611878 8.84587331631772 13.179435761687019
Ag 7.1945163927482865 10.451055797423024 14.45835322449179
Ag 12.395266332561278 17.094310690087216 15.886810702632948
Ag 14.41123574681061 11.810103990035254 16.278520961820618
Ag 10.531610790857865 14.908945911805832 15.76763535438296
Ag 9.69577774945957 10.113275208063483 15.688416569943502
Ag 11.530313700186586 12.302117324338296 16.132864495502183
Ag 8.662805490914698 12.725969889338113 15.433050727430132
