33
Energy = -67.44806545 eV
Ag 14.605695509059712 16.548073238645376 15.875260568822553
Ag 14.906146614533702 15.673681175319095 13.105674311078928
Ag 15.393994252512083 10.455169977255245 12.489472052247695
Ag 13.882973901297259 8.266686788204794 11.547998975461766
Ag 11.980398789188525 10.804684388250843 15.55201108950455
Ag 9.672094586612955 14.252864114566668 11.734891151398202
Ag 12.033201845096253 15.681708399504686 16.81720326231224
Ag 8.654249777601315 13.134430592540628 14.26576478262335
Ag 11.561066362391397 13.903886774593317 18.885399040059276
Ag 13.800373367826543 10.840229713135034 10.110247380629257
Ag 11.224741808661765 12.642912304466542 13.559132421966785
Ag 14.52469710062654 11.706275643764608 14.827266420458493
Ag 12.481026431528562 17.068983550065084 14.215527771599847
Ag 11.528339964860484 12.319634516034448 10.793329819134476
Ag 10.409697229126909 17.171914072433847 12.23448756815751
Ag 16.056436619948222 12.3612534866501 10.524125755493895
Ag 10.37329592940853 15.2994968909905 14.33950951482837
Ag 10.170347625201563 13.52503008243553 8.77443660998964
Ag 12.441924570881932 10.340337272376166 12.725710556187401
Ag 13.121927440571232 14.306393232739394 14.725988220728059
Ag 14.064295599819513 8.943093874718667 14.501898125083057
Ag 10.71150223803791 13.225157626109697 16.28929658356572
Ag 10.761763274132985 15.942149835695904 9.778891790991445
Ag 13.969908483216091 12.910643554047024 12.369009095118082
Ag 16.333604714492406 14.04980892203696 8.377987119921661
Ag 12.31044849060695 15.137069918471534 12.007516786655545
Ag 16.10944179296012 9.397623966446623 9.984493482533837
Ag 11.508883160715627 9.453804026418656 10.241013607009704
Ag 13.467897424353474 12.912402143312882 17.149058284665944
Ag 15.774927613129686 14.06980954671843 15.387575078687759
Ag 14.26624562539579 10.167831590912716 17.09417206357916
Ag 16.403252755103665 11.326269108463084 8.01155013935418
Ag 14.647804448332602 14.82024651135399 10.431353296078365
