17
Energy = -128.60498572 eV
Cr 8.717571764393949 10.024778488286335 5.205015040466724
Cr 10.43428374125998 8.38492117706474 4.914038618990682
Cr 8.287932965378689 7.87873424128383 6.474152614475232
Cr 10.568300046980855 7.0341752323522675 7.661055589593421
Cr 10.473988585844388 9.283278733490409 7.200303437311519
Cr 6.643101045573827 9.31368746841497 6.970319387531234
Cr 8.601154460629042 10.550155733439913 7.70962402465546
Cr 8.470364073278647 8.288439915375866 8.986976211943858
Cr 8.398226294863148 5.827747215161687 7.87749076177235
Cr 6.3227290146955495 10.194721769306751 9.170369645865158
Cr 6.322104691724584 7.367039258172589 8.598484316085477
Cr 10.461592579789386 9.262487278180943 9.687151014949675
Cr 8.387370078153852 10.592790559671894 10.350468380685083
Cr 9.50682648386009 6.290584498272548 10.06443651695195
Cr 7.425088153687371 6.272353045712588 10.49161408923394
Cr 6.239646288772797 8.67426969768526 10.765615580964113
Cr 8.404553435729376 8.424669392743212 11.537718473139329
