16
Energy = -119.40824032 eV
Cr 10.822296748322064 9.999401031383062 8.008475538577763
Cr 11.487465884741264 7.772910552350123 8.417093383020598
Cr 12.88609139815184 10.047452124241243 9.16730033244951
Cr 8.449357899879336 10.543302715067021 9.03650975115158
Cr 9.188872220361267 8.416657352618035 9.7540656380862
Cr 9.819946480630122 12.58238714479301 8.788617065081405
Cr 12.03140189471804 12.360906468893276 9.15232951585224
Cr 10.544562744556089 10.675185621430105 10.489476647201005
Cr 8.234748532585487 11.921528832819043 10.956407178903536
Cr 12.953156543750628 11.055678856718831 11.419538186393725
Cr 10.589328473581112 12.636618339739444 11.587320042991106
Cr 11.88678775736728 8.479879166186382 10.640408829716147
Cr 7.201633664021627 9.56705526076968 11.218317173290096
Cr 11.502811275425413 10.220695573854778 12.928143561010565
Cr 9.667668210410856 8.843280379668144 12.03946173393426
Cr 8.883182621564814 11.02637292953468 12.545847772407367
