16
Energy = -118.7032755 eV
Cr 11.742272173917149 6.744047051882602 9.397635210278393
Cr 9.573060370073671 11.584586535989839 8.293174972079967
Cr 9.852161446794202 13.106849490921594 10.68204041966699
Cr 11.978378902466499 12.862013426762918 11.38295012610939
Cr 11.06035798621491 10.732457379455083 11.292546821564653
Cr 11.305640704277328 13.105887183032856 8.72258517931856
Cr 11.078998307465278 8.07701485149698 11.660018436144991
Cr 8.873299483438885 10.82028349926517 10.58513244756008
Cr 9.143816104042687 8.441963813578782 11.453906859607653
Cr 10.333573746421271 9.10977034599799 9.24076811210715
Cr 11.580647907382845 10.513570293221743 7.833328509469998
Cr 9.750980333192125 12.20099791698115 12.951116837802513
Cr 12.967773326064638 11.608056656830822 9.4279525916643
Cr 8.166621448259916 10.410429102906578 12.981938519398858
Cr 10.468918852504219 9.605807545787316 13.255998701903971
Cr 12.343559556376627 9.10418750735616 9.968147054342204
