18
Energy = -132.26611405 eV
Cr 9.525562283284136 11.670967524331298 8.718224115255424
Cr 5.735417364349443 7.43478393047208 10.004735341982151
Cr 10.542992700128554 10.427737926767813 7.126567379636804
Cr 9.2111145795166 8.342376009082443 6.395457466110565
Cr 7.102107352414959 5.516122741332094 9.010971022526745
Cr 11.455829993090392 8.01335775677461 9.645694915083038
Cr 6.753613492663237 9.693667468187806 9.731828312031402
Cr 11.705299877067281 8.269572844043898 7.51968719322726
Cr 8.057853177951111 7.837884007680325 10.251353507934441
Cr 12.16622065880055 10.423591614033812 8.848351433930912
Cr 9.589807468722073 9.221847325560212 8.909027259688747
Cr 5.622806452423591 5.854776713701764 8.043307712124923
Cr 7.741652215958285 10.186943101191147 7.645958251611468
Cr 7.3701691860918785 7.776399577191603 8.144790009078703
Cr 11.125189350172532 10.779941784536334 10.59913813878578
Cr 5.262455816825288 8.277225104213402 8.367462611763516
Cr 8.673196733919081 10.598278579209623 10.374670299806658
Cr 9.593016679658769 6.908831374728297 7.897080412460197
