16
Energy = -120.1365131 eV
Cr 8.278768942622103 10.501380258564321 12.452793965685448
Cr 10.562149359202838 10.150828431535787 12.768980798824654
Cr 7.114543513351169 10.058202877059802 9.822125690145372
Cr 8.458169419584483 11.139958986181913 7.793679513679342
Cr 9.583230360973966 7.397065573439129 6.43109680812743
Cr 8.821183144353578 8.45835501165629 11.388913279907126
Cr 9.467186018060586 9.694713290241284 6.131120500773882
Cr 7.207511787827414 8.819243628968396 7.012139271751796
Cr 9.13970935038659 8.778149080987669 8.6136449645781
Cr 7.849922487849753 6.559447395375433 7.621392462468831
Cr 11.380516163843184 8.879926738830779 7.921094757119592
Cr 7.050416351952889 7.59622331733351 9.530961870800823
Cr 9.83824788205431 6.702978946537862 9.278131679606545
Cr 9.48212104964499 10.954510350679781 10.329345580240812
Cr 10.764703206512854 11.062848543633272 8.2964459848592
Cr 11.003342531865572 9.151599924079736 10.536777518826854
