14
Energy = -104.80327425 eV
Cr 9.735158096616992 8.109229003227966 8.436062686297339
Cr 9.502988723435317 10.450601444793657 7.4035511997583425
Cr 10.609994718073436 12.315575615222244 9.017719520140535
Cr 11.766623263468343 9.92610888725379 8.152840719770321
Cr 7.717923401479858 9.994432145513024 9.022781579427331
Cr 9.929216114968236 10.159133328566812 10.004004995352114
Cr 8.29505647839696 12.277418533848962 9.347049992419588
Cr 10.27295287148179 12.518372399234593 11.336432373958424
Cr 11.642414002332597 8.077000721203417 9.672408582114132
Cr 8.354610063002445 11.149522160511008 11.59025513353261
Cr 11.980377877584923 10.270410728486999 11.178023226909472
Cr 9.819262301523711 8.2200777370336 11.393163796970102
Cr 10.202497444913583 10.20315980442731 12.779401456991112
Cr 11.964176598814472 8.12220944676871 12.459556692451184
