11
Energy = -67.33225028 eV
Cr 7.8246312113705425 12.721206593421345 11.047199096265446
Cr 9.542389404820488 11.0845004510603 9.557473340991896
Cr 10.386742299701215 9.753295628016225 12.084447027174804
Cr 10.405800658568994 12.036098396577895 11.59248250654743
Cr 14.164568944883426 10.197874566203701 10.510493902088532
Cr 12.698134868999421 8.269784504898354 11.842246245593126
Cr 11.664441188113793 9.726173177214987 9.980065872891327
Cr 12.753033918699481 10.655026369352218 12.309988189140581
Cr 9.95642289551662 13.932539961441021 10.193885406543925
Cr 12.24647164063253 12.102333472566764 10.224279602830068
Cr 7.959760028986011 11.324581629229376 11.919458252449648
