13
Energy = -96.04939342 eV
Cr 10.608122932363957 8.469805479275054 11.391518464515988
Cr 12.884786098192306 9.312747571535116 10.82794415717276
Cr 11.078393328438674 10.739417963984549 12.479604239497766
Cr 9.439923699503911 12.37482336987703 11.602774911681365
Cr 11.024632338090678 10.753084881243796 10.026309209755626
Cr 12.791641586494842 10.963996070194078 8.349155325254136
Cr 8.93482220688728 10.156317410791011 13.304859399470981
Cr 12.155613645278322 8.60178761457217 8.697972439973837
Cr 8.71193897554071 10.015609673599158 11.01835310852142
Cr 9.927968733581366 8.905592516297592 8.864799794025753
Cr 10.681287710068911 10.661623459185842 7.363398898602843
Cr 9.282165921515205 12.051555534675067 9.099641815428642
Cr 7.375135332345716 11.927152501136398 12.5227890587649
