12
Energy = -88.37310486 eV
Cr 7.860149003963008 8.583969948692468 6.835532924245229
Cr 8.846657786860968 7.2701123734978905 9.139271720125821
Cr 7.89146435893601 8.563205928723225 11.464425799764559
Cr 9.942400167917471 7.401447226701909 6.905155244292181
Cr 10.51480140197711 8.98872116094466 9.143398070424496
Cr 9.970958451000305 7.382974134840856 11.36963049233573
Cr 8.321904581052214 10.919518324612818 6.933944761865765
Cr 7.793741543537127 9.296825010323358 9.152872736492697
Cr 8.342872449356879 10.896477989071 11.380485521938233
Cr 10.396699417739612 9.729795421354737 6.828592054431074
Cr 9.461809720717143 11.022794760385056 9.155175469663444
Cr 10.425947116941888 9.713563826446052 11.460921098827116
