11
Energy = -80.04503095 eV
Cr 9.791813268918109 12.180596610016964 14.019961825591407
Cr 12.706828079367519 11.94344188997144 10.435124217619714
Cr 9.242541951673623 10.295862667808176 12.708630000772542
Cr 9.793658022830076 10.746598441132795 10.236371872840921
Cr 11.506673110602263 10.1306680744005 12.30183471633922
Cr 10.946250742087562 12.467264681697376 8.951132678434256
Cr 10.720480683243489 12.49425641971772 11.771402228236843
Cr 12.460386082582255 12.52942171876543 13.331152898140898
Cr 11.91248946497093 10.74636202381929 7.939098544347057
Cr 11.42147330116842 10.648053472702635 14.643901767026202
Cr 11.860037875948526 9.494195802648454 9.994863581946202
