15
Energy = -111.41930945 eV
Cr 7.394876521812017 9.81721061818238 10.098499283735201
Cr 7.647027981978066 12.187442152987938 10.197439572513188
Cr 7.757488532053744 10.40677008613822 12.342110687827251
Cr 9.825360976527069 9.826006133571246 11.290561616100625
Cr 9.533776167063815 10.496309172050028 9.05351640765592
Cr 8.132690417278358 12.790517346088478 12.396671808469238
Cr 10.227528968361318 11.612015195208016 12.69668253773317
Cr 11.57443748475444 8.69151041490581 12.116722396569868
Cr 10.083843197543501 12.372545984707077 10.375929408599886
Cr 11.828378699638817 8.99696167145074 9.60735607822026
Cr 12.080409344497818 11.280852270476673 9.313988710627799
Cr 12.39348344469989 10.968454871438789 11.538746686970708
Cr 13.954048497055869 9.229399244747517 10.830757981887198
Cr 14.487043146724142 11.913684119237146 10.465195668016454
Cr 14.312791584965538 10.304062462227824 8.764580775497354
