10
Energy = -71.62812445 eV
Cr 9.292634476786835 13.99836879672854 10.777701084098574
Cr 11.207749266532101 12.156212229329624 10.931339837469253
Cr 9.879274299567488 12.258753956779149 9.007236133288094
Cr 11.498324176954245 10.041809049398207 9.550422240034774
Cr 12.734313479494151 7.80455014744204 10.708585480302812
Cr 10.49377966404642 8.152979038159506 10.984101960037098
Cr 9.15924551985886 10.33289508166161 9.943564002803086
Cr 12.58765494888651 9.895505970058705 11.724353885108023
Cr 8.569859499250237 12.473719538994054 11.320916277339489
Cr 10.198635490666858 10.373445545413613 12.166954979450257
