11
Energy = -78.5020346 eV
Cr 8.917454165905967 9.464979230744207 9.311936829025559
Cr 13.358799156881382 9.778801456562526 11.598358826384775
Cr 9.766669436819264 11.66645649169381 10.321278383439886
Cr 11.86868959373962 13.257351648531575 11.095270304242169
Cr 9.82472547562427 13.02875887757637 12.413312023332468
Cr 12.105427694390807 11.424865440013338 9.9858195876136
Cr 10.904919878367371 9.232648940618423 10.921984141367997
Cr 13.636211382768566 11.502135701569415 12.05404827413111
Cr 10.449383335144997 9.93545154422554 8.489055658769413
Cr 11.125622065666501 10.939768326803174 12.461453465664928
Cr 8.624596296303427 10.478723012628473 11.863126770272812
