19
Energy = -143.72692231 eV
Cr 7.066397602311585 6.58986036048507 7.805078142917779
Cr 9.320593662889692 6.295528881554756 7.723839126237824
Cr 7.60203036080122 6.719593892929836 10.039356651113675
Cr 7.737219950327579 8.46837793604394 6.796158565647935
Cr 5.867037971497071 8.608218368820024 9.07128309910935
Cr 10.610598170079081 7.685619737269403 9.725940495362625
Cr 10.392913557213305 8.255988282147728 7.092901019359477
Cr 9.115316360198792 8.177502613947519 11.69533167936141
Cr 8.508460074410182 8.659659830617816 8.988925369703319
Cr 6.822722977420523 9.111517750214032 11.051295511942957
Cr 10.904713635514954 9.953871452647984 9.246918724781281
Cr 11.352106932100776 9.435507667448741 11.779493272550301
Cr 7.0943828430102664 10.66988336457837 8.698930092941508
Cr 13.183419299381178 10.526237592316386 9.98296802288997
Cr 9.524541435715813 10.49929623708187 7.345509312099256
Cr 9.102817979994963 10.515854124790945 10.713988013645631
Cr 11.510693624940465 12.186908995728999 8.478410448333104
Cr 11.388453301054565 11.817727935125784 11.004563535239509
Cr 9.185366729644374 12.181698811079308 9.098578365205215
