15
Energy = -111.79528644 eV
Cr 15.070060513057038 12.659394109557098 11.620365708718746
Cr 14.164687946828883 8.944081180881831 13.012736625030533
Cr 11.911984018653051 9.203709472133099 11.009141391216625
Cr 13.771892334796878 10.693476072196287 11.480803220937457
Cr 11.874763952450541 9.48557762864325 13.372299190511221
Cr 12.855174912039107 11.76392409409982 13.352218764238902
Cr 11.164599290722071 11.385683203217383 11.58118683257562
Cr 12.793123598937505 13.52705060433461 11.546213758058261
Cr 12.698354037613564 12.02170634709152 9.75785270946735
Cr 9.983087546575424 11.133036347011174 13.714308765688429
Cr 10.622223494141807 13.29944028578691 9.746471429212365
Cr 10.231907680901013 13.543090139219169 12.055064723598045
Cr 9.857308022762517 10.999105035703565 9.708071238928845
Cr 8.51724274631371 11.634810770647796 11.681680307069442
Cr 8.228194133847717 13.237923171347518 10.005084694667191
