12
Energy = -87.11913583 eV
Cr 7.9279695074848044 6.974302339496707 6.521102483440078
Cr 5.180793210393606 6.937830989353285 6.997056953845838
Cr 8.926789863332818 9.036381663294812 7.049320337410441
Cr 10.852438266079702 7.325585314303888 6.387954210053126
Cr 6.408590163768196 9.09966162652877 6.67418092835672
Cr 11.614567576710504 8.307993675833648 8.123440750738999
Cr 7.033134677145967 6.2408470949852095 8.930029645370139
Cr 4.984486153946981 7.9530288574956165 8.75560831309747
Cr 9.30744803557769 6.8477736612793 8.566305122136173
Cr 6.878617500682267 9.891985186400815 8.619851902924555
Cr 9.468360727595392 9.338788250964214 9.301072906963253
Cr 7.381621882796787 8.010638905579023 10.038894011178497
