15
Energy = -113.11446643 eV
Cr 11.230904389611462 9.4156643679962 8.225554232956881
Cr 13.049560693783231 11.076398075949797 9.322837681856816
Cr 10.706133760175339 10.494998880085268 10.63819409968764
Cr 8.314654369517529 11.637436203353797 9.839077921549796
Cr 9.821929764081391 13.191650630245784 11.090043656081694
Cr 10.768590160796176 11.831371157800225 8.722019476243753
Cr 9.045527261406717 9.349657054274052 9.115129633440967
Cr 12.50638271560812 8.905017271576696 10.174616777272181
Cr 11.951723211429695 13.135454003962847 10.66967227345672
Cr 8.564310217698832 11.104680176050897 12.208013212416835
Cr 12.736365495857669 11.228173149707532 11.855895036951859
Cr 10.723139010852202 11.914928831063468 12.953802633686948
Cr 8.509474449265168 9.001085205410169 11.526468210728693
Cr 10.507947051021153 7.720585592104498 10.280833231153714
Cr 10.664865953543847 9.094407905067134 12.479350427163887
