15
Energy = -112.5500492 eV
Cr 6.71813066734723 10.217220091348409 6.745007420726637
Cr 8.542373200631474 10.981107199676993 8.055820809569532
Cr 9.43895712522224 9.310267809343644 6.59371264734665
Cr 10.728252407452715 10.235951509235099 8.865737748401084
Cr 7.5005686934446345 8.552460787695361 5.3330775629091045
Cr 7.036661887605507 9.585149514090592 9.579370297818535
Cr 6.205975734476811 8.121778391337005 7.79007887686508
Cr 8.747298690344739 8.378381152531174 8.725521189471031
Cr 8.059243348310641 6.931261986190763 6.9696161172453985
Cr 9.239044924081854 10.216123022336024 10.663348977144778
Cr 6.812177831015457 6.697390589295182 9.562675505720357
Cr 11.248581516452864 7.807650519341714 8.420510518572245
Cr 8.304481973531132 7.530369060758145 11.179172904738952
Cr 10.546160884896706 8.300515164092541 10.788194560500617
Cr 9.575827719459879 6.115318496731644 9.41522612847933
