15
Energy = -111.02523451 eV
Cr 10.873038999768344 8.06796476707852 10.471325594966958
Cr 11.326471943942215 8.80011856122959 8.194245805610414
Cr 8.974532963177648 7.626923107353268 5.597681319734148
Cr 8.583236564161023 7.913122035840219 11.681190325158697
Cr 9.74646344949503 10.123859452658088 12.032657396368307
Cr 10.757947762121255 10.87604253816868 9.4330925883279
Cr 10.722032977991347 7.7503897802175095 5.970157992386621
Cr 9.428245492978721 9.810532065095641 7.055760769957637
Cr 9.376270946636783 7.202737849606591 8.174148234669314
Cr 8.549888716680652 11.645240976735588 10.583622124530653
Cr 7.090415779587857 9.935152518733936 11.470436529524939
Cr 8.944408841884695 9.291472999892504 9.511731594171007
Cr 6.97725685865557 7.791517213307125 9.647185880635776
Cr 7.389353438507168 8.516468834099179 7.358403071447585
Cr 7.120378021065877 10.616045087608125 8.662896101679927
