15
Energy = -113.04236108 eV
Cr 9.838264443877414 7.990659432285621 6.252134243411872
Cr 7.672571763370657 7.570835923798918 5.32451790137783
Cr 9.915434533337523 5.768314560136876 5.736268176018216
Cr 7.5004658149670895 9.830968246989089 6.256341639895033
Cr 7.955968197029454 5.9466985638204335 7.101882879100306
Cr 10.020967224802774 6.7271140733027055 8.506967176961647
Cr 5.694311461939649 7.789483464519983 6.888862565518079
Cr 5.749035538468006 9.973447251921327 7.986291031846217
Cr 5.979579896859248 6.098725434263628 8.62907650217217
Cr 7.897238142351249 8.255675404717318 7.976399386843518
Cr 10.059536510051732 9.109087511699652 8.757374970245808
Cr 7.660997694544814 10.529001630039382 9.172417682582989
Cr 8.068788731131741 6.260233768428559 9.850454081694014
Cr 6.092790620221125 8.27462332684663 9.687515025930482
Cr 8.535525118378748 8.516607098560954 10.514972427733762
