17
Energy = -128.12490708 eV
Cr 14.038644146767707 9.990415538987573 10.189305659391309
Cr 10.596146762202842 12.88861843586004 9.220741858752294
Cr 8.16504098639261 10.512122636898226 12.548928577253138
Cr 10.234236567626759 9.178847780717842 13.201299635088192
Cr 12.251404532214098 10.096815019467451 12.087841321274864
Cr 12.79842134575674 8.504584160434069 8.761526012253272
Cr 12.660911672973745 11.366063912552997 7.873981771297811
Cr 9.868251808081899 8.817034627529997 10.841523418977756
Cr 8.315592183633022 12.608329927355697 10.416779866026843
Cr 10.368226126335287 11.641477454767815 13.74710885715151
Cr 9.698859719804295 10.835489216732812 8.53076775160913
Cr 12.143509805945113 7.960193078246383 11.27270237918093
Cr 10.562270163820326 13.671200057713165 11.647671737364867
Cr 8.50413285162029 12.937559409963438 12.822291456202626
Cr 12.651438388733016 12.140407157648129 10.216200226251308
Cr 11.443495183742206 10.040795065832821 9.642599746024947
Cr 10.099262338844495 11.290893104422363 11.356922157954662
