14
Energy = -103.67599971 eV
Cr 9.96593682429467 12.63089808495132 8.880938456357061
Cr 8.800981183040587 13.232576462591618 10.786681674543757
Cr 9.655847670895067 10.37663478017215 7.282639359237931
Cr 11.31014967599971 10.433373325186153 9.13322290754841
Cr 8.61456334324305 10.62901216506979 9.682180419601664
Cr 10.458556928792826 11.463223915119068 11.264044148639211
Cr 8.704679074510066 10.70611532915165 12.520366952866716
Cr 12.768780418615263 10.05343268041126 11.248889804688945
Cr 7.945307053416455 8.92335640703599 11.493925069161547
Cr 10.940792537894394 8.36917463328292 7.317932863070614
Cr 9.386065721216347 8.43373941434631 9.236925640982287
Cr 11.682492883014017 10.565115010481987 13.2305978178279
Cr 10.50180409847651 8.888539550771457 11.272887566897161
Cr 12.134900464066174 8.105717148310893 9.369174943625236
