15
Energy = -111.08399309 eV
Cr 14.216075912794157 10.01863054366384 10.686764064631792
Cr 12.896066532285044 10.633505426813596 12.701859715913491
Cr 13.262458925105323 12.182454715654574 10.075074790003638
Cr 12.559943351797529 10.721326417221285 8.325829959332806
Cr 11.623666263637961 10.548833590786076 10.70401842721236
Cr 10.712605719367325 11.753683903919397 14.071491164175601
Cr 11.869208367648286 12.745580091212922 12.224688717241674
Cr 10.703215628660786 12.708833247050725 9.551062073089401
Cr 10.41668305828252 9.771040335279952 12.960556165627887
Cr 9.834694191589044 10.187118354632117 8.883516732687083
Cr 10.169455555272094 8.708789571710172 10.681208822892097
Cr 9.81129594033469 11.655599994863687 11.522912003013635
Cr 8.25365923944944 11.73365522334903 9.380773166585783
Cr 8.089903083975434 9.929375875518218 11.167125037280861
Cr 7.801497272884157 8.865357007539275 8.993980182339952
