19
Energy = -143.28332253 eV
Cr 9.643351474049972 7.691756983531509 5.318121969181702
Cr 9.83313690695991 10.092956484182253 5.565310351196383
Cr 7.47861621266741 8.594532482181418 6.868768928429908
Cr 12.165464631085898 9.249758136958125 6.719740506573277
Cr 5.685050312629144 7.489594277343962 7.868871292995478
Cr 8.375311094297206 6.54988064121058 7.191794611956724
Cr 8.996540224601954 10.511394554091725 7.769014854484903
Cr 10.18188906149186 8.341488464324911 7.731855869700429
Cr 10.965475023335687 10.978134841113608 7.96847243533694
Cr 7.0872255369323565 5.8828168657989295 9.13717769421455
Cr 9.902931936840398 6.658028126036785 9.353891255030101
Cr 7.858857422464539 8.32481697393374 9.408442948562234
Cr 10.82289160908034 9.320230990666834 9.585197032880837
Cr 6.208191226108758 10.366129642161303 8.819908395743589
Cr 5.623429646560999 8.285623911923857 9.95486757088053
Cr 8.541537241616695 10.555352709771997 10.229197874945077
Cr 7.9036564020715545 7.338384551910905 11.558959475779485
Cr 9.778085489054794 8.441956006382833 11.588113773856337
Cr 7.143898877560067 9.522703685884112 11.5578334876606
