16
Energy = -117.11965062 eV
Cr 8.88524830399676 9.605555456521685 7.3211690493580415
Cr 10.46567558367857 8.97446685275408 9.03847739714167
Cr 9.031883528999979 11.801316773694133 8.888107974340597
Cr 6.859511872253956 11.132007153155238 7.100916083803324
Cr 9.373931132074231 7.145612721472755 7.706538151384093
Cr 7.289393325333028 7.458800325513665 9.35425698700088
Cr 11.92662277059788 6.927420747011584 8.764576114423162
Cr 7.004374221455319 8.515029193930904 7.300828701603387
Cr 5.704986593453614 9.406354745941218 8.716007437957018
Cr 12.993833391371151 8.899479615154826 10.029710370471442
Cr 9.740049418242393 6.509202049039067 9.94844274741899
Cr 6.243871956441937 11.94077447030608 8.984609135896887
Cr 10.90279224069436 10.610338088684523 10.550565165597325
Cr 7.899502932154328 9.81694760100903 9.245668839300787
Cr 11.682711636540162 7.949957185872008 11.372289947214677
Cr 9.168565362361482 8.479691289587395 10.850790166737195
