16
Energy = -120.4017568 eV
Cr 8.33142219268289 9.268227014278745 4.8889295052124195
Cr 9.920458730805969 7.141727669060968 5.951043852899583
Cr 7.575779047603955 6.852279326239412 5.105132482692476
Cr 6.001748046388802 9.016737512878192 6.271187331741895
Cr 7.3093652741848345 10.51481935781986 7.212253258826983
Cr 7.130311596421049 5.1410620907381155 6.874773398297525
Cr 7.682833978498669 7.787201591222096 7.308116370572164
Cr 5.664608215815644 6.688808525950305 7.974287685533757
Cr 7.680042438985715 6.1513962913299185 9.467118336479569
Cr 5.729485571502611 8.932974017066275 8.837798153475225
Cr 9.171826049624416 5.322243202769336 7.547498230744522
Cr 9.49271776375274 9.35925726435629 6.89075817515823
Cr 9.808919713804416 7.4500788038854635 9.007094985229639
Cr 7.903874525455837 9.36410985246591 9.276519331726398
Cr 6.380235628299953 7.547915884834962 10.819010760325815
Cr 8.748774103664351 7.993564472595856 11.10088101857593
