16
Energy = -119.68199845 eV
Cr 12.170531050078964 7.901153358118738 8.474161998282261
Cr 11.815318354382441 10.709277185075404 8.515289414386153
Cr 11.44438619153349 12.978617233490587 8.917693821855735
Cr 9.804884882469167 8.778766936602423 9.354099515316534
Cr 11.957888687508788 9.370782691263061 10.523783916293553
Cr 9.760264057655993 10.403371827084731 7.494222354626326
Cr 11.257702384010148 6.751749775693325 10.092973269792466
Cr 11.79491436404094 11.827794618898142 11.17659289968001
Cr 8.39999616320676 9.892560426600184 11.628535841580714
Cr 7.860962293715009 12.200872933927798 11.509829290425417
Cr 9.311596113735668 13.368274094247697 9.982934387583335
Cr 8.560516420813501 7.538543680426956 10.951792486974568
Cr 10.218268066414108 10.608808143765506 12.69438997996023
Cr 7.777123983993944 10.980949400267638 9.099904670106348
Cr 10.571204272230068 8.189763823883421 12.065754489004094
Cr 9.877068984625518 11.08134014106922 10.100667934546811
