18
Energy = -135.37500388 eV
Cr 8.447825352020521 6.762084403320705 11.494733926132549
Cr 10.205858565993003 9.888975455345525 9.684030089525939
Cr 9.643632415505895 11.627453400683919 12.706770449365102
Cr 12.0441694022001 12.600174795438702 11.272681019538474
Cr 6.649666803974045 8.355891851122033 12.167294657431142
Cr 7.960545882715856 10.378839202608852 11.11471629723746
Cr 10.729790272880106 12.600468985383145 8.19398113129391
Cr 8.241373872857041 11.046375139736444 8.46373984483616
Cr 9.186654410273357 8.208907945904928 8.077502901712768
Cr 7.8728944658706626 8.393758719976208 9.694346365501664
Cr 9.337719342473807 8.929900175104507 12.139201336091835
Cr 11.980608258539252 8.603027377109415 8.362795440789665
Cr 12.750663387342811 10.586506046383269 7.060323908196672
Cr 10.568681424304376 7.407376794247207 10.156035583312574
Cr 9.855157647423185 12.16451732508225 10.419300512288723
Cr 10.311054251052042 10.555435343651611 7.1688976979071155
Cr 12.221286809021029 11.154429321000014 9.344154696228664
Cr 11.352337579548236 10.097592949957335 11.774596208269339
