11
Energy = -79.99540988 eV
Cr 7.830803771955339 8.950131838328861 5.761568100266455
Cr 5.378403023413039 6.820805776462961 6.867678427010879
Cr 7.673259222564535 7.104597109492968 7.232682445590051
Cr 10.009626958482619 7.280159614854283 7.510103219869966
Cr 10.329859239898095 8.93987254958363 5.685448318157004
Cr 8.849793582798906 9.434867792811856 7.939257896186288
Cr 5.9237347211563165 9.123328700949276 7.463646923268729
Cr 7.644452336335507 5.206067452673296 8.582199435483696
Cr 5.867773202906908 6.775819446897353 9.27944458100444
Cr 8.77417140633576 7.049390088526115 9.691145689905149
Cr 7.169036610942803 8.765873706209508 9.437739040047033
