11
Energy = -80.32224228 eV
Cr 7.0000341240376045 8.032278653665434 8.380634084812362
Cr 9.203678276796955 6.766775927653564 8.736081475327138
Cr 7.16424547471737 7.771290060107781 10.646604601398312
Cr 9.396106598962824 8.48652224807085 6.795352641749836
Cr 11.247722583302993 8.374361417775663 8.832722935868343
Cr 9.41457131215387 7.879907422426813 11.036792544574528
Cr 8.42715368331793 11.083576522098001 7.671922553616729
Cr 7.310273421484624 10.192509227411731 10.656202733542848
Cr 10.78161513196576 10.406228927838416 7.506098412832599
Cr 8.910499741616556 9.322621473858486 9.147131638454656
Cr 10.424352151643758 10.96418004511561 9.870709069148731
