19
Energy = -143.15136075 eV
Cr 10.07827358432954 11.852863616141079 6.87278769822139
Cr 13.291345064925373 8.952979809284388 13.678512266390708
Cr 9.890551437610213 11.724675092369653 14.33123290466354
Cr 12.310772733037872 10.625579642777744 14.909241130700998
Cr 11.0094056215169 13.903363587922453 11.003285319822448
Cr 9.938897468907399 14.237647156893749 13.412930111513308
Cr 11.722427267087802 12.699093345580803 8.873150921149978
Cr 13.61747603497175 11.034402656860795 12.473661865180848
Cr 9.395172911000062 12.33617877362768 11.870164142697432
Cr 10.936537416016893 10.116151290464028 12.872669955732276
Cr 12.199258993001852 8.749735567858323 11.235507158571625
Cr 9.593913638822174 12.04934010393327 9.343048919145682
Cr 11.59330799491084 10.210784997663588 8.522512674766025
Cr 11.476756634841069 11.32509486026538 10.899895458053564
Cr 9.92404583428374 9.600934144743958 10.064714042644331
Cr 13.571408269524099 10.366489431138788 10.17580030340541
Cr 13.293385684426417 13.179753358919488 11.09817621510345
Cr 9.242287501544416 10.326194657746946 7.401921355426374
Cr 11.813070330665301 12.691279462659228 13.288240592121735
