10
Energy = -67.88909402 eV
Cr 15.876736736523887 12.651006642694538 13.961588368510265
Cr 13.538906909720247 12.655182688411656 14.149359290399456
Cr 14.977168489756785 11.456636343317202 12.128577680580369
Cr 16.42792827153848 14.432300985462001 12.465993884144298
Cr 5.326094352236005 12.78374625249994 13.351949600717534
Cr 17.22160333585105 12.324443758680086 11.519739982759951
Cr 14.116875279387584 14.620980609802348 13.225712901393482
Cr 14.846273364686551 13.425390563074357 11.099699297179134
Cr 12.530333217026184 12.507713167413042 12.083533350739845
Cr 4.5450757054392845 11.291101141016732 13.410980598309179
