14
Energy = -103.34610165 eV
Cr 9.056752647575752 9.47167014189077 8.53695477005226
Cr 11.816954084134336 8.99490725846832 8.353320863828198
Cr 6.733034366684695 8.938096629407266 8.851056525150629
Cr 10.668230344018205 11.159346949484691 8.12065346942209
Cr 7.606777688874882 11.48982864682848 8.245376276476659
Cr 10.25675953245583 7.017080784767539 8.314344557495398
Cr 8.16782959441185 6.959667405971661 8.26315854825336
Cr 8.85904135203325 10.774188857349456 10.583012826353137
Cr 11.24337049880629 10.738187320195108 10.441655845925464
Cr 6.4448347436769895 10.882240646067489 10.297512218665837
Cr 10.374995347755545 8.413312269038267 10.3019236051359
Cr 7.929213723279777 8.409662509075932 10.779608924420215
Cr 10.073432373428545 8.538247416091515 6.682257827860688
Cr 8.723649702864062 6.168439205447253 10.184039700875841
