14
Energy = -104.70713562 eV
Cr 11.502216471005864 6.89379316732368 10.03915461021833
Cr 9.310226979387487 9.425509093660843 9.423686848618356
Cr 9.350525304989366 7.159534444767701 8.737636478800676
Cr 7.105032498163557 10.806271308410503 10.207305449476696
Cr 7.917070062543134 11.342966426380226 8.051012418966721
Cr 10.530811573129128 10.580676820541914 7.4755063399076365
Cr 8.613463105675436 9.21840447287789 6.870992392882109
Cr 7.697088263418326 8.048815956113751 10.984131185040606
Cr 6.971506679366064 8.829445756447472 8.816406741594333
Cr 11.19537322591434 8.377128261547602 7.754919385460949
Cr 9.060856506671781 10.553507716323312 11.449788410374142
Cr 11.667962706092046 9.452526525664734 9.857176260941907
Cr 9.93536837149357 7.8695022072039995 11.44400009874459
Cr 9.714940252149756 12.014359985605056 9.46072552184084
