13
Energy = -95.2871762 eV
Cr 7.957074163873617 6.463676560626823 10.473362338115145
Cr 9.665959958892916 6.386582462794481 9.134760031262593
Cr 9.577062309630284 8.93223496006506 9.518073380532936
Cr 7.64231982976803 6.50607333697407 7.685871445252906
Cr 7.3854405489690205 8.330169353885804 9.237233533896804
Cr 9.441697920284069 5.43837933545412 6.3769297689618165
Cr 8.183103441751305 10.651571520505184 8.144356792475646
Cr 9.259131898097989 8.195873383048413 7.118973620539683
Cr 8.516455064316146 6.964858816880451 5.1695931283401455
Cr 5.342465489277638 7.745231610357793 7.620526819015347
Cr 5.93507526593691 10.218124874440548 8.83033362349574
Cr 7.238655747457201 9.076297502812789 6.620372803757147
Cr 5.651649657036866 6.888256258396863 5.828473051585903
