10
Energy = -71.74109148 eV
Cr 7.410645994474406 6.120804480490538 7.53457118325309
Cr 7.6683415582957135 7.895705096638098 5.991634521848363
Cr 9.572685526466564 8.01669553457609 7.350384983556797
Cr 7.5966694921610065 8.23677727051335 8.687700932147814
Cr 11.486698155922552 9.30969142193443 8.175393875177473
Cr 8.948861310230514 10.339574235626722 7.6933732505524945
Cr 8.52392652752207 7.009622271117226 10.282040725277918
Cr 7.2434108043698044 10.561719669215915 9.431123130029597
Cr 9.769848883297952 9.486032708471587 9.75743221707488
Cr 7.861976118562897 9.119796174258607 11.247867589766678
