12
Energy = -86.79441905 eV
Cr 7.472529857022926 9.170110697959908 11.949395681043756
Cr 8.907288916493911 11.275090684899052 10.804624678668576
Cr 13.090132481204774 10.96377165167234 9.542761124866963
Cr 10.360336846798454 13.320198153187041 10.310212159300155
Cr 12.46359920707717 12.55166163442327 8.99325592016977
Cr 11.49861647607169 11.932005264780097 11.399265368523151
Cr 10.554441626445028 10.87014648063303 9.086943577807647
Cr 8.879609305449513 8.85936421554825 10.00427431903975
Cr 9.734976407824645 7.401290197407989 11.672138947282535
Cr 11.27815462420444 9.369343577078276 10.62663227803721
Cr 10.444914141046844 8.583031435201871 8.145051624674679
Cr 9.874520541593457 9.8664443193915 12.483683062410655
