19
Energy = -144.91595109 eV
Cr 12.76914382523074 9.1412640373776 12.295186758997122
Cr 13.307057629324133 10.666211080805382 10.240261879546049
Cr 12.915912348703042 11.512872699456489 12.849059521868416
Cr 12.302612768144147 14.132150082741985 12.774661448345052
Cr 11.273498778355883 9.75785718019443 9.09844037753947
Cr 13.959715489199855 13.153775363221934 11.037012787238229
Cr 10.824225870228329 10.26715911254471 11.39779055528557
Cr 10.86231858852815 9.456739594967228 13.872637542224158
Cr 11.705552626983252 7.942821763102225 10.400184995072417
Cr 12.443104939022891 12.17127385565833 8.54756663784616
Cr 10.320904340142684 14.63301150737785 11.964091108296303
Cr 11.878319452693836 14.319421220163456 9.842435349596103
Cr 8.720850809829011 10.204548036311767 12.466596044697367
Cr 10.037696175802319 7.90805371409992 11.888431036250394
Cr 10.066358699062462 11.886854638324042 9.033992028598337
Cr 10.694829124062256 12.03257273071152 13.572230745258782
Cr 11.469730148217218 12.394247740093203 10.972133732808688
Cr 8.925433914896129 9.148488011308581 10.009365799454942
Cr 9.146354837508916 12.421702705089677 11.768687216711257
