16
Energy = -119.85918563 eV
Cr 12.0885705913896 8.295214447642564 13.696645884454838
Cr 9.638738904489802 9.021334387540689 10.915585732754792
Cr 9.505498751896 10.657254625786765 8.309359198775773
Cr 12.335489945957022 11.909329684362058 8.557605713935043
Cr 10.76424048580251 11.05101176254993 10.37657786814263
Cr 11.806397423966827 9.059764189462474 9.03951542568377
Cr 8.683069239583723 11.389455438714828 12.10160967794583
Cr 13.262321184358852 10.705326548881422 10.91651055113008
Cr 11.45034980063165 12.015848090618952 12.619163782756132
Cr 12.457854952018383 13.122296938484242 10.546581416176657
Cr 10.09109642520875 13.299090390428796 9.347271780011148
Cr 12.093832244310281 8.724343168326667 11.234686125404245
Cr 8.19966204885537 11.68415719043745 9.825152283800794
Cr 13.204193959382216 10.377644143891342 13.258502181641852
Cr 10.399826112871517 9.948818165907563 12.975438752639047
Cr 9.759618236084151 13.397195602221823 11.53045787368001
