19
Energy = -144.26293048 eV
Cr 9.216737889868677 12.954200079568963 8.356478322425604
Cr 13.789463343931914 11.921043299335182 9.968502844393356
Cr 7.759982807320347 8.630212920910763 11.251981270971129
Cr 11.599237058500874 8.736102199844346 12.7499432014764
Cr 12.883885016355292 12.439984821816283 12.412077945142387
Cr 7.842683996944533 11.024212757741822 11.387687986164131
Cr 10.098471941704334 9.208915902040314 10.92810367716355
Cr 13.76952741962813 10.135287809365344 12.271495238620776
Cr 9.698055049172913 8.446476760011956 8.689713572883766
Cr 9.185036271273404 9.496072896688947 13.402137588486287
Cr 12.016627531791304 10.555268381754491 10.78034998055966
Cr 11.660322553575428 10.810154015766866 13.871503011666391
Cr 11.958593762773681 9.612418843278215 8.796281211489063
Cr 9.915091771798052 10.412602345962473 7.1925918136798135
Cr 11.085072232717055 12.837108053396658 10.503025169306087
Cr 9.564620694395408 11.08440453257143 9.603239502933556
Cr 9.992621084520671 11.462718775889151 12.361062007516557
Cr 11.772910888762038 11.98476944449664 8.292890549701852
Cr 7.755583312027935 9.782775262209014 8.93260792742275
