18
Energy = -135.83775237 eV
Cr 11.623372194869436 8.134730075544025 9.126084978240362
Cr 13.852218084742683 11.696872880048879 12.340075000247445
Cr 9.12921692144259 12.940453539525388 10.875331866029581
Cr 11.426856170247166 14.629171593844871 10.031517940066218
Cr 13.567344521553803 12.758142360990846 10.158148705483686
Cr 12.031074163683313 12.437009427981877 13.844786886155436
Cr 10.646442891616177 10.183971920268709 9.954351263530683
Cr 10.567673078818668 14.580588512197554 12.720407025065848
Cr 9.545891183712461 12.677883640625843 13.418272185628823
Cr 12.768218734514223 14.25769137033394 12.074255649720364
Cr 10.537260465627561 8.478338807512962 11.713957217061758
Cr 12.189392349191614 10.124171352814773 12.274589889103385
Cr 11.308810073065784 12.305836242687185 11.368000346969632
Cr 10.850328875127559 10.245285330140632 14.29635999823314
Cr 9.520617897928092 10.615705259490802 12.436634730507675
Cr 12.890788592570082 7.95214993502863 10.94917681062101
Cr 13.005353933237691 10.315996223172766 10.056252596375057
Cr 11.333738910669663 12.477985205970151 9.146538240592056
