11
Energy = -80.07642914 eV
Cr 9.759551894239275 11.643843718862849 11.253259764626717
Cr 9.942676080829482 9.64471873153851 8.067279596990431
Cr 11.380016807592192 11.373168227799534 9.293489677562896
Cr 8.478334896396857 10.958752046686184 9.540961623442557
Cr 12.028384339945404 10.263028409536428 11.561752145274506
Cr 12.609146799284797 9.230804158725073 8.9948665856399
Cr 10.423696866328665 9.08861030793005 10.32239411517368
Cr 12.070403386663617 9.971534410857016 6.882561995439646
Cr 9.898967560224666 9.814503496366706 12.909912613104664
Cr 7.592373314072276 11.438669854399693 12.277268205610255
Cr 8.144107202413581 9.305190352822335 11.30623932403205
