17
Energy = -116.56351901 eV
Cr 10.893306548950438 14.380718647790717 13.184140330861249
Cr 11.999368838480699 4.9360175883540425 14.286915091735422
Cr 11.245679296996293 17.122378675573685 13.394899900492693
Cr 13.30631894359764 17.160361428622284 11.138539429560728
Cr 12.473497157754538 13.725107029809802 11.064606869324773
Cr 11.428684626102944 15.74973287053544 10.797691972243314
Cr 12.25149363922792 13.394868497801513 13.84541270843738
Cr 12.770948735854502 7.060012301460031 13.670878852555665
Cr 13.08067408592741 15.604960701999113 12.807225635955866
Cr 14.079108160891613 15.342283225909943 10.316884401140065
Cr 14.49034195096493 13.612770514923007 12.564832788662791
Cr 11.835164208051504 5.222712567961618 12.448875069526359
Cr 13.903005123624586 4.220768524351643 13.026573390019824
Cr 14.672204454503545 14.807042780608487 14.65693023379048
Cr 13.727293788120898 17.002458320705802 14.719502517945413
Cr 15.469617597505486 16.238544508862805 12.71857378498838
Cr 11.933042846480943 15.87378131683664 15.17096880204471
