13
Energy = -95.60898968 eV
Cr 10.326820311262843 13.881035308392942 7.665007266156413
Cr 10.250173657969214 12.818221913640913 9.939050737596546
Cr 11.695018530598373 11.246303832388673 8.610199399108469
Cr 10.323653090292249 11.916252981069416 12.749336771399074
Cr 9.589712812621656 10.236392058098673 8.462863088364054
Cr 12.276745955310359 12.17342489998156 11.29593131741039
Cr 10.211785626362895 10.586467883961175 10.762608602135735
Cr 8.314379358023286 8.860615342537283 10.09276267372198
Cr 10.99135214589507 8.430357989600724 9.179495787798437
Cr 12.453753382697945 9.832069713325243 10.610517145255287
Cr 8.729949763323008 9.974562283312329 12.818263326722
Cr 11.638079338452625 9.880612821483886 13.01542373828949
Cr 10.157507352589002 8.33351798776268 11.65888752760846
