12
Energy = -87.59459185 eV
Cr 13.152374410020487 8.937863923332031 12.618030552636007
Cr 10.763522375745348 8.513375551036324 12.312992893182672
Cr 12.682647443551051 8.924429744900497 10.217073898956041
Cr 10.258192832265943 8.52054096666523 9.884072641249782
Cr 9.742230362920203 12.494681048574702 10.18507164094401
Cr 11.994242986310914 6.757477458113939 11.131175729785719
Cr 10.881567140591462 10.725427284219677 8.911815813347095
Cr 11.408963286761223 10.70818963575276 11.363731183817839
Cr 8.496442560754236 10.097152313638135 8.581529889749845
Cr 8.835034452976517 12.348839951370719 8.003914977780806
Cr 7.545169150566209 12.076159823036077 9.418303890510973
Cr 8.955298874951017 10.313991534465796 11.016104103192003
