14
Energy = -104.12411086 eV
Cr 13.271670388323908 11.397536463887143 8.515551668662171
Cr 12.356193631659846 9.524162039635623 9.702070513453533
Cr 9.548208042559176 13.20906412304607 8.734865305511077
Cr 11.821426076859607 10.023419142506903 13.291823361785331
Cr 13.44217746871412 10.598556796888518 11.367017347158773
Cr 9.615836926933401 13.227966417813938 11.139306819630582
Cr 9.427778267906406 11.723947929095612 13.22353509825951
Cr 8.517771425464717 11.25870458818062 10.47907078015409
Cr 9.02439414161616 9.377115209460491 12.60472995919011
Cr 10.413148279924712 10.992631924467652 8.78196606165556
Cr 10.819316617705402 10.835599544631132 11.431060879938594
Cr 11.889682050163646 12.443500377218538 10.19044280837791
Cr 9.788626441279845 8.796426183426036 10.421738058203468
Cr 11.652524257358928 8.267830582798805 11.79708270274947
