16
Energy = -120.10277674 eV
Cr 7.9988317858786555 10.606324303384666 11.954654300170434
Cr 9.049092380385288 12.668868371018286 12.448560221885186
Cr 10.485462087658977 11.307539095295123 11.169712239574338
Cr 10.52421735636958 9.727453956378419 8.893809068967853
Cr 11.709920947467436 9.35783481926716 12.667932099943249
Cr 8.223367832721106 10.681523136366916 9.526680649500756
Cr 9.805399285836806 9.062434082188902 11.209112405766264
Cr 9.709558787414359 10.216403727016091 13.731982050588215
Cr 8.503266393375124 12.819923568152367 10.077903985501392
Cr 10.563318940768296 12.055346732001937 8.82833692320912
Cr 12.679714641484757 11.452149694497182 12.123602964555126
Cr 12.464148459810756 9.3784178184892 10.286815574451516
Cr 14.550685691207377 9.664871462568964 8.94196634354442
Cr 12.772548133816047 11.622022371530896 9.679521968698005
Cr 12.741361171490265 10.229196830585522 7.64964493485603
Cr 11.03862168574366 12.001917878024356 13.759784474875634
