16
Energy = -120.96752321 eV
Cr 11.743513462262467 10.661777365003573 12.019797463389965
Cr 12.949585502111734 10.270106692942363 9.49506291134435
Cr 10.435827016426801 7.685881417892762 10.214903431777426
Cr 11.487266478080075 8.847014940851478 8.27976029701924
Cr 12.493027146648698 8.61244651315806 10.99615988376393
Cr 10.041132013504843 12.87097953917698 11.537208922898412
Cr 9.555003366405053 11.101008858514113 12.851857277101589
Cr 11.85165001570369 12.316386998672119 10.006183640215383
Cr 9.049470153293672 8.643818065150127 8.05699828617481
Cr 10.511042193856449 11.150214533932294 8.19147158444079
Cr 10.117990410514325 8.479424866529103 12.437196880060723
Cr 8.134929330157686 8.414907495548007 10.332990190468172
Cr 10.227587111803748 10.175613532690756 10.296408735566075
Cr 9.079825668585727 12.670108615042865 9.510746408903769
Cr 8.028609223942404 10.490874181513998 8.417169204984933
Cr 8.081930101156404 10.824377412881399 10.93797906971063
