18
Energy = -136.27889811 eV
Cr 11.950006782565556 11.571697667789172 8.987535759176456
Cr 10.221819722518267 11.50696001209241 7.292178184047636
Cr 12.937828486447396 9.306241359487885 9.305447851223452
Cr 10.496575348139325 9.753893961541449 10.32383588847503
Cr 11.069764247088878 9.306733587864759 7.761445755088645
Cr 12.352987757360445 13.186305505282624 10.749036198002644
Cr 11.405600704363307 12.49437784694552 13.284123605135484
Cr 12.39397800267294 10.74514949363058 11.616834674015266
Cr 9.807780416173976 12.3632314224455 9.94395370154299
Cr 10.178475547716761 13.837208851975417 11.715354227322042
Cr 12.408933093209855 8.148214868256078 11.804448462353948
Cr 8.761091370830915 10.40291378279481 8.93110323641008
Cr 10.989539576255538 9.776890388107882 13.448281578547846
Cr 7.603802325590121 12.278189483231188 10.642784325911402
Cr 11.29064421107357 7.537574748130482 9.931807324119099
Cr 9.581144397847154 11.241824861092752 12.284254974460946
Cr 9.779049539333839 8.369440598774656 12.18559612928198
Cr 7.90300730493321 9.892741360578102 11.210135933490914
