12
Energy = -88.80016013 eV
Cr 10.765112581352312 10.839925077624525 8.234297544321869
Cr 6.485748443725994 9.539277561493753 8.501947965143554
Cr 6.971989498927436 7.468545349922993 9.768179381590594
Cr 9.832202546180982 9.061135951205861 6.90134875475725
Cr 11.253822303838568 8.143964172589675 8.83351553311613
Cr 9.079536781176337 6.960225070921906 8.633630548233139
Cr 7.4983032563683345 7.991793261180743 7.025254015023092
Cr 9.47287225668839 7.56887745759144 10.972027484189628
Cr 8.766975118664805 9.32862140350477 9.088558966164067
Cr 7.751442900779163 9.259065430880879 11.199636100412741
Cr 8.091483677255757 10.731893964121744 6.945245015223558
Cr 10.629528635041543 9.705693298961839 10.495376691824381
