18
Energy = -136.73863952 eV
Cr 11.185309669845473 8.381211434112782 9.832991547798652
Cr 9.790359575504237 7.5562213837720575 11.523447469002507
Cr 9.859271181176354 6.718204913818744 8.601437884926142
Cr 11.635555523837537 7.602245566901494 7.240380653957154
Cr 11.089489108325521 9.822397297274422 7.778299304601934
Cr 10.53490156660503 10.640542570995066 10.613815924494727
Cr 8.583758312179643 9.666897916050958 11.87018269493306
Cr 7.89866970312128 6.701812856398076 10.237656778574244
Cr 8.774438207333802 8.98167989234927 9.49100832482156
Cr 8.981899412112682 8.596923130815357 7.143300980189371
Cr 9.155266497306158 11.205710825331536 8.55556590189024
Cr 7.538330063718667 11.237384017182697 10.384288673238185
Cr 6.8308688788795315 7.969280381283987 12.03728150784874
Cr 10.83202411770429 9.739534928257763 5.34365292123487
Cr 6.414497100395091 9.113514535011666 9.869310499615866
Cr 7.056594714274064 7.443019552946786 8.140382956931376
Cr 9.128184237373206 10.898678625911495 5.960302363738798
Cr 7.101556073151373 10.191674739401817 7.74694228123806
