12
Energy = -88.43735794 eV
Cr 7.055296627072418 7.711323051518035 5.33934551697518
Cr 6.987468454921208 10.005128401819656 5.865682014994165
Cr 8.907617986939888 6.694830522965838 6.388708670768687
Cr 8.946399059367526 9.004400403228578 7.00040992312651
Cr 10.786212829931044 7.82193571676413 8.249763577458195
Cr 6.775867038263365 7.939621097152804 7.786651871903434
Cr 6.71923806142058 10.296501150671494 8.195844279378806
Cr 8.68817830047034 9.322021503492888 9.430091884117786
Cr 6.691491954411084 8.30243845506114 10.274138312924643
Cr 8.691371706205569 6.843911770717126 8.88385721256509
Cr 8.51348367386359 7.2246743574022085 11.323138420009485
Cr 10.5476485689729 8.143487831046084 10.572642577617373
