17
Energy = -127.99380372 eV
Cr 13.032183103012576 12.517952045157179 11.914055424275965
Cr 11.157835902869879 14.108592798452337 10.8062454920109
Cr 11.705385685843252 10.581316633053607 12.770658953581759
Cr 10.305645043507454 12.52915149487915 12.369196753059583
Cr 14.172287817536281 10.76463787360101 10.62828240087897
Cr 11.658905452469185 11.589250127258204 10.241497258388932
Cr 9.078623677798042 10.28849631448016 13.487026998366833
Cr 10.197583836204902 9.99024419024227 11.034405010219343
Cr 9.481192044462144 12.445720270018793 9.613816843744987
Cr 8.227260792840513 11.530650779046793 11.563748393898116
Cr 8.167478604290848 8.723736850903505 11.95293889594658
Cr 12.12700830641213 8.972002349832719 10.078616735354954
Cr 12.777743614113371 10.528128158644884 8.535475451828109
Cr 10.116869141821756 10.283594138111338 8.54242530350034
Cr 7.929950687234499 9.81985535789512 9.673914578678042
Cr 9.570761697158936 7.909028654308897 9.716416489624343
Cr 11.139671271261161 8.127389303819427 8.042505326424536
