12
Energy = -61.99833701 eV
Cr 7.898502051062503 9.891193362605877 5.294307541585724
Cr 7.690101036269476 7.702287429998525 5.82421082867918
Cr 9.462710384234827 9.208095513478948 6.740065986335234
Cr 7.1798745453193344 9.35322085602802 7.378873547886402
Cr 6.204919722989751 7.302576040051767 7.594558150701331
Cr 8.580002022904663 7.492770907758901 8.026364893805098
Cr 10.474998325425457 8.282411513081962 9.094699783037294
Cr 7.089956050727006 6.0072009892066145 9.165866105123294
Cr 8.842268809453854 9.805372238643738 8.904727525358767
Cr 7.3043766658851 8.217326394809115 9.799661991633451
Cr 9.052914316751375 6.803247805480111 10.192393781513168
Cr 9.206051335898941 8.92097221577902 10.970945131263802
