18
Energy = -136.75130194 eV
Cr 8.529969578982667 9.582481829808929 9.012388986474788
Cr 12.07835092783025 12.818072271844395 9.061747596153516
Cr 9.142462305692636 12.49796009580995 9.06980814144147
Cr 12.163773153608709 12.758072366728262 13.334312788011454
Cr 12.404128520206864 8.916354302766525 10.921413778600837
Cr 9.05579993164126 7.5549057981648255 10.356026904171348
Cr 11.219767819775704 10.009478282041657 13.327087402870836
Cr 10.007972926658512 9.437735234625636 11.36059251907076
Cr 12.772852577531294 13.950850662275847 11.516211360231926
Cr 8.353261482793327 9.349906678265787 13.061426769263262
Cr 10.493374374392808 13.073574323677525 10.94525541162309
Cr 11.038310391593768 8.25848512432602 9.11707552175331
Cr 8.385060439070529 11.116943341832167 10.871009724245717
Cr 9.691017228913083 11.630306258224147 12.952068150266337
Cr 13.136293634562625 10.208040042321002 9.129399526432172
Cr 10.746944598787302 10.726313336812005 9.336791144585597
Cr 14.050917753723194 12.08980027614664 10.499257050365696
Cr 12.01467734735651 11.305654767449314 11.413062217557895
