19
Energy = -144.81143097 eV
Cr 9.817062559074733 11.461647151713166 12.036844837746058
Cr 8.211956443445512 10.700660731828696 10.433422014034058
Cr 8.451771931296962 8.893232134048093 12.094658574784418
Cr 10.68292418948237 9.099516775671757 11.581952922564339
Cr 9.170854844477056 12.543314796963362 9.220786568953674
Cr 7.051309854052607 8.2274941918524 10.206398021902483
Cr 10.935071547928667 11.238607298455554 9.968569238058162
Cr 9.253411290159281 6.728553370038874 11.152217543823276
Cr 9.431956343008476 8.70314247776237 9.49860716295436
Cr 11.675457965748723 8.792344627834977 8.644338788406078
Cr 11.563388327546777 6.995177447321828 10.394356474953518
Cr 7.155138976672906 10.142266727591583 8.257571997937623
Cr 9.42616994227909 10.540884169746347 7.828211711758184
Cr 7.96542155091237 6.28847042836275 9.229469301274111
Cr 8.174420685394079 12.016701679996922 6.41373361952373
Cr 10.176244143492887 6.500357141894838 8.459574969769408
Cr 10.092894386665721 8.423174524944889 6.708829697985848
Cr 7.935858670361661 7.965538321995397 7.509531851362324
Cr 7.990629052063096 10.055419048652436 5.664287335700576
