17
Energy = -127.47990799 eV
Cr 10.838417505466927 12.323071979104608 15.329808923999597
Cr 12.306949918114652 7.856212570527591 9.929028403492767
Cr 10.360820090858796 11.126220946993046 11.403941757450976
Cr 9.658659887923136 12.488490122048336 9.02145567857578
Cr 12.666064780122644 9.949124534251164 11.135933191612109
Cr 8.79167459822864 13.115585735669024 11.120145113328663
Cr 10.754398316141764 13.169912637854397 12.98635730204495
Cr 12.788127064072906 12.311797497374481 12.20989521364227
Cr 8.536852439791085 10.70168276118323 9.669038913998131
Cr 10.960989354350057 10.033603710350873 8.917794746946152
Cr 12.950058035625899 12.918277864876117 14.686835123701552
Cr 11.419949715666668 8.693247858057347 12.54682179602455
Cr 11.917084830880357 12.096513565110659 9.649778022633122
Cr 11.606528259718338 10.694326249178637 13.601591652778664
Cr 13.196079641504214 9.452433976261489 8.484974752154553
Cr 10.090464605543376 8.663905674331485 10.60183957967208
Cr 10.926317997514916 14.095915387197815 10.80313849938936
