10
Energy = -72.81644786 eV
Cr 7.788954475487824 7.7219885212304105 8.869257558253858
Cr 10.197653922207397 8.232478743163973 8.799993944915752
Cr 8.703935290308651 10.260476438259904 8.357478527458417
Cr 11.06114800736278 10.652681584442554 7.82760967683411
Cr 10.297437659037524 12.578128228351138 8.62051449799375
Cr 8.701805342409852 6.4616022980023375 10.411029395926352
Cr 10.315196283939272 7.763348733039006 11.195135659571282
Cr 8.449131499604887 9.26143319442409 10.67760505900407
Cr 10.742358260611391 10.297685391607036 10.22477145891912
Cr 8.894979259030698 11.922776867479813 10.169204221123145
