11
Energy = -56.50012067 eV
Cr 10.002596552330207 8.323031327232245 9.04899975540923
Cr 8.635845106257415 9.035976390549113 7.291233419059499
Cr 9.96269137567914 10.563412908260911 8.527859422593814
Cr 9.107211768468995 6.775407847058761 7.414710082102374
Cr 8.847572537740541 6.394780772988659 9.643775929646754
Cr 9.098427017257436 9.924101334714047 10.461116222385698
Cr 7.697899564332404 8.366319501247773 9.35980380500098
Cr 7.363433913829703 7.450054914702995 6.067786707760794
Cr 6.971969498105675 6.546179580139241 8.138329142360808
Cr 6.358226825603909 8.820650316858048 7.556944949812158
Cr 7.661152952766016 10.537801107353548 8.731196079712928
