12
Energy = -87.41010431 eV
Cr 8.413169257320604 10.429506928732104 12.439142159435281
Cr 12.134149776820273 11.833361042038156 9.890276547459482
Cr 11.849196448886897 9.420769624830335 9.498852813182056
Cr 8.93223102321969 12.633595204565678 10.514514311646975
Cr 11.918714871963447 9.082556308580163 11.8056070674613
Cr 10.321042940811186 10.78846575942929 11.128329179446412
Cr 9.453493103564206 9.207510781357671 8.95138963533721
Cr 11.829867153486859 11.686891483939972 12.71245247536185
Cr 9.975975931397462 11.623155214205218 8.666742544880304
Cr 9.50369016239451 8.612904715493785 10.793501138506999
Cr 7.739189666009689 10.53318909149596 10.21779751348895
Cr 13.648736193222579 10.662813842189498 11.40324681473823
