12
Energy = -86.88509652 eV
Cr 13.590477066911506 13.447602071645488 11.48066172354506
Cr 12.38381382111485 14.157356398071366 9.623013724991154
Cr 13.151772306818987 11.337377802823758 10.05160051253473
Cr 12.304489057692765 11.337997717317512 12.182466149028766
Cr 11.161664658118744 13.37672073361714 12.199267475970323
Cr 11.391479064764265 9.346771123448375 12.947678847753163
Cr 11.009493525682803 12.238739617452838 10.199805775178291
Cr 11.213936095281326 9.564741253509222 10.644505929243785
Cr 9.114361456998616 10.72085853559925 10.121942206901878
Cr 9.784346443932934 11.011631351818174 12.42290273428116
Cr 9.0657799503281 8.488279348103793 11.800890730136864
Cr 9.015953027044606 8.295034730303259 9.587510383228732
