19
Energy = -144.24224438 eV
Cr 8.433049346878867 7.641178608176758 10.13907093446636
Cr 11.710855238735018 9.178330868646851 7.39931587985477
Cr 8.971652043399354 12.02319341205516 10.720976335044
Cr 10.944441556766712 11.023074742461485 8.815112370818444
Cr 11.311873682637568 8.376580716950796 9.592707219970723
Cr 10.53032991613988 12.658660951450418 12.958527424378858
Cr 10.495704055102141 7.945403234442996 11.842008249008058
Cr 12.912055368596752 10.271614987580689 9.810660921003754
Cr 9.931156958176658 13.607526956245792 8.738011809095626
Cr 9.142162624570984 10.649696208713907 12.74422682545661
Cr 9.311042102291095 9.165903913615594 7.778277520093494
Cr 7.118137400623884 8.828324873094665 8.314921842920175
Cr 9.85312107819147 6.819418855295011 8.3935369560433
Cr 10.567995000649043 5.887003575698092 10.561007026863944
Cr 11.24667635337531 10.338055134855667 11.581479403940486
Cr 11.392240271242297 12.672253316544278 10.593191625541325
Cr 8.396599113706007 11.462552616109406 8.322259510569639
Cr 9.352186587981269 9.738197261084423 10.189543917366695
Cr 6.964069896812739 10.28298305532985 10.106406035566025
