23
Energy = -177.91068385 eV
Cr 11.691855514666543 8.183237538839563 10.441608828701167
Cr 13.092222598439989 9.737517500116013 9.40147931977257
Cr 11.668663314121387 10.364003584918361 11.77340630270384
Cr 9.448574198967574 8.82118972201841 10.90707023857939
Cr 10.59042128237153 8.693150521299529 8.3087784421902
Cr 13.211343555474441 11.732887971031612 10.490263445909223
Cr 11.557358754387836 7.877173243332161 12.848054950577453
Cr 11.897550197425558 10.27504385927238 7.239123859736774
Cr 12.180083104319772 12.265817090925573 8.405041929334093
Cr 13.580257967297587 9.30075546267736 12.272909632139873
Cr 12.508611215632056 12.261032874250104 13.082654499660348
Cr 10.667608676889152 10.77881233543033 9.670793700549547
Cr 9.721497475643131 11.241841885346911 7.294702186050308
Cr 8.416767582280833 9.579923715698289 8.705071425789109
Cr 11.087698215389294 12.960914272272554 10.955672168033518
Cr 9.982096602774115 13.27350623308187 8.756248586199353
Cr 9.87128548579018 9.66248463719063 13.37692935359913
Cr 12.199053269258721 10.209055935672518 14.349039407415876
Cr 10.449390943711357 12.45246215347869 13.85337705688299
Cr 8.35825877840144 11.782084338153554 9.61825042436446
Cr 8.847672897426113 13.593247789755795 11.532364872453995
Cr 9.183707894390697 11.306520691277852 11.943639832511188
Cr 7.428415004777632 10.099113014382128 11.388935843208051
