21
Energy = -157.28941854 eV
Cr 7.743527381501366 10.714448215539008 6.999918405621522
Cr 9.582904059183003 11.65793098716653 13.078923618365863
Cr 11.816928786239755 11.683528490297293 13.934491752420488
Cr 8.47085769723219 12.232635526694425 8.20123020266656
Cr 12.268081239520988 8.189023543694278 11.100287811187005
Cr 8.827059650983857 11.48560829999486 10.559933936558508
Cr 10.411227078008656 10.556960233655078 7.336279401697132
Cr 8.078073110159485 7.449946364584466 10.151207818302701
Cr 8.395775066419073 9.470126122376035 11.72051000841199
Cr 10.77205984372868 9.761131110984222 12.359026862172383
Cr 10.603303253834007 10.198252534469251 10.054352048040467
Cr 13.064006598240912 10.185500003333265 10.891436901331335
Cr 12.618286281261998 11.54929219354495 8.924419069305864
Cr 13.274629498542646 12.44218219736346 11.92842943373742
Cr 11.233776931858799 12.262855731201654 11.336185356817031
Cr 9.953295318905573 7.812365981079115 10.707859756249713
Cr 10.837863934035171 12.492773167409837 8.859311391550468
Cr 8.8032717580534 9.332861878435532 8.9289385898508
Cr 7.070106057854417 10.350811742406488 9.586232370498955
Cr 11.878371075890175 8.774838629107718 8.753937454169945
Cr 12.877904057993218 10.019964550826499 13.225774283687468
