24
Energy = -183.42125635 eV
Cr 7.8961364890812 10.225602879649456 14.45998072497857
Cr 12.78884875335637 10.479383438899497 9.691787533481554
Cr 13.702236445749335 11.96566770704902 7.572999717526478
Cr 9.43847771223264 9.550701977679328 12.560035380067307
Cr 12.887527226794164 13.91339202261667 7.689103130454751
Cr 11.243458826603922 7.890327621204918 13.800899623175649
Cr 12.978448824691398 12.793841494173451 10.187129441459255
Cr 14.940053766421228 13.79221878328427 9.451946659028993
Cr 11.510910406751142 10.41938456937619 13.759680817618229
Cr 8.731669173867402 12.583156050179635 9.74070899347499
Cr 8.190998618956563 11.507937960538639 12.042221513229414
Cr 11.486124538483788 8.863333105147849 11.468924900705112
Cr 13.327619191177769 10.630612885971443 12.021921692290457
Cr 15.124957004313401 11.412753960427802 9.54715987066463
Cr 9.868010174069338 9.737175932510429 15.37926204003747
Cr 11.181990661593806 11.684865260476831 8.457215047477202
Cr 9.49143784626882 10.25537556217333 9.905061584163262
Cr 9.781890901868351 13.752744916588938 11.68283346971247
Cr 9.033783099572315 7.7674332617191 14.338746362699988
Cr 11.126980549642914 13.771277804591277 9.417635626591336
Cr 14.904250807902008 13.270853613473097 11.967397325741683
Cr 9.794974073802951 12.091204103784634 13.80962785548015
Cr 12.408965816210934 12.88425402991202 12.48515529895105
Cr 10.811518762836025 11.575959806105125 11.234013109525135
