20
Energy = -153.08672947 eV
Cr 7.275346653035779 9.438791068364154 7.269619413047402
Cr 9.25044809077683 11.613674243772673 7.378155031058492
Cr 7.306012733315194 11.641959443183918 8.372908098013212
Cr 9.993648596928033 9.237650802560472 7.322006804819667
Cr 8.119758177089171 7.54473775587237 8.625847062100863
Cr 10.467031561197304 7.7008433627840045 9.313365611890166
Cr 11.467629238846932 10.684179566053736 8.719575082019157
Cr 12.699649103671806 8.589029283379027 8.878624278566459
Cr 8.854672296466973 9.80222258802196 9.395064733982109
Cr 9.625898922677631 12.009141523286072 9.858196817737767
Cr 13.458275570626954 10.231774920048585 10.623382045307604
Cr 12.29831369936908 12.141222355546212 10.485829612012475
Cr 6.474270996368514 9.55598446252089 9.969452264699877
Cr 7.884174959423304 7.7740295312867405 10.922240543054144
Cr 12.531362897945236 7.632285800944052 11.113704041910061
Cr 11.105139260584062 9.678587303465573 10.873706321575705
Cr 7.435146040276919 11.635948647026751 10.874088794347113
Cr 10.481749195319894 11.593748100820491 12.167744941358176
Cr 10.252490630957695 7.308662246130376 11.677855682666662
Cr 8.65786293488044 9.824408554689981 11.797514379590492
