28
Energy = -213.72440357 eV
Cr 7.359361078095395 11.51138374068207 15.013468989961947
Cr 10.560767174627278 11.307778097336076 13.612122037236569
Cr 12.12495277314187 12.478080277165317 15.011428695374482
Cr 11.477097839882655 11.235264368183799 11.138315353381357
Cr 12.28440979886222 12.529923189463357 8.653303644680362
Cr 10.143715191892076 13.797990068137779 14.224972860788666
Cr 14.36543179118236 14.389169131447813 9.474061462271557
Cr 9.01750696443028 10.434391382772295 11.650252024982978
Cr 13.746625457017135 12.167156671986838 10.935403616214323
Cr 11.66682458166729 13.822897768001372 10.118629361941501
Cr 13.007027223553404 10.890617948548366 13.099574388833979
Cr 15.165020263916084 10.739183862593226 12.060208272263667
Cr 12.93694751130125 14.447863269827309 14.12700554681528
Cr 10.00181447383458 11.552324373869839 9.413705206996866
Cr 11.073197734135151 9.33120982626071 10.197218045282936
Cr 12.81320342314438 10.344895354708205 9.029958512573515
Cr 11.883347116695264 13.373106206488618 12.66607593578948
Cr 14.793786805022675 12.190872334825787 8.813909491991588
Cr 8.478567457421706 9.970229701449345 14.099617282702399
Cr 14.87635735906201 10.039470727027407 9.969696073181789
Cr 13.13219659053512 9.193437111941995 11.375812328474776
Cr 14.388391139120666 12.90497675365896 13.388503261599705
Cr 9.43960429524989 11.994496628705953 15.595966216090327
Cr 9.85546846924439 12.986707056188122 11.387179199987122
Cr 10.706527233620907 9.280578990075131 12.599753466980143
Cr 15.961170623898665 13.014565940346325 11.107503196987476
Cr 8.452483380959201 12.362046689829981 13.230596092183939
Cr 13.654306001225509 14.720279891215851 11.72822558561873
