22
Energy = -168.05640178 eV
Cr 8.368485486293896 11.747418429152615 9.030246290621706
Cr 13.877138862514935 11.412271552767761 9.335706162050561
Cr 12.32422375151088 10.108125339862626 8.544165541795264
Cr 13.699082766533214 9.013862496002773 12.916970128469561
Cr 8.572028420901933 10.298004954360248 14.19854595447516
Cr 8.169583298225655 12.391713840137276 12.874943780138985
Cr 10.07021024581277 11.037816223887692 7.25358292529692
Cr 12.186534738673052 9.851483600586224 11.170750029771565
Cr 10.37444501958451 11.348939764416288 12.30523058156151
Cr 7.752407357264667 10.714709886658634 11.515373712880798
Cr 9.901364775238886 9.953975158223106 9.875724147226752
Cr 11.946882431877361 12.326204544221694 7.252787995543484
Cr 10.25483144110674 11.780586320648858 14.691407310151877
Cr 12.82281451768078 12.268756053061832 11.421451856993503
Cr 9.180075578249607 13.162132461362805 10.774129598563391
Cr 10.010297972412923 13.619774880108324 8.152180178013932
Cr 9.5579190674874 9.134758673845832 12.247069301493594
Cr 14.360861478617073 9.186194528492125 10.162606960936309
Cr 14.808226607892449 10.763785752505527 11.851422832963205
Cr 12.68289947446727 11.153682676681159 13.616696933856277
Cr 11.031434282777646 11.993856274180418 9.76365940738248
Cr 11.240920560396068 9.463496835127769 14.111641251791644
