23
Energy = -175.25679099 eV
Cr 10.91630383542562 13.480624745238314 8.421528096406652
Cr 8.524693648689375 9.840700749992507 14.050295350837596
Cr 8.740368258596769 10.04994056963399 9.971742664273135
Cr 11.087232436689066 13.282729413967404 12.549415161247545
Cr 10.757370481310632 9.231804120054779 10.4134580265072
Cr 15.221470189249994 13.329611598841634 10.584692738902072
Cr 11.879065928770444 11.8445150545189 10.45492748299946
Cr 12.544512942602662 11.177388713252986 13.807429677021368
Cr 10.468044945374842 11.05418729401638 8.457413845049702
Cr 14.99087180566174 10.889555793906995 12.462547297000786
Cr 12.701175764472065 14.068097046623615 10.079906615982475
Cr 9.15976152933556 8.431019847010536 12.199187663847038
Cr 9.225701315349898 12.205129519333163 10.380308430640826
Cr 14.529389267049671 11.21869427968169 10.071511803258764
Cr 11.05101027430428 8.964662900220404 13.270726930144432
Cr 10.118863751280857 10.922694240879013 12.053015678813482
Cr 13.469394048439005 12.65089813719023 12.207916264163902
Cr 12.337849412520521 10.436559381618622 8.889119649081326
Cr 13.487120852761208 12.643049566545502 8.480263971898127
Cr 10.27189756099647 11.510818693726321 14.60091206594219
Cr 7.50590281647983 10.876278161071717 12.18948875086981
Cr 12.737972331476707 9.973971053078866 11.720192116854841
Cr 8.4544859256198 12.510485171951341 13.183087838023843
