29
Energy = -222.09469027 eV
Cr 11.960627621346577 10.105810090705837 7.422600187068834
Cr 10.24924903149067 10.072693704412963 5.530266818518166
Cr 10.164322035223094 11.86523586857198 7.524905553520009
Cr 13.81270821260037 10.048197554982103 9.659927581932983
Cr 10.708915771705291 8.02050959465341 7.328550340403453
Cr 11.87964343918252 11.413148806874586 9.697746354788643
Cr 11.479530694547199 12.990500487030111 11.66615613101699
Cr 11.599452394582476 9.114489520199802 9.66151562786296
Cr 13.166160219982988 11.004818385890541 12.297744565745921
Cr 9.363198826640607 9.846157949559087 8.071949574687743
Cr 12.667033729022096 9.029114451951688 11.93440243761915
Cr 8.981727537619873 8.56070362415665 5.698314973496193
Cr 8.090126250189398 11.260696168622786 6.307311399202848
Cr 10.538299053554612 7.237627113791759 9.920868672823378
Cr 7.165787265906114 9.278697406062623 7.172908353530496
Cr 11.54620850424108 9.711626089146307 14.227449643522863
Cr 11.090866671968048 11.712105862532347 14.147435833109874
Cr 9.07487738899343 9.456957051297683 10.424790595006172
Cr 8.532029380118471 7.384443725849817 8.184752719326848
Cr 9.721375525582221 12.044798898317135 9.713940218889883
Cr 10.65492014168165 10.60019478975204 11.73885739663028
Cr 10.116252763109014 8.195181787043753 12.597978161312273
Cr 9.613370525911428 12.809220729966444 12.211215027109885
Cr 7.652617674357697 11.41158914539982 8.887815646938401
Cr 8.164360878887303 7.050990130423669 10.897283486373338
Cr 8.966262028787613 10.129306026743345 13.225281236047907
Cr 6.961766525105169 9.307771750369044 9.428569908942556
Cr 7.370517780115256 8.450779141494161 12.119301389562652
Cr 7.809224130003847 11.115208542297601 11.442110731602135
