29
Energy = -216.54215921 eV
Cr 12.872507952832402 10.835879908592247 8.707779473955423
Cr 9.30607413249958 12.705335486765089 13.9086810003882
Cr 12.738062193836285 8.104637878339432 11.6391732534245
Cr 11.343230693505024 12.560168699014781 10.339103723294158
Cr 11.306769808768223 9.68568247850902 13.002351222882806
Cr 7.750803270353546 7.776038862580101 10.317792723962725
Cr 9.261343890915443 11.024934329153899 11.813085107158933
Cr 14.5371558260638 9.543599350911302 8.024432549768456
Cr 9.058195779019153 11.765056628330834 9.491011018123348
Cr 10.444103951171483 7.633229120105092 10.076818488009264
Cr 9.381264119413638 10.366192183750284 14.139571686519583
Cr 15.396509326544052 11.901924915388433 8.547496188265194
Cr 9.139746472722834 13.943764390336478 9.116710438091031
Cr 7.26808282754627 10.064591653426412 10.77986932626195
Cr 7.314210514242369 11.839417727878049 12.982193834021357
Cr 14.371339126281306 12.532887994443545 9.94399101845729
Cr 11.56802728379422 8.94790514798873 7.912369999817429
Cr 13.067099860342228 8.300053420624721 9.790360620855228
Cr 11.34531724437116 11.909484229382718 12.639132097538988
Cr 7.19632716935611 12.524930517087187 10.745214375304533
Cr 7.443914033934442 9.381193887656895 13.066396924453517
Cr 9.185811723817034 13.512842453576068 11.543875573704497
Cr 9.427640480367291 8.526857165474706 11.936874104655766
Cr 7.259503247533844 10.656550068548873 8.466207517483163
Cr 11.083817574845893 9.975426212914593 10.404131561641883
Cr 9.088470862801056 9.14594689213113 8.90230087004176
Cr 15.018555095155584 9.842099813977525 10.33423343436118
Cr 13.098146559539993 10.669533438624265 11.250674284131971
Cr 10.437457058267865 11.248768482374517 7.932346358708862
