20
Energy = -151.60319154 eV
Cr 11.527960252302728 10.100107625145322 7.023815234953512
Cr 10.982308892745284 12.061283749054832 8.071170110318075
Cr 8.857681141484457 10.324225768947066 7.428962713196413
Cr 10.123366954570905 8.305593944834792 8.089408646017727
Cr 7.602275950523288 7.901235862772667 8.159735225548388
Cr 12.991953238360225 11.268478928155794 9.201297614370894
Cr 6.560670820295912 10.130657639731478 8.050170327005373
Cr 8.479769786109872 11.909281674747886 9.07182960896176
Cr 10.595295281804406 10.30084449112114 9.625853762037885
Cr 10.292555808063337 7.685891175680629 10.631890628513238
Cr 8.78245133140125 6.241267772898851 9.414507856910904
Cr 8.265312022346203 9.185752054199076 10.095597520166521
Cr 11.646632422762538 12.283050879580939 10.895382072929536
Cr 6.665432269484916 10.898813287339662 10.30867373424654
Cr 12.444575130449234 8.405014898792809 9.050752198434996
Cr 8.408096056373095 7.226805879882375 12.096159375739518
Cr 9.290771027158947 11.2736182123066 11.127332311536064
Cr 12.501534008884281 9.538909884684601 10.846940138945468
Cr 10.168725654783138 9.484507050124215 12.240366487209076
Cr 7.7754581675743415 9.437485437477465 12.532980650436981
