26
Energy = -198.7970626 eV
Cr 7.602128191603953 9.09945432241261 14.965459433616747
Cr 11.470771937476655 11.58784034150651 13.19634994086959
Cr 11.87861808047466 11.063258719619554 9.378784609806722
Cr 15.211204962633476 12.525024126331653 11.555958339244743
Cr 13.824562373507376 13.225012314212831 13.13327840332011
Cr 8.960443427369741 11.258272377322202 13.850541697711721
Cr 14.271866344413299 13.10651254914334 9.581681788361006
Cr 9.71191588987181 13.04177542375437 12.159623979427044
Cr 11.200502778838537 12.15990489234817 7.073503742853261
Cr 10.249891819726662 13.116206913561216 9.47319401557362
Cr 11.439364988317518 14.82137362896302 11.26317040098942
Cr 13.60787934982438 14.738355545268268 11.234263830942323
Cr 12.299565145944213 12.459031482576046 11.154311622139687
Cr 9.774970535898357 9.427741302686883 13.16858002009299
Cr 10.160342636204238 8.664413543862835 15.427278901140054
Cr 13.349384351896184 11.117886529665483 14.51766623936446
Cr 13.85726636107705 10.814290668011736 9.845942393839652
Cr 13.332022888225865 11.892079027051354 7.378382965619969
Cr 12.236847125168369 13.959591878012942 8.826824723602469
Cr 13.747744285427137 10.621511842011882 12.275085631776125
Cr 11.967358547850711 9.864122112482939 11.49370117369398
Cr 8.358905919000847 10.45736174050812 16.31957832161912
Cr 10.848291344224133 10.618339940780961 15.442738455534116
Cr 11.569900281353046 13.895823191488335 13.335093429733686
Cr 9.848345254458346 11.257107131189056 11.165899566080148
Cr 12.29055482397735 9.199285617508714 13.954109213346534
