22
Energy = -168.6706512 eV
Cr 10.308039203756396 13.087626690245786 10.909904543866174
Cr 11.94969258702571 11.24770712045205 7.446064111367905
Cr 12.824767063283124 12.60804058092683 9.734955788664292
Cr 11.002254584072459 13.284970834682378 8.395034092392697
Cr 9.501994760996352 10.926332725546668 7.278062124114289
Cr 8.545561721360265 12.341844763063976 9.509716943706415
Cr 7.127870315004748 11.244159597448308 8.067592182961006
Cr 8.192304952628449 8.783076877656582 7.234194056237536
Cr 7.0445170836156485 11.138675701038034 10.922243178115377
Cr 8.531953370193664 9.606434827519765 9.528726531490232
Cr 9.243423991492273 11.06903317918412 11.879400259545537
Cr 10.634951867949832 9.004899181752306 8.238372100909531
Cr 11.028317244218096 10.948619363788033 9.725764250496466
Cr 11.758255729933085 10.940989168536655 12.197297363703937
Cr 12.881173311046163 9.44265623682172 9.77186941377588
Cr 10.474668314734467 9.0430531759117 10.890719054538119
Cr 11.588829630868188 7.365385569359226 9.703552348310643
Cr 12.208574143794563 7.8502874312402815 12.329856127914619
Cr 10.474565810920975 9.207854994337634 13.40008022687609
Cr 9.03324564229613 7.223047399435817 9.61823064718243
Cr 8.153459718808822 8.741497589486661 12.010190753806341
Cr 9.868658517762515 6.878721292497481 11.920479022297169
