21
Energy = -159.1875271 eV
Cr 8.136833746473144 9.601082635643499 5.399520395054486
Cr 9.600559484169047 7.465478300078179 5.482088350646566
Cr 6.371002810745083 9.048411945440435 6.181792499985355
Cr 10.247768127465335 9.751493175229102 7.089111832258531
Cr 8.270469947919635 8.027375658672199 7.590413469317524
Cr 8.13947013291653 10.74479693205789 7.412088840018722
Cr 11.060647686886474 7.122990182055716 7.132716280281188
Cr 8.726293999739791 5.9165233207971 7.582822699658115
Cr 10.315773327093662 11.5037942506594 8.860435802152756
Cr 6.070054010267049 7.185163119825219 8.106885150792875
Cr 6.453312229374657 9.880801656738331 8.613954466385918
Cr 11.408546823098886 8.964599892049895 8.83893657584787
Cr 9.060328221291957 9.063092585448109 9.578913427618156
Cr 9.786240876770979 6.719483591959427 9.275938231827089
Cr 8.036694652974814 11.054699535509691 10.29460542591429
Cr 7.232862001207158 6.549075907878636 9.681005156836981
Cr 10.740334352553736 10.759631526985599 10.78730144492547
Cr 10.717269323340982 8.577757612239099 11.501168622914768
Cr 6.406207715129766 8.67721565467319 10.467348007600494
Cr 8.416580446217756 7.320964804891648 11.623024985843957
Cr 8.352195106472475 9.615012733276707 12.049373356227823
