21
Energy = -153.78121344 eV
Cr 13.901887097252098 14.235327508558523 8.5052425570521
Cr 9.711898117035625 9.498566948472892 7.982297465555103
Cr 11.738204065716072 9.88030354990226 8.782824626900299
Cr 12.393238557437732 12.274465456432367 9.450698480394527
Cr 12.945259040205555 14.829518552700463 10.55689699494445
Cr 10.278204404932556 12.008987084480454 9.250752547806181
Cr 13.241328818814747 10.46657040516791 10.899568682777902
Cr 12.106746142536746 8.237300695346534 10.802419428478501
Cr 10.726939304373893 13.57687725025718 10.897918841479152
Cr 8.607308183092108 10.5207782078227 10.12207405852575
Cr 13.60772951766266 9.062864422020201 12.788114341470925
Cr 10.137213253951863 8.578659581609077 10.612759698265853
Cr 11.017730016772129 10.940344579560735 11.466700302089027
Cr 8.692727726355514 12.643216916486141 11.441935620337532
Cr 10.819405587927774 12.78120328259269 12.993015372997386
Cr 11.42683113608986 8.890090783759334 13.128485831899978
Cr 13.12158418164346 12.673779688146114 11.992007197986744
Cr 12.825168546020008 10.974115663734805 13.565713232300954
Cr 9.011888947692146 10.353706992793498 12.677377184300047
Cr 8.546241833606942 12.424934631479204 13.494535767206413
Cr 10.669355305329669 10.772790286356944 14.170758042108384
