28
Energy = -214.84738361 eV
Cr 10.365733745157415 13.45152736689487 14.371688768687823
Cr 11.912569276120681 11.682791606044413 10.448878138800284
Cr 11.67327176813564 9.288819627030371 10.00278601927596
Cr 13.271622745009687 9.705174654671485 11.687436197302217
Cr 10.297677298792582 10.942549749730848 8.352570509410421
Cr 14.560556180828627 15.022688743162314 15.24916196060104
Cr 12.635004566122738 10.861821288370464 7.97290900601524
Cr 9.275170421750145 10.764337941792466 10.168991939504775
Cr 14.323305006441219 14.252182517559932 11.99839008252015
Cr 13.915739049341175 13.144740670909245 9.29260698080115
Cr 14.16029345944399 10.431830451944455 9.40173709797677
Cr 13.601463580919855 11.007652883171952 15.523295356964493
Cr 10.611624912511841 9.873167640292225 12.02487123162495
Cr 9.732344203921814 10.883395006765552 14.141460129028689
Cr 11.241956366426807 11.121621687922639 15.641511156271822
Cr 14.840801837968266 13.385726732094454 16.37781821821409
Cr 12.447129313474738 13.336933244634647 15.21428602726597
Cr 14.01366810997129 11.885592668073388 11.578119724101528
Cr 10.464576966046813 14.606583664675389 12.333004330348174
Cr 10.281825025597604 12.240988505492219 12.042223417694514
Cr 9.84734980900646 13.420640785370296 9.813183238176254
Cr 12.09114779123981 9.459502189035492 13.693979060121732
Cr 12.187823885109522 11.818221020058463 13.173124816503446
Cr 14.440423699460405 12.970277248407012 13.751911696160157
Cr 12.173224491709508 13.933676883963749 11.157022686254605
Cr 12.536261267137066 14.778763515179744 13.619692659008287
Cr 11.599594523311046 13.395832043838965 8.505442306895057
Cr 14.621456011585511 10.31928814884455 13.743681239450545
