24
Energy = -180.44584596 eV
Cr 9.308139029434724 9.175387985384084 13.405607605140872
Cr 9.026811846025758 10.584088546134927 11.44374218283658
Cr 10.21653891793676 12.752671429613946 11.329493884705789
Cr 11.323220497619245 10.864838218331228 11.843006774053828
Cr 7.428435420591231 8.701378208381692 11.687578951625635
Cr 13.212667390175211 10.206633349865589 9.682103338851448
Cr 6.310404387760099 11.309637408421155 11.217319449565073
Cr 10.784906642383865 8.2801310162088 11.884689810450483
Cr 8.757053381763958 6.546176045348971 12.512427618561484
Cr 8.610641015335904 11.824688991118414 9.895923349845203
Cr 12.395287986798992 12.390472611279428 10.02085101378694
Cr 10.312436880358934 13.290413373112678 8.824171835415317
Cr 8.319054342129053 11.53232547600321 7.515953001634833
Cr 10.127893954663147 5.909705698410807 11.513611891218419
Cr 10.981832764437362 10.951003582533573 8.381538795640433
Cr 10.012150165829302 12.646892045723812 6.649099802941321
Cr 7.3198292518087715 9.769254645016742 9.4660339603971
Cr 11.001257821736184 9.344773783152073 9.862182604138317
Cr 10.910967048700206 6.950685013297824 9.117512910740038
Cr 8.745219571840352 7.663518236498585 9.983349399859774
Cr 9.11926326745614 9.167337091198034 8.50414661722055
Cr 10.106074128945174 9.878132719020664 6.354423187979086
Cr 11.739786573429503 8.741455803118116 7.370059098572355
Cr 9.561248835430114 7.149519845416233 7.166294037409412
