25
Energy = -189.55374392 eV
Cr 12.532623316615878 8.89143483641553 9.089036644389198
Cr 8.44078727354527 10.77496658750781 8.702633185319296
Cr 10.202094544773294 12.616326640819462 8.543021612177139
Cr 10.475418896094602 9.797387347404053 8.010064220265901
Cr 7.538171005631258 13.135327424823416 9.154994703408857
Cr 12.09469120946491 11.137514593401924 8.063931604337732
Cr 8.73168266301553 8.1224437807031 8.35396196764219
Cr 8.893160430110864 14.684443702183657 9.022708232584662
Cr 11.159560400492149 14.407420901617765 10.471720605381087
Cr 12.59498273399572 12.981539317291478 9.497619762429641
Cr 13.015709212592869 7.3779965679660595 10.213234771513562
Cr 10.3358017473322 8.14499721586064 10.111788350337049
Cr 10.637394189865965 10.902261869171792 10.326207913704723
Cr 13.118999525780895 10.787137313616043 10.570184362219527
Cr 11.319939951576957 6.549319643392922 11.816542904037021
Cr 9.301713313930863 13.050494100167452 11.17383861609399
Cr 7.6595182708673395 8.822374932666541 10.252279656069168
Cr 8.081924110954557 11.285721765278 11.02732995324225
Cr 11.904181586505794 9.004731273604062 11.74098204290493
Cr 11.9003461864087 12.296809126469311 11.993927363178594
Cr 9.899529223099846 7.354529773533745 12.574217350793116
Cr 9.34940200639193 9.465900930972612 11.736004764340326
Cr 10.093156342063573 11.421861146780008 12.952030578723
Cr 12.736359759115242 10.575549072850025 13.46696603839628
Cr 10.903051359373157 9.331709395102274 14.054972056111348
