27
Energy = -207.69361336 eV
Cr 12.23097276475612 11.798490053174092 11.728018985684143
Cr 12.391718622966794 9.529620296043651 10.317110184541331
Cr 8.579819633961128 12.497447891797147 10.262920123272872
Cr 11.65197732247662 11.237503919973486 6.959763193091368
Cr 9.14074521308031 13.722163743328734 8.538401805361506
Cr 14.195877111192978 11.165567460187377 13.808940355305229
Cr 10.352001514166671 10.745867439965572 13.698020042318065
Cr 14.305394224487987 13.35076358842574 12.548493994095713
Cr 13.04083134957953 13.620054935596587 10.279915676115994
Cr 12.932981820321105 12.95592464966729 17.00653896335668
Cr 11.129093816539362 11.179859679701893 16.303667094134063
Cr 12.341037090571671 12.34739819811893 14.425317679232974
Cr 10.753426115228402 11.663665092680867 9.607891598692364
Cr 13.505466994951162 14.40012435929157 15.043847571234815
Cr 11.054606607292497 9.398925530937253 8.482947111318518
Cr 12.256365160619927 14.296848414170272 12.733532687074176
Cr 15.024348678301786 12.869450127236489 15.072874019969293
Cr 9.322939479047928 11.474216221157642 7.686145928546291
Cr 10.093146458025913 10.06141076509879 11.145038655685614
Cr 13.101519436683406 11.246873313794055 8.885334933225318
Cr 10.136467426959863 12.652098596614852 12.450566968189165
Cr 10.835567499551345 14.184965036513551 10.648668632062318
Cr 14.370049607736359 11.133341479992506 11.23227893584211
Cr 11.357897244801862 13.466250408398261 8.013826863178679
Cr 12.164365502978649 9.731600961567919 12.9269119756274
Cr 14.005735205232906 11.08037801349838 16.492237865764853
Cr 12.369689941273085 9.569658119123009 15.327743655242102
