20
Energy = -151.27291765 eV
Cr 7.264025862779683 12.536807763953563 11.445341613961086
Cr 12.116252815236543 10.249739948185596 8.279253551359595
Cr 11.45975376800537 12.176561370897351 9.647821084314266
Cr 8.861472774719248 13.9264051539212 9.790352863626056
Cr 14.406595207051637 7.817930118255128 11.416847332576497
Cr 11.989869244973814 7.540639067087313 11.118333150003181
Cr 9.491514944711728 12.966983285563847 12.519655391595673
Cr 10.839132226398771 9.82127447955406 10.833409686449446
Cr 7.489510669750437 11.701553284614347 8.97522946037777
Cr 9.09077132351203 10.503455739297937 12.864706372706896
Cr 13.112368831765574 10.044520724515788 10.4770745060584
Cr 9.64623720380432 9.970756104110759 8.747200211128911
Cr 7.879410877045005 9.79138222680455 10.976162644135858
Cr 9.186254546193629 7.852832932869569 9.97444204926216
Cr 9.461468505061577 11.652577889312619 10.503323549814418
Cr 11.5394411216459 7.968411932493016 8.932164720409828
Cr 9.705355993809869 12.3578944034466 7.9700192588131955
Cr 7.2312854495987136 9.377122835369152 8.629358718674851
Cr 13.977069346867342 8.10455444708714 9.21992977803883
Cr 9.788044641689469 8.174431647280171 12.215209411313865
