20
Energy = -150.49527976 eV
Cr 7.55668791948447 9.784303840592214 7.096322919149077
Cr 10.031398766701583 9.85690037396336 7.7856833074910785
Cr 8.269612364383885 7.933974337304214 8.012901796988354
Cr 10.53183112370661 12.349337005062607 7.577479401303046
Cr 11.244952449164833 10.892678624626553 9.408623224746554
Cr 12.253119832576825 8.786212388513746 8.099819077989453
Cr 10.623563558622939 7.395103339730134 9.122990090742983
Cr 10.263539331399421 13.213054225563589 9.200144143499598
Cr 8.536671123450375 11.511651823520154 8.804984303156195
Cr 7.0889354826719995 9.8538736930661 9.499849602337617
Cr 9.358337700529923 9.426765550865763 10.026771260254288
Cr 13.237674613047606 10.04519008352144 10.052832112659509
Cr 11.695161879728248 8.445018437290042 10.796765391139113
Cr 9.674445357523151 11.564276061484382 10.995143130290767
Cr 8.777370624437166 7.35922054919758 11.111891535732987
Cr 10.744869265456748 6.444455206547846 11.806916433209407
Cr 7.113744208818972 11.822049655062582 10.982827756494927
Cr 11.823059221021047 10.933611410505065 12.005717364318617
Cr 7.786608937440599 10.089300413918462 12.104954325958964
Cr 10.281329256582934 9.18593599641337 12.400295839286947
