24
Energy = -180.68021695 eV
Cr 12.010283613863937 8.662491935013389 13.404798135798352
Cr 13.166107072121784 10.154219099939192 12.373252481109622
Cr 13.010094604341568 7.726838323849444 11.143979882714193
Cr 9.308962513693494 12.964209278950214 7.1871843689863555
Cr 9.173553518106276 11.8576829396638 12.81513964299478
Cr 9.189956014888496 10.761921356065928 6.533201367810967
Cr 8.5315599099328 8.488914367847705 11.359052412816483
Cr 12.124657131975082 10.006651288434389 10.165159203180867
Cr 10.819564691748269 9.275837956570744 7.129134875976733
Cr 8.834102911312579 8.29444242194351 7.836937179043605
Cr 11.570012511177625 11.609847834766276 13.062715934826084
Cr 8.416641786977031 11.30029129916705 9.10748813593736
Cr 11.026201625228621 11.009013750781723 8.419658128921526
Cr 6.920078790907515 10.1325227254762 7.123350085055444
Cr 11.740551177293277 8.135134109863749 8.700602586083157
Cr 9.968641508833842 13.56906905126017 9.347271811203512
Cr 9.682093915591452 9.42530320304653 9.515003690724908
Cr 10.448331495230367 9.69087015177853 11.94972917473808
Cr 10.939274656430069 7.522642314988024 11.103040790903956
Cr 10.351467147057996 11.763145170641629 10.740793364806848
Cr 7.1442218487835 9.173345006951893 9.282969745871208
Cr 12.401432018218532 12.164780739918037 10.788216728874286
Cr 9.268266882372597 10.096349171543515 13.685460559404882
Cr 8.097796660052724 10.457975002348487 11.31341252040251
