27
Energy = -208.3759884 eV
Cr 14.816653138577779 14.484782171742305 11.872327734047387
Cr 14.397441191090403 10.957705044890423 9.520419656443172
Cr 13.854974640098671 12.092858372521938 11.978716328695965
Cr 12.901016367395242 14.126129130879644 13.656916295044828
Cr 13.694290889645954 13.781873571630472 9.695746524506164
Cr 12.600563145791709 11.43056113357532 7.777358623896359
Cr 14.707937549385377 9.98626772466024 11.749796888498715
Cr 13.12713050421661 8.943331634981192 9.71358260910857
Cr 12.156357718958867 14.257670785654023 11.374374313050339
Cr 11.122636971059924 9.71568696761202 8.966207725340741
Cr 11.110507508163575 13.279268188655662 9.018993067380674
Cr 13.035831017422192 11.392935352704756 13.953689810023237
Cr 12.136248049908893 11.609543629165053 10.371976549270157
Cr 9.85839881077267 12.927495656539723 10.949734621755777
Cr 9.75597462867572 11.501809984964686 8.822575587595981
Cr 11.169182994634788 12.291717619737764 12.622734699396196
Cr 12.216497572684583 9.790543005732124 11.961400942152652
Cr 10.445441922881486 10.364406306401495 13.80862589260306
Cr 9.637068021898047 10.367953139059274 11.25995039052261
Cr 10.653899022727044 8.099350776008105 10.679934240414694
Cr 7.803225741293726 12.057546384632749 10.266679928814359
Cr 8.373316095992038 11.960214824026613 12.807628649497147
Cr 8.420909584780729 9.436658127395846 9.415187932231186
Cr 10.113941288137815 8.215365069222253 12.948662005416239
Cr 8.077694588653115 10.020284866705369 13.521253831235045
Cr 8.153137648494953 8.405189349786951 11.90625639517255
Cr 6.994004748977141 10.479206990348057 11.141585380803805
