28
Energy = -213.75525984 eV
Cr 12.770017791514752 15.298105354631613 7.233769152335336
Cr 14.639337246592317 11.952055678790872 10.40843132231644
Cr 14.612289455033723 9.32435268761615 11.072199935835823
Cr 12.874663590256581 8.578275859930182 13.003441773417174
Cr 12.871828082541985 10.335762129430451 14.887728072020504
Cr 15.846776164897955 11.235000105214523 12.73675229739692
Cr 13.255074485475632 11.08588994725 12.384058600650736
Cr 8.99320912025089 12.003913299752837 12.562872852918211
Cr 9.238496375451252 12.111621507020116 14.677806130045884
Cr 12.784276440086181 14.116026851390856 14.670093717887612
Cr 11.13284821225843 11.376665142653296 11.045733912717063
Cr 10.96141950105453 10.36764270947677 13.534633129121953
Cr 11.128481985145658 13.984331076215906 6.732930398089994
Cr 13.065694151305031 13.058846979379243 8.409760928447163
Cr 13.902167871237102 13.225060077546859 12.720374623764195
Cr 13.005666636983186 10.904595569408231 9.68262148356158
Cr 15.163075302642222 9.603149442206208 13.65733335020328
Cr 11.862068497426693 8.998135283732529 11.437072891510361
Cr 12.650894412829892 13.177520828375423 10.94548513566013
Cr 10.267119072975076 14.5746882596803 14.802609793869896
Cr 11.619995275827755 14.828366353956447 12.288707075591322
Cr 11.369793957818304 14.752127781924633 9.54554177757997
Cr 11.544179212578427 12.406012229965082 15.447732557713808
Cr 11.352284112488915 12.705409804248557 13.05012281874185
Cr 14.163475438865497 11.885891135757916 14.774530941683771
Cr 10.092809759069889 13.625657358442263 10.866621565652936
Cr 9.069727488966462 14.447396969758627 13.147477537159157
Cr 11.177564562165967 12.475117748499349 8.76388009482527
