25
Energy = -189.79019875 eV
Cr 9.107988038367488 13.598856663175527 8.875514955890527
Cr 10.736733480070919 11.536851803780106 6.835271755417566
Cr 10.902249555450698 13.385840431542464 10.955342151362087
Cr 12.335370270287909 13.325769118431536 8.657141396429553
Cr 8.445709751008453 12.243364183821722 10.756950370730804
Cr 8.557301154812286 10.932901042333814 8.375867662668055
Cr 6.880624884026751 10.320947361944068 10.444394962071119
Cr 8.608309494158513 8.144225873855355 8.576273780981582
Cr 8.50954667359469 7.658326381363683 11.380982940645183
Cr 8.642168692526383 10.197928088126073 12.582869194862846
Cr 9.150575427749084 9.714337580169317 10.269334593295882
Cr 10.605049613464463 9.346653497592325 7.9909127953002175
Cr 10.647914756742916 11.277110107311607 11.92588524529688
Cr 9.236543247608262 12.844962880612044 13.032434836549493
Cr 10.62288703088563 11.740376245174657 9.22491105990702
Cr 12.945462283761461 11.934834085697007 10.576554216090297
Cr 12.724752134428826 10.61185248434014 8.595613181021102
Cr 12.524521991065576 12.344436189831802 12.960838915714714
Cr 11.701554618070228 9.668231757755368 10.340339097580571
Cr 12.502454982943718 7.930488061095019 8.767468528454543
Cr 12.917433541915653 9.965456648721933 12.551070401967031
Cr 12.394451223694503 7.66721893092058 11.566159806675417
Cr 11.11606118635958 10.169817600803713 14.04019283206347
Cr 10.423386307340888 8.667806861095062 12.366193902731482
Cr 10.51890521111186 7.3807044495747425 9.932658509646773
