28
Energy = -212.9638899 eV
Cr 9.997051111508963 14.235931011627446 9.774098396111649
Cr 12.237119729591386 13.391038692641727 10.176391334513013
Cr 11.373589918799706 13.539060805896685 7.604354025536711
Cr 10.995726387031977 12.651764284067234 11.944886041358105
Cr 9.619109169427798 13.475545112290508 7.126139251051369
Cr 8.358364810860039 12.799279304365921 11.43341851087682
Cr 7.892678127605947 13.52810996602898 8.971092428932426
Cr 10.055788289192366 11.955214329195684 9.360483711388381
Cr 12.586881888225726 11.588820097370895 8.876519253881687
Cr 12.014854903176632 10.849207693125981 11.007228598584215
Cr 10.446303126669566 10.814870420609768 7.298786887409972
Cr 9.692797008766112 10.619939145481098 11.534561622534103
Cr 7.951645242118755 11.461229132172114 8.143699351393645
Cr 7.522357962527005 11.352646687606738 10.632883074696016
Cr 11.474839191608101 9.39622418467838 8.773787570111601
Cr 8.97204279815659 9.587484676674183 9.358070925665098
Cr 11.621426593641907 10.05056937423721 13.061431969961525
Cr 7.9560106556127925 8.855622853550551 11.960590046120828
Cr 12.81006360839289 8.777469756338697 10.946160968849352
Cr 9.808040410229454 8.128392192758037 7.719340500107722
Cr 10.578136243072418 8.481156454571755 11.003961615983181
Cr 9.262512089304424 8.961567642696666 13.2834926996954
Cr 11.890168889242856 7.08867410914845 9.1177876481704
Cr 11.373665692179555 7.303695941375938 13.107566449537565
Cr 8.042423028057089 7.750056990265866 9.758251747373361
Cr 11.83244671710249 6.263973722080563 11.673424165373838
Cr 9.920885428799023 6.23398166769471 9.713826226802903
Cr 9.112945770902032 6.5502590960226215 11.978781437367598
