22
Energy = -168.23361351 eV
Cr 12.348795420408814 8.710266017738324 14.93475994442296
Cr 13.383727759100406 8.048802789140492 12.853049802727664
Cr 13.230394679302327 10.284085632790308 12.837750165173688
Cr 10.901048070972982 9.364637283787312 13.13351209471569
Cr 11.865863028662462 8.49760675020304 11.084684033938855
Cr 13.8756455864502 9.916414848545424 10.624348349747736
Cr 11.128795654253773 11.948098664633743 13.19748261927202
Cr 12.641954241579297 11.904027204102363 8.811196225455651
Cr 13.127594330883609 12.300086528752349 10.989264246820058
Cr 12.216703845675221 14.327403333560882 9.354299856242578
Cr 11.28145327647173 10.86231515894129 10.839720653046273
Cr 10.464448010444897 10.986894590518165 8.436486822744822
Cr 10.384535466177761 8.649047776226999 9.100387474900545
Cr 8.923249857287514 11.363701754879285 12.612836994511486
Cr 10.952961300157009 13.545226504480192 11.276115269623975
Cr 12.684740170185044 9.407454062688792 8.651137229262478
Cr 8.893040733507629 13.78553501329754 12.679300043841177
Cr 10.197093373476454 13.39409004404997 8.591633151062348
Cr 9.20468606433847 9.497159006733007 11.038534018979266
Cr 9.187954058255299 12.281085440016346 10.389071166910478
Cr 8.02413226919861 10.566042100878658 9.152871612965823
Cr 6.882942443352909 11.099979109331615 11.294973230354666
