27
Energy = -209.40218033 eV
Cr 15.103498094398127 11.520024601492368 11.09122310737484
Cr 14.7396431006196 10.29401794483054 9.013210589084405
Cr 12.762053140503408 11.442757878223587 12.595550421822432
Cr 13.567276076062933 9.479740641595416 11.473410153932816
Cr 13.959750223955247 13.158118041330557 9.627504607595949
Cr 13.99701459371445 13.394967508193067 12.570947687066655
Cr 12.394069246490067 11.49441947099786 7.661140468963855
Cr 12.690522547371083 11.194308577110178 9.9092947177371
Cr 12.315841744126848 13.87340718214961 11.03487971775632
Cr 11.847368286219432 9.059081783608807 9.083016948452798
Cr 11.770233445846126 9.4671797451267 13.757980630625182
Cr 11.319809469721138 13.695949991908709 13.508468068907607
Cr 11.073309868377672 13.201990218381338 8.704234695811108
Cr 12.436930460585174 12.10544026138143 14.76497196948802
Cr 11.025739371486312 9.651030977400692 6.835293725195016
Cr 11.175269215752866 9.473925349219279 11.406929760944761
Cr 8.778942645990352 12.706227064164423 9.633915288018537
Cr 10.451382932946633 10.455729848160578 15.771905008617617
Cr 10.17078341919622 11.297641179083712 13.265691925740144
Cr 9.365253173782618 8.763743233790603 13.429020603443341
Cr 10.075630998049247 10.676347802216885 9.208754316449589
Cr 10.830129858536077 12.107390493238558 11.088035750979646
Cr 9.734050239932863 11.680377068015563 7.110642416356093
Cr 9.86605253214782 12.71977863223921 15.28487103115763
Cr 8.861430135105882 10.212629376112744 11.479675231077461
Cr 8.266489794936213 10.561295998505795 14.424667668276404
Cr 8.911028181042491 13.130945938991426 12.63518506492652
