21
Energy = -115.17044818 eV
Cr 11.861376058864455 11.78000038907063 14.919055876027336
Cr 13.449430947195387 10.73349359440583 13.668014299541115
Cr 11.316234456747885 9.953756890495505 13.483672381512692
Cr 13.146138347181045 9.301484875036689 11.853553935071107
Cr 12.677183050450871 12.828250155386725 12.986005454071467
Cr 10.43831450317057 12.190110089978253 13.234916207505163
Cr 14.212892405780329 11.441493541423084 11.547773656442532
Cr 10.864480453496183 8.890769784374436 11.399012722070138
Cr 9.40232711718159 10.528758623558549 11.953180903593365
Cr 11.791686309346131 11.234520905702027 11.473234995341542
Cr 14.684454476765804 9.575871210739887 10.23792733530644
Cr 12.428980012470648 9.812198283653775 9.643084568739374
Cr 10.078789690601395 10.457586038626548 9.746689552079667
Cr 13.135172348349144 13.29479535215589 10.661892999007065
Cr 7.802070022307496 10.876268934495924 10.34990973278905
Cr 10.815792539649587 13.379038972843286 11.191689330381982
Cr 11.615791171841021 12.164173340090452 9.290830501765363
Cr 8.59445121534078 12.686937932963625 11.801979067407856
Cr 13.90703373996185 11.557674562855789 9.25517101806807
Cr 9.257294030461019 12.612594094440004 9.595397219187548
Cr 7.071748244420329 13.005803893296793 10.181848920079648
