24
Energy = -182.09136713 eV
Cr 13.35408783981619 8.766641788189007 9.197631510598212
Cr 10.18537292359758 11.545520779650435 10.701724333831374
Cr 14.013341156879978 10.79291383506983 10.350175020242625
Cr 14.057719416658857 11.477224336119058 8.322466911005996
Cr 11.445541966151549 14.00698083314338 11.334419485772033
Cr 11.639892056399287 10.671360238927207 8.863923337672711
Cr 14.192684223963845 13.201948968810429 10.693425225565457
Cr 14.454990672674477 11.687002388824578 15.004995893617668
Cr 7.787568115824483 11.833883591697546 10.91096342084559
Cr 14.952466529551227 11.947353517315019 12.616933382066328
Cr 12.37841329410944 11.932461044169568 12.03998703386255
Cr 9.16253029485371 13.898871190190775 11.299789160844506
Cr 13.49498016394844 10.068038420508643 12.862306747929518
Cr 12.974016673958136 13.208556753156785 15.545763804799044
Cr 8.621833041088891 10.141816573501321 12.390478791437362
Cr 11.793644556119617 9.412221396426201 10.957841623700975
Cr 9.79846671956154 13.22864620373189 9.372107729283732
Cr 11.161713340628904 13.974813485022326 13.582851278632294
Cr 13.36292585533488 13.646544830214545 13.3579151790497
Cr 10.84796694866092 9.884171559903692 12.86432799677841
Cr 11.93751374635616 11.531416859091987 14.152058531881284
Cr 9.455207203890863 9.391761508523361 10.525113761129457
Cr 12.036877252953824 12.731416656933023 9.479334696609211
Cr 9.874013009013499 12.224137161034426 12.824231880343246
