22
Energy = -167.46089815 eV
Cr 7.639147556482173 10.402542825953484 9.852701888861485
Cr 12.383218364197388 10.849937810440844 9.727514391244217
Cr 10.93855428602503 11.763227173976842 11.970301983468561
Cr 9.062369536392474 12.814504084061275 12.619862526556178
Cr 9.78232556812313 12.018901230998395 9.705875837342024
Cr 14.621117376166133 14.120232473983434 11.470743266214791
Cr 11.707590565149133 14.317876986836799 12.26203415478516
Cr 8.553141857760423 10.459468332786006 11.954106106230714
Cr 13.435589112626163 12.106570101202731 12.269169837597916
Cr 14.942270655334093 11.926915384372169 10.200050302937482
Cr 14.78834554158708 12.024801404731932 14.561426167083088
Cr 15.93249865417274 13.115914920217776 12.656325290103991
Cr 10.426898445950172 9.587301727615298 10.840288961108055
Cr 13.025485357623753 9.94902063054797 11.931303301338346
Cr 13.641716733228863 14.379294969086194 13.71542100603134
Cr 12.466496910796948 12.909071261366613 10.040632085918244
Cr 7.586888348011035 12.706039942116165 10.56316229999172
Cr 15.16882528346373 10.148243621532378 12.826790115309931
Cr 11.883377053849882 12.507412284217517 14.266660437552087
Cr 10.107956514696399 13.92779057846931 10.522620061802453
Cr 10.527037687760176 10.150576188971552 13.563145448286255
Cr 12.888872357939537 10.447254466056565 14.294730283156277
