24
Energy = -181.88506441 eV
Cr 15.097839445532042 7.7900702337817975 12.16480037010915
Cr 11.217804438939602 15.749571280502307 13.296846770999819
Cr 10.771458446895291 9.645618053798342 10.652679581677637
Cr 9.221497245147464 11.542500038392669 11.576040412034233
Cr 13.84454071030661 12.32588534087582 12.30960797371336
Cr 10.360216706189725 16.22707830954645 10.898326344143129
Cr 12.277524937965994 14.83700649385763 12.027562114983743
Cr 13.439151565225838 9.993044331607024 11.542458145483417
Cr 11.510638642989871 12.088955367568985 11.733317016262806
Cr 12.664893066635495 7.753074295695439 11.02777942549171
Cr 12.904557830232724 8.784709812362301 9.116762766287751
Cr 10.759897773151218 13.860289395030545 10.266954274738922
Cr 10.564363977488703 11.935032186472611 14.056202429113558
Cr 13.652314960121513 8.805873566150227 13.603206385381704
Cr 15.45146955063077 10.520569691696915 13.156412592104017
Cr 12.840871621806125 11.086221959693408 14.019016852620675
Cr 8.64661542020644 15.87169818156991 12.413270462793548
Cr 15.131598764788519 8.937782469075538 10.202640578443166
Cr 9.99871620874079 13.934013671004712 12.632775234464741
Cr 12.425562348619808 11.333776926093615 9.705677958783152
Cr 11.892336712562114 13.460392266316273 13.986432719273735
Cr 8.598374073066946 14.080708685664858 10.51511822382612
Cr 11.116149746708434 9.644256237638391 12.72872077422336
Cr 9.95660286051283 11.824877522498333 9.481721865782305
