20
Energy = -150.72103293 eV
Cr 10.778774170613017 9.580903492515578 6.973810106357474
Cr 8.1347781746273 9.80497650967158 7.00024892187015
Cr 9.228212502420932 7.636379165271196 7.32788919706185
Cr 9.493457945194667 11.858772320899732 7.967860306015233
Cr 10.922123459017751 7.346499247229418 8.770998392930096
Cr 11.956174089380463 9.8408391986511 8.900235695011254
Cr 7.153514287241214 8.925970470148549 8.389619875908608
Cr 7.3919479286011684 11.57196800222622 8.63104715492256
Cr 11.802094553788406 11.88086507889755 7.112370070194775
Cr 11.74420064205211 12.488703545053053 9.298443692416674
Cr 5.951603771752185 7.328232498191612 10.15485715855733
Cr 9.39540908071541 9.6582645854849 9.259466364414058
Cr 8.647296868966162 7.43167174798823 9.945881945423524
Cr 7.33049609778494 9.771987006832063 10.840714778462733
Cr 9.888188447221829 6.19710948563314 11.380057199810114
Cr 9.480122501958876 11.6300656961399 10.470250056799802
Cr 11.152096363777193 8.15107324535952 10.947309218763495
Cr 9.151934205102942 9.025256778563785 11.80180527214019
Cr 11.348747731979273 10.504347383628856 11.036085596718964
Cr 7.03435928250117 7.351646646310047 11.776581100917578
