27
Energy = -151.85291065 eV
Cr 7.503717786110559 6.623083089433852 10.344073099592414
Cr 6.178674362256447 7.708383210623554 8.749469411256191
Cr 6.143809389603619 8.48932080645993 10.919107581432321
Cr 8.43122554316058 8.555281921888716 11.180308095413132
Cr 7.306738592146073 10.571386387489817 11.506657432799916
Cr 7.258996089411122 8.982045397256147 7.011170961044142
Cr 9.93020081230131 6.963560989546068 10.278912177446708
Cr 8.49541508343269 7.720216849708905 8.518655643514046
Cr 8.796492456276649 12.271548576853935 12.0767361691521
Cr 7.327905225897981 9.649227875004913 9.285620055485158
Cr 9.155273379103782 10.035884425021587 12.848139862632705
Cr 10.782468119717466 8.607187833511661 11.751092028737741
Cr 10.0660504235209 9.298370093452888 9.525973510293856
Cr 12.16042670957854 7.774140931690573 10.057533887592538
Cr 10.887532293596923 7.53459397159987 8.152561143335623
Cr 9.476684409630353 8.432070144819024 6.5107179121505006
Cr 9.037323896664057 10.384293650514493 7.688601153218164
Cr 8.77885438178956 11.449433272421329 9.913984184647369
Cr 10.381438987283211 13.100340299093371 10.391670689886721
Cr 12.582129817754623 9.946602911651658 11.975039033721988
Cr 10.626665228133325 10.997866857448793 11.385883887738036
Cr 12.313532628466547 10.024643486682875 9.734809953219298
Cr 11.322814655533389 9.701429232138066 7.4684981883068335
Cr 10.785235428985294 11.679413638659861 8.640771310639359
Cr 12.227461088718142 13.487636661454278 8.888190317904941
Cr 12.996110258903375 11.430613189319715 8.132236024125884
Cr 12.58520207592069 12.119803420150419 10.601965408610079
