26
Energy = -199.10192401 eV
Cr 8.937103200360433 7.676815915355629 13.880132907882063
Cr 11.442088313671707 12.003454351996933 10.082758551997765
Cr 9.587842844997603 10.347075541770927 14.118774967153007
Cr 12.486235428347076 13.361011256466965 7.232058686091515
Cr 10.311784291193353 12.316989363505742 7.685488416760745
Cr 13.306268741160602 10.376678289133404 10.143277201948278
Cr 9.139916444605449 9.47422573192376 11.817111383639624
Cr 10.942885386876327 9.319015133906705 9.909568077886231
Cr 11.392087847542003 10.325492770180269 12.043327669194428
Cr 13.673860289796806 10.629511046602053 12.843676744002442
Cr 12.79436991766843 8.409412147657946 11.614815606257169
Cr 10.398251537524716 7.840785566434406 11.743383790321603
Cr 9.51808181649679 10.599006706842015 9.590318908599
Cr 11.32112228137616 8.848841306583306 13.942568369988551
Cr 11.747894156656615 10.851597904403503 7.94101193124508
Cr 8.94075894707008 13.142376842275171 9.914956427791635
Cr 10.60524172297497 12.573676519036555 13.926139022352068
Cr 10.865474339049461 14.354911437122489 9.161179297483406
Cr 13.835852755786062 12.19784343291595 8.163470035699817
Cr 14.111444394103946 12.206203330030341 10.831042448421199
Cr 7.280134247682894 9.159620361684592 13.568918608398189
Cr 10.64543577433484 14.3156542994632 11.675147803110308
Cr 12.283331536925326 11.045789053754216 14.554177509412447
Cr 9.57244713720306 12.08392236534807 11.823023857789913
Cr 12.706622824203338 14.134738397385481 9.792175238303997
Cr 12.375343023832306 12.7117058248403 12.27945873206985
