26
Energy = -199.92787244 eV
Cr 14.463496115245013 8.107010222772015 11.435393398150122
Cr 10.871631373343137 13.100559857013893 12.333016994480854
Cr 12.662703586361514 9.315763895639597 12.269311826350481
Cr 13.101537671141065 9.069960665108212 9.676217494414372
Cr 13.25701036090314 14.117397195895737 8.450413306259007
Cr 13.089172722036512 13.99307192440475 10.914126327983832
Cr 14.618647852188134 10.275390416637938 13.358225005032029
Cr 8.704483904983293 12.137736640231127 16.514173014578056
Cr 12.840704627251988 11.585855443584993 11.688614789460273
Cr 11.536954873252167 12.819879481807886 7.32021908975308
Cr 12.860951832966105 13.770553659286076 13.541379157960037
Cr 14.961247000565454 10.466724720534234 11.113450856604798
Cr 10.849255889017604 10.341873198605306 10.535384677679323
Cr 11.171078836642552 12.808813692753214 9.731877060054506
Cr 14.862372232166098 12.655204344280154 12.820139681119661
Cr 9.043415517414502 11.752063813866597 11.260619854083695
Cr 11.449835727581418 10.485087920083918 8.165668181444207
Cr 15.04316650293082 12.865416856304492 10.383288404995396
Cr 10.637579586822616 10.867406915169514 15.617670326489575
Cr 13.272730894164905 11.796891508088798 9.196018005416676
Cr 12.760383175298319 11.377417243734275 14.206081597927417
Cr 10.36905293277731 10.529360202728105 13.23316809217606
Cr 9.09226877901972 12.488952708049794 14.051441126279693
Cr 10.971669532031012 13.230184597929284 15.248432899994196
Cr 12.25302133984757 9.060174688142698 14.464501985806205
Cr 9.285522920220536 11.703588160830467 8.656641515917029
