29
Energy = -225.18435311 eV
Cr 8.58145975167904 13.169006267150827 15.978968716754384
Cr 8.457660934725043 12.141719001353088 11.224064252641616
Cr 15.151261707285862 12.989450642862254 10.662151812250654
Cr 11.693989753176846 8.621451269273834 13.285374684821642
Cr 12.36190397992558 10.071511753018607 8.804514034272554
Cr 13.81958016392027 8.595316202619431 9.984542230169904
Cr 14.487866072248355 11.126309763893458 8.646982687187215
Cr 9.679945194066859 13.969682831027919 9.99442076210332
Cr 14.24166289227508 10.289004056974182 13.579343724713729
Cr 14.878382489144952 10.530350499865957 10.989100354992669
Cr 10.251188922966389 10.61600582715968 10.128316464815981
Cr 11.502416093578608 8.290072043265685 10.81596879119829
Cr 7.449430506853961 12.8559342724479 13.877435369417489
Cr 11.026196362602061 12.62461682359373 11.700570421199354
Cr 10.767053821531833 12.318572169988888 15.95129747931859
Cr 11.999307979107648 14.500698230459243 9.696128149336412
Cr 9.938898121778836 10.106021145584815 12.349808036553997
Cr 12.486572735005586 10.474845687004175 11.520862811549186
Cr 8.72994600413276 14.287683940185167 12.422521498164999
Cr 9.848289335362173 14.537697988124608 14.506073383221509
Cr 9.65577400768279 12.023325176727802 13.737801361058517
Cr 10.826142659440185 12.316964507786263 8.756932322005618
Cr 11.93747043737181 13.524510875834997 13.901096616076543
Cr 13.034116399366397 14.451358342961617 11.539043594566163
Cr 13.8933906132573 8.284845644240312 12.356549570871818
Cr 10.844531699096205 15.375267968885323 12.052858873091552
Cr 12.921482958275933 12.247933707422833 10.091982686034045
Cr 13.766502510882207 12.484333610527537 12.564315723210338
Cr 11.940588751695007 10.985074545522666 13.875043689547017
