29
Energy = -223.30108351 eV
Cr 10.03516093878663 5.869717957549042 9.165341233994777
Cr 9.227983040501535 6.441741406961769 11.411466346549764
Cr 11.776811743213345 6.639130621246794 11.212773010211315
Cr 7.751021473650411 7.180503414597701 9.363267283165413
Cr 12.692278315037244 7.10584625054685 9.331038580113754
Cr 8.866657884773856 7.492697729511364 7.20276226209857
Cr 10.375904894338245 8.277249631617137 12.56144323096808
Cr 8.32095528643275 8.68950482002491 11.196354767453043
Cr 10.107462336799912 8.034047399706767 9.45716517108165
Cr 11.434313752612146 7.4761429988801344 7.305758747546315
Cr 6.290017036986848 8.49760660621814 7.434569125875685
Cr 12.240069731550818 9.270662892512695 11.051773492961408
Cr 6.241684214865345 8.537698708736311 9.96140144148556
Cr 12.081391276680614 9.655141999466668 8.952089123286875
Cr 10.114914264332745 10.111247461715182 10.737438129321003
Cr 10.44686338507196 9.536596974542839 7.214459719050311
Cr 8.222128760250714 8.965139188839945 5.860331551809128
Cr 8.281904447180004 9.711251765526475 8.58836122818584
Cr 11.55509833885671 11.631282228165283 7.305072141594672
Cr 5.682593920044406 10.673343581415821 9.04750209814199
Cr 7.6883313472882815 10.942034224501526 10.528738335028448
Cr 9.893430682620728 11.55273043405141 8.897438422996789
Cr 11.822787906573327 11.93733084414468 10.30497477103841
Cr 8.68106817988561 10.34586002078973 12.80169510810033
Cr 10.574314120989422 11.232991713862429 12.511424993622688
Cr 6.566508864266679 10.703472868944882 7.069877730007742
Cr 8.930139326560083 11.32896232505222 6.509500439312785
Cr 9.245778698187564 12.425025384180646 11.066096150239597
Cr 7.635554510822258 12.40402651320899 8.751787398457067
