24
Energy = -182.49319404 eV
Cr 10.633767394543833 7.526190399277368 7.8607042099341
Cr 10.312343131324667 7.103728907092335 10.362763147597104
Cr 7.712356609087764 7.138232206444482 11.063885905551244
Cr 11.435905595342282 9.346209262079059 9.172127020526815
Cr 12.098382915493803 8.562735979983914 11.209948604258317
Cr 7.956637312722754 7.199203706368638 8.721912347879947
Cr 9.611718804702932 8.533075598916076 12.249228363122976
Cr 9.03824536961816 9.463278873275017 7.527373187753035
Cr 11.309460771532967 10.528401242910038 7.137464158577305
Cr 13.827989176649245 9.839908609359476 8.751383543178584
Cr 13.155638823892994 8.06922327076818 7.679189996000619
Cr 8.950621655614402 9.27357495715516 10.04431622576865
Cr 11.7313630202705 13.188877485523259 8.348892311875789
Cr 7.830034514271781 11.339470939650925 8.240684238207413
Cr 12.096744526158915 11.329683872565036 10.219941135822145
Cr 7.5021510718803865 8.572353020708908 13.478975689384558
Cr 10.48549951856904 10.498093635920515 11.511851815895264
Cr 6.896678294344008 9.244754778305841 11.687236501750538
Cr 6.580327605511723 8.842691190108294 8.993656162872998
Cr 9.839794067054536 13.243875728674565 7.504057747696944
Cr 8.600557660352788 10.870132528442078 12.751107009844455
Cr 10.034285689003537 11.38628891063729 9.170320611343433
Cr 7.863771978331807 11.408196817708864 10.610725376729087
Cr 9.777360400238523 12.773453984637582 10.983890594941439
