21
Energy = -158.99673422 eV
Cr 12.806507173800355 12.800022208435148 14.64138131252627
Cr 14.228539558823261 11.327104308480433 12.57139944598003
Cr 12.433386290099913 12.532022553167748 12.161166921897076
Cr 9.881486013962595 13.39170726680198 12.085725611416683
Cr 10.23458362339628 11.745110558329417 13.896522326905544
Cr 8.253641791576257 11.302042943324848 11.693132560064294
Cr 11.429712418922815 12.788774604985699 9.717739085193909
Cr 12.399483988212822 10.598772305192801 14.010236012934719
Cr 13.47486978479148 11.562745241271957 9.831817738778064
Cr 9.084939937210105 12.612753200664303 9.60130383967714
Cr 10.668653265835877 10.926790246179209 11.53587257230162
Cr 12.759733557954727 9.878924084696646 11.22825836006908
Cr 10.830097201192128 8.763704032334626 12.779849604752787
Cr 8.763364967315942 9.49896702947851 12.984326970307848
Cr 8.162606202155608 10.620910222854366 8.942436435910723
Cr 9.895770070826824 11.69938885359261 7.144152134341125
Cr 12.018332738799813 11.963794792051388 7.547120426071272
Cr 9.187082856100734 8.843789646033052 10.656899431076765
Cr 12.594419692131641 9.616209424442252 8.438093570824055
Cr 11.361242909133162 8.07289422774546 10.399436901742657
Cr 10.564105698022164 10.375438259410634 9.131932013104933
