29
Energy = -225.68588906 eV
Cr 6.8522788907332925 11.488347459074614 10.666918820168021
Cr 14.118108310126358 12.644389012992654 15.514203878745391
Cr 12.5799245356775 8.106323776151168 10.118897484682467
Cr 10.347735751474339 13.374682140701651 10.403943639355413
Cr 10.502370381841123 8.65524912328546 11.351974475087069
Cr 14.773793366362726 14.060151960883493 10.826599671170653
Cr 10.04437232869149 14.168024276609342 12.72808950446968
Cr 12.197289315361324 10.995488987462133 7.724661321796214
Cr 12.038419448991114 13.595547525345758 14.491064538678064
Cr 9.435233599155012 11.524652883302826 11.53207630756239
Cr 13.619934427465047 10.885898094252035 13.915452475973519
Cr 11.540803141219616 10.682539978763874 10.355130244655937
Cr 10.891900140917793 8.99336674176383 8.586990395037004
Cr 14.067029727746522 11.733218891635376 11.169831980569162
Cr 12.038328560352648 12.243024410603127 12.377492890813981
Cr 8.830597813009478 9.935321855375712 9.812090995037844
Cr 13.743725282369263 10.189646159179903 9.31499737607619
Cr 13.135974782689757 9.556903937368357 11.973279317645082
Cr 11.667447460005658 11.228028219376625 15.04418411727056
Cr 7.990761404696634 14.213878394009406 10.828471986592852
Cr 9.792755151239533 12.25530604973091 13.928389599150785
Cr 7.577643326332027 12.82791177747921 12.571445679443253
Cr 14.434495876753978 13.413801666244783 13.240559811457013
Cr 12.427480274563283 8.30723530925504 13.830938071445773
Cr 8.006918259557484 12.632397859583909 9.052849716383571
Cr 10.08939260969396 11.634696225994187 8.711102340618732
Cr 12.576039807018258 12.771660282082957 9.610172615305594
Cr 12.59190842157368 14.44464126953184 11.515339695101714
Cr 10.914337050022944 10.165461558934457 12.9837809900599
