29
Energy = -225.31300389 eV
Cr 10.204371909577118 10.81800873253452 6.140338337106297
Cr 12.262576840797346 11.068548635257214 8.054735528823603
Cr 10.096107494084196 11.636728683507958 8.657902618185156
Cr 8.118890250292164 12.265695663327895 7.014171066215328
Cr 12.275811913409315 11.426656651624432 10.451306741638492
Cr 7.643398653715888 10.38382482395034 5.826067692545144
Cr 9.579822068731882 8.351227845007072 5.979557567729039
Cr 11.046146688878979 9.079863221531562 7.811747641493664
Cr 12.050832741967788 9.910361366096973 12.266125832891051
Cr 8.617153652075103 9.773366191904449 8.070735410238836
Cr 13.091131798453263 8.977440928504999 9.703531401301717
Cr 10.769882004889167 9.5053506820521 9.969656343512835
Cr 10.06257720120467 11.67017768702264 11.239021285488189
Cr 7.7852362658739 12.173771481149986 9.722410907593153
Cr 7.473025380917933 10.93585088909926 12.413407098090076
Cr 11.961431029426112 7.169011371632743 9.077187733683116
Cr 9.398102269546458 7.706630209486836 9.253254025764312
Cr 6.327101041692627 10.489917666398275 8.067019062597463
Cr 10.078811954741704 6.417716797574389 7.530666156074949
Cr 8.366843787922644 9.950763087823777 10.292978336510679
Cr 7.611254231071639 7.8344941745225505 7.073518635917137
Cr 5.953077008873084 10.77666828967318 10.435392412672682
Cr 9.630641292506956 9.299592349525035 12.364660128022518
Cr 11.284009003412095 7.456210609506119 11.2911866259407
Cr 6.703676527787107 8.672590386251875 12.081626211559366
Cr 10.126304509849266 5.5081657571083715 10.274580259072177
Cr 7.502291071957412 6.118705802406998 8.991041335283454
Cr 6.623909891028252 8.341072333345808 9.656420191596293
Cr 8.456740604794055 7.2329297757148385 11.37190670565656
