20
Energy = -152.43022306 eV
Cr 8.986239564959615 9.897563077477852 11.231742644074664
Cr 11.603432489084488 12.500909173210276 9.574593628003381
Cr 9.019346911411512 7.5434453147476725 7.951006724119707
Cr 10.755899110669931 9.08876224622227 12.549368209748335
Cr 7.586029061725058 9.856732419966965 7.409533492165348
Cr 11.502958326336895 8.86745169608546 8.229992558045225
Cr 11.582884799706353 10.277564751388807 10.462951764383915
Cr 7.804297373588836 11.876896999815958 12.413256523462698
Cr 10.24484799750723 7.849565953930822 9.974479894389802
Cr 12.653928497050329 8.123415979183642 10.699891969035418
Cr 9.720248021908272 9.351207627917434 6.382158309937806
Cr 10.271467772559452 11.756737080425077 12.153849099544008
Cr 11.12195812472911 6.75930534648587 12.17317777678152
Cr 7.327615111176452 11.081972120554926 9.961248205244532
Cr 11.72386174953365 11.108922445029926 7.6042976965193345
Cr 9.55000329005848 10.055307969898294 8.827889975992655
Cr 9.580191623730054 12.00175258365008 7.661850005605657
Cr 7.48665130557088 8.537586385331304 9.496235341755737
Cr 9.317218266234399 12.424955785996325 10.069433251489107
Cr 8.609809221527033 7.4888336617497435 11.621931548769211
