22
Energy = -167.20030918 eV
Cr 10.619512749003182 12.68680777973285 12.1330276337236
Cr 11.450122731378903 10.074204100729654 8.015430058131756
Cr 10.988906750519572 7.629408384624011 9.432898872458502
Cr 11.956873256048686 9.742594351618905 10.208449661521959
Cr 7.121146017233184 8.690820928040317 9.061663022880449
Cr 9.302259801589303 8.3494157363662 7.237513667963808
Cr 11.967146046129972 12.426190747276477 9.79017384870147
Cr 8.866546199775396 11.180539926467757 7.697932022842703
Cr 7.227921663293521 9.643008560259924 6.755792487297524
Cr 7.116960476444298 11.123943369827089 9.16378839635282
Cr 8.408439273512824 12.990179501376085 10.831717082433146
Cr 6.543908751953392 8.398070253841802 11.415297644172654
Cr 11.35388754962148 7.705209793488491 11.889723039257305
Cr 8.655003500451384 6.748823919193656 9.082295740085065
Cr 13.799953887741424 11.05194864721284 10.246130760453438
Cr 11.788571448115071 7.823048121199703 7.164566891813259
Cr 10.492166464856034 9.894476362501427 12.051038599573339
Cr 9.368956669498806 9.401795047341613 9.422978651541685
Cr 12.519216614457578 11.20526394039106 12.357465509531833
Cr 8.908729345672953 7.782985617448926 11.24941013514274
Cr 7.905611156171903 10.491121773788652 11.234597766049145
Cr 10.110865153093847 11.475970886893249 10.012434730423657
