24
Energy = -183.73282744 eV
Cr 8.678530803739225 6.761212646805579 13.347321409799585
Cr 13.31871947132259 9.576720008816869 11.72092139525488
Cr 10.71579159698388 11.863142209707341 11.50779672501157
Cr 9.739676356215478 7.266890713596559 11.224150098440266
Cr 11.956918251616093 13.867329095930632 11.35862383474081
Cr 10.528335682871418 10.48008408185237 9.17385904464025
Cr 11.744159333008412 8.503438563891144 9.908650441769998
Cr 11.996196772557543 10.032506206027358 13.696474320220949
Cr 9.358409240650856 13.531255854051711 12.46843780381776
Cr 10.6168363758528 9.528423712902589 11.890712617761736
Cr 12.610300407301764 11.190656492647227 10.18880319885257
Cr 9.158635232819424 12.372645574755703 9.759464178880025
Cr 12.873949152893635 10.474687680227131 7.896679277241618
Cr 7.942145220725243 11.640352433137648 11.823064570697683
Cr 8.052509236092897 9.034352399578173 12.69537397799649
Cr 8.77506352789683 9.581058319394295 10.493693255739435
Cr 9.3742437127422 10.828154166827947 13.607923039615404
Cr 10.336180481901359 8.26961845664175 14.141059952915247
Cr 14.104701842606385 13.101748576452925 10.494520256251267
Cr 11.349227703587204 12.581815704121311 13.938285877680112
Cr 10.915346795793376 11.851732942516827 7.1499514940372455
Cr 13.444982006379997 11.964413889308217 12.62176030249759
Cr 13.555111573269496 12.735946780423197 8.069183469906994
Cr 11.497824861391212 13.130356857345701 9.115482744862526
