23
Energy = -175.7417013 eV
Cr 11.136245792779295 11.354265688620844 14.655215228685824
Cr 14.212510949329033 11.909841904172117 11.917343925414698
Cr 8.68492091086953 10.853236121238806 13.535598326488225
Cr 10.44868737144262 12.438385893520982 9.580351385542118
Cr 9.621046557252349 10.389270647389715 11.112714246452674
Cr 12.297331327445372 14.514732391456727 9.055113266977946
Cr 9.417179240125725 8.603499252538956 9.427192879427848
Cr 12.877656542555668 9.990281399772707 13.003446122867286
Cr 7.861712059334503 9.097252575676915 12.013611023502396
Cr 9.966547356993505 13.070006439393772 13.684170561590838
Cr 9.705183406669047 7.688646096172164 11.710731133286794
Cr 14.909104072320252 13.022879460594686 9.764564193137675
Cr 12.431855115943188 13.311822841745476 12.924029078042283
Cr 10.408789318874748 9.526882656253903 13.306722046638555
Cr 10.893444500177935 14.129360812397046 11.153602818358053
Cr 13.793530226601332 10.186971781883486 10.42908550093331
Cr 13.659246971144453 14.58429171461606 11.026374568998909
Cr 12.718551163328073 12.23596413142076 9.555890120586657
Cr 11.721669793417801 8.923122184272444 10.923792123130687
Cr 11.432967396618363 11.503990206231508 11.69030411795698
Cr 8.991529725629835 12.72130045392394 11.747318259957408
Cr 11.352261088375194 9.951784894286206 9.041475770870187
Cr 13.480243370142858 11.781091059996783 14.597799180000282
