22
Energy = -166.42296527 eV
Cr 8.365802066252163 8.540377715896495 10.37939596462201
Cr 10.548815310100446 8.225558769837024 11.725563900829808
Cr 10.222414078527322 6.327777565656019 10.441538827730948
Cr 10.045444249502157 7.9795576311183 8.611818328972168
Cr 8.996141246110225 11.716289928378796 6.625814535496199
Cr 10.290286106059495 10.413681848328988 9.955729904066722
Cr 11.975762045403977 8.352479914251795 9.767354933378282
Cr 11.265554729944675 10.425229651446836 7.912701596882801
Cr 10.005306728336565 14.798081945437957 9.822579292125285
Cr 10.054346728178347 12.629090445027387 8.352489931038791
Cr 8.498126923533448 9.689249257396227 7.79154100664184
Cr 8.158327650452454 11.31220105979596 9.312922443986366
Cr 9.194075240578897 12.806950215276402 10.970282648346043
Cr 13.449542919694947 8.214129288737514 11.465845838046086
Cr 12.341787101825279 8.496971389430914 13.375543758155372
Cr 10.390175742479459 10.447463319412279 13.605812947381967
Cr 13.107771279117154 10.690330625430715 9.674921767116496
Cr 11.923735625135244 10.447098474486527 11.715804655258369
Cr 11.674909713350193 12.50504026612611 10.06671411940684
Cr 8.86532944313821 10.464240734551034 11.887321692672282
Cr 10.671671830043852 12.634796145185721 12.627277077215725
Cr 6.500710455765803 9.352669720672967 10.347421357270482
