29
Energy = -219.79595742 eV
Cr 12.802508879046202 13.152991055157404 11.23861941207793
Cr 15.147684045387264 11.956169670302021 11.258638860918431
Cr 12.87733725654289 11.374788425396089 12.82498016427275
Cr 13.323411085679735 10.562480160492683 10.765893444409656
Cr 15.44921636281677 10.394493280911842 9.129277878571383
Cr 13.540417619722302 12.13469841388433 8.911906490226864
Cr 10.367466270019863 13.118260726374151 12.424905067364637
Cr 8.81736380779271 12.989248018878518 10.52597495478554
Cr 11.022169847071739 12.690124308966094 9.620146597930619
Cr 10.821067916461821 11.369072535165714 14.259616329651294
Cr 14.014960620726034 9.343828981478715 8.721544346924524
Cr 9.27859425931168 12.229112178229517 7.9195284043797765
Cr 11.750803746270432 10.667448361137879 8.479959426456706
Cr 10.717076700213608 11.08723914349875 11.423208065104571
Cr 9.820949572165723 9.969336301415346 6.823089764517158
Cr 7.2225591638367455 11.745066855611524 9.031850044827923
Cr 11.703759777330525 9.064231486006648 12.723108265879697
Cr 8.242770245684081 12.491042123513655 13.514094383755454
Cr 8.07308625082419 11.167174109746004 11.668936552510464
Cr 11.681919115088599 8.958776096918061 10.247706375640698
Cr 9.464453703150754 10.455972545488972 9.470259719022712
Cr 9.52521279957011 10.190050289319336 13.698966532889921
Cr 10.50982295102046 6.976295742090433 11.122968479040786
Cr 9.93693073013167 8.309760882935848 8.854477532885971
Cr 8.082540933936158 9.778428477313053 7.439138722879509
Cr 9.397525119873713 8.775529481618987 11.610573081394175
Cr 7.227521994889401 9.362040182743925 12.81771944839081
Cr 7.534033779292558 9.318678997869615 10.086611551026364
Cr 8.272836704248995 6.9936624256408235 10.01230136036963
