25
Energy = -193.43206849 eV
Cr 10.293896722741966 9.50177000935567 12.63416111041766
Cr 11.404464691373603 9.0825452941245 10.374471440230945
Cr 10.084591999956258 11.246665876393738 10.620860396609677
Cr 10.169296870545997 12.184125990674683 8.32748910764472
Cr 7.806734658533121 12.100735785426453 9.948220880705652
Cr 12.442455234247888 7.605970366591091 8.483856960812096
Cr 8.309686179095964 10.889927362326054 12.494884672134953
Cr 9.513465009916105 7.274255467832992 12.504195757521178
Cr 7.662300050865843 8.686602626867316 12.95649930829935
Cr 10.216220436566756 6.91644313545813 9.988144506693212
Cr 11.414542740656923 10.218702324034906 8.165648917416144
Cr 9.805752939687265 8.299078928468184 8.195141227118542
Cr 7.593242831489951 6.904248644812512 10.809721678035835
Cr 10.9697486816315 8.161059241055504 6.085426905731565
Cr 8.674923951358188 10.29104386656217 8.576831644599855
Cr 9.750587260342101 10.34900140051659 6.282976190029805
Cr 11.046022701906532 6.114894826373404 7.467398161032152
Cr 7.879146211872068 12.323319674693082 7.176265949140495
Cr 8.75450582913312 8.989846835749647 10.554831046584132
Cr 6.692895681196915 9.978932444911768 10.493212467726396
Cr 8.397759603542124 6.062080742055166 8.710955990230437
Cr 8.59667047363925 7.4575381087504296 6.026143599630317
Cr 6.381816429257037 10.388337835276243 7.967014134437065
Cr 7.59886987793932 9.656114677488814 6.052297240578009
Cr 7.297494361327745 8.073535089884041 8.315113805680596
