25
Energy = -189.6555739 eV
Cr 9.673269713130074 9.030173964625986 7.058495821574444
Cr 8.848576926414705 10.79090808593348 8.34072135109265
Cr 12.42240540144988 9.395712255055141 7.533211075607243
Cr 10.621592181076474 9.383440724737534 9.439355254252892
Cr 14.571409485619593 10.527590731799268 8.748761725692319
Cr 10.962849765842584 11.670780785412836 7.855328758635597
Cr 13.081978921578912 8.43765992714899 9.071921652882565
Cr 8.493115010474272 8.027060776812723 8.964558228540167
Cr 13.68298056194512 11.682686891043948 7.64899225851444
Cr 6.807953256491397 9.69159560487826 9.032442864581444
Cr 9.706804544225033 13.356484887530996 8.86919622930035
Cr 10.874003435823429 7.417155328948378 7.8126296639332145
Cr 7.937507079428685 11.914537470058312 10.35229908900947
Cr 10.090061998829816 11.819483026610023 10.381665792693676
Cr 6.202705116421529 10.563609649973953 11.676503372929968
Cr 12.326396275064457 10.954517201827683 9.847326117168821
Cr 8.527509382604306 9.780356266878643 10.8251091519182
Cr 12.679017960839252 9.42229987172181 11.237656689284467
Cr 6.223471825945599 8.25174852711499 10.334389056800164
Cr 10.603561695347741 7.986015205862888 11.087127497476255
Cr 8.104955886559718 7.3701166326054866 11.217785693656802
Cr 10.934225112078853 10.543256214791004 12.079162115768236
Cr 6.79175480429033 9.207818992013598 12.819069540122998
Cr 8.513867288848159 11.53807554254458 12.780382621266693
Cr 9.344209206332748 9.26309827073217 13.012091213959769
