26
Energy = -198.64939854 eV
Cr 11.84704840253576 12.84627705648484 15.178533379786137
Cr 13.728748757376202 9.809724182193555 12.175135994936856
Cr 9.114265305020874 11.054598127072229 11.554118167735655
Cr 7.888073784564104 11.724889755750574 13.289234783412033
Cr 10.558302399349415 11.993928446081048 13.444246536251864
Cr 10.186180333779507 14.531856062643918 14.366730245750954
Cr 14.158476843369709 13.04365079831261 8.844486371736215
Cr 13.039833164141838 11.919981455990637 12.68369635256749
Cr 13.01588626528994 11.169873610710216 10.254946090934208
Cr 12.894850842362219 9.02099606940333 9.800423392422903
Cr 10.634649862986723 10.98038714624344 15.911956337461309
Cr 15.012855676120942 11.61653304878427 10.85870909111186
Cr 11.955714570593967 14.071592866503122 12.853275925906814
Cr 14.419867136073696 10.74803735619847 8.350276372771548
Cr 11.839813806540153 12.87034492118616 8.852563405987492
Cr 11.064218673804048 12.418072556950161 11.042141384147609
Cr 11.382282091413279 14.926756716941513 10.835027180476922
Cr 9.50564463298849 10.027488228675297 14.034665789140181
Cr 14.970411848454026 9.531437109293215 10.29458121928256
Cr 13.36527021099086 13.592628609306079 10.908226007878701
Cr 11.405082850684702 10.000414748420273 11.924827094111544
Cr 9.35092840604519 13.680145402603404 12.333117369091639
Cr 12.222390165548527 10.283650271032958 14.225142293904787
Cr 10.72730251987355 10.57126225642162 9.602215000610215
Cr 12.315758800923424 10.632901863130462 7.826052629082041
Cr 9.021904322717715 12.690150388722678 15.122805749711373
