28
Energy = -214.72210146 eV
Cr 7.281009545982129 11.210935463331941 7.621015760641723
Cr 6.92357282948665 10.941718605353902 10.437761349929763
Cr 9.095799172632775 11.854135460354277 8.940535612454395
Cr 11.837563649420963 12.313732148083508 8.330051499469384
Cr 7.013836085423706 8.741360774586283 8.748273878772988
Cr 6.970812052058669 12.09659763882209 13.021994046491395
Cr 10.135145600213326 11.305504687274937 7.015699352540177
Cr 8.777066528765438 9.272409678219978 8.032078692940734
Cr 10.572724889409422 13.514292357389472 10.161034819479411
Cr 6.5402613576385455 8.164536420273143 11.025285797930206
Cr 8.780529986792057 9.697671053670943 10.531102476016885
Cr 8.490567671357901 12.357320197804366 11.476739209753422
Cr 10.756085738087396 9.86536420536786 8.98760942974693
Cr 7.417468587400562 9.817542735589633 12.792887149058618
Cr 9.05243879972061 7.635991556599572 9.846909775018394
Cr 11.078734142224302 9.007896290352996 6.473681582616036
Cr 8.654302811837661 6.878231651195343 7.729867795744497
Cr 10.963998477555771 11.347855020082354 11.056381127681924
Cr 7.212350732792725 6.122362274954297 10.187184749746635
Cr 12.770698305382362 10.283767986810965 7.309171275261137
Cr 9.098954906327116 7.7462867438293666 12.250575407640493
Cr 9.559698051978774 10.508806701756638 12.823939942415088
Cr 12.891651502048493 11.030647958585993 10.024589963123823
Cr 11.158978421717013 8.83142116809067 10.863617551726287
Cr 10.890822403849782 7.695841472161154 8.619840595467704
Cr 12.991489738297219 7.698812780135091 7.169915815110516
Cr 11.17391322005656 6.794233703919045 10.463790208880543
Cr 13.038615530323057 8.393814004186199 9.187555873121864
