26
Energy = -196.26417161 eV
Cr 10.853801036440922 8.183325188495477 12.33090110145278
Cr 11.610113299685409 7.382904065304581 10.656603212944182
Cr 11.316180229866516 9.338849038001486 9.960599935073601
Cr 12.381282358161691 10.153457643265071 7.720728501632394
Cr 9.024414630064255 8.32720674005597 10.396249365992384
Cr 10.062235157203155 10.289394986477767 12.009831637046794
Cr 12.6969084077905 9.57398064207344 12.09799175720925
Cr 11.18798754718634 10.003089178639105 14.257098046019141
Cr 10.420118745437877 8.307561590585117 8.09118179091709
Cr 10.097339312851018 9.630637574827576 6.371284048454472
Cr 13.520765697158605 9.802776769364009 9.58607124365313
Cr 6.9279287144222 9.86422399212197 9.668691796798736
Cr 8.346045919929631 9.592795747935842 7.89582283714365
Cr 7.613379102404438 9.933658248666267 12.123169667028243
Cr 11.225764334072908 11.942114231900431 15.201725199568072
Cr 12.967165879081845 12.273511295329744 8.576577158346288
Cr 10.477379564276871 11.070439559714467 8.124137660662475
Cr 13.96499966145504 11.693903956094166 10.859307707886654
Cr 7.199333199882421 11.999406702901332 11.639126079889719
Cr 9.129581039465805 11.159077575523865 10.081986378197309
Cr 11.783470824634982 12.102187850853953 12.710413508776146
Cr 11.777407460651842 11.636197161288976 10.497452651749906
Cr 10.701983667160345 13.21815010490696 9.121692408749245
Cr 9.258464876637408 11.950546404548577 13.446211813317824
Cr 11.994518516831835 13.837289300217915 11.442038350112233
Cr 9.708666036822837 12.980549670482024 11.380341360954198
