29
Energy = -219.64742668 eV
Cr 11.680622120884324 16.428179238325093 9.067215166065747
Cr 8.338822732841647 10.81678287580602 11.842178592004828
Cr 9.682193985753127 15.834766953448137 11.480518450931696
Cr 9.27618197024611 9.788046471558548 10.371276896544245
Cr 11.462377688145617 8.73711379958651 11.146963447389194
Cr 12.885169062063168 10.089739318939525 12.567415048705115
Cr 9.184541101601338 12.178563763200867 9.655866645987905
Cr 10.217786539076625 9.427768263710425 12.950846946978746
Cr 12.36952546778588 8.21192521322354 13.763753424346211
Cr 11.510001461669932 13.875633116995939 11.3893542877738
Cr 8.968853426799452 13.405355485298294 11.653685020632244
Cr 11.239762277750655 10.660095194175563 14.277228462568345
Cr 13.382339850114057 12.080788130967825 10.916094866194314
Cr 14.85842544377766 8.744020926584914 12.971398262883069
Cr 13.587219404329051 14.083690263822096 12.348061691178188
Cr 13.513690256393577 7.5712612922745866 11.813693941285
Cr 11.822035807594213 16.236778500795648 11.200220624449031
Cr 14.304513188259254 7.998540747707095 14.99230568805175
Cr 14.034586253297615 9.636124266211484 10.44781340900132
Cr 11.646274785560466 10.394718989685998 9.32849233345756
Cr 10.293417919793066 14.728490489662832 9.636421145208928
Cr 14.650225628796623 11.692722240727962 12.534153725333661
Cr 10.692916712472107 14.761168875894395 13.346484646029793
Cr 12.519342688266564 12.564177773405063 13.444528903795918
Cr 10.94211086344027 11.447326006664849 11.627485351518708
Cr 13.806176678969527 10.424457927877206 14.826478803350822
Cr 11.541868901468241 12.650212444524575 8.97171153639246
Cr 13.057646014062723 14.400510383326674 9.620282802233076
Cr 9.77076772396975 12.352803383980627 13.242816563529466
