23
Energy = -176.48543659 eV
Cr 12.362071234167242 12.06285991969427 7.927936747569435
Cr 13.172480951842193 9.936583453222752 11.333196982102999
Cr 10.558074684583767 13.30182721337605 9.440645046367532
Cr 11.345143431143761 11.111224273080907 10.217630727696866
Cr 12.483115044339778 9.528295097326863 8.686169949809756
Cr 11.64968988475847 8.378224607410615 10.660439935930672
Cr 9.048802304649096 10.637976663748596 14.237197929148945
Cr 10.273364044945549 11.024504593673502 7.940702057753642
Cr 9.691918537491599 11.912717526893335 11.9539688413151
Cr 11.141953746178732 10.142782360347235 12.642426504437502
Cr 11.285726630734795 9.413307641076711 6.59092633902832
Cr 9.517092446685414 9.585880684970807 10.388207836746046
Cr 8.64915034832046 11.831771358927671 9.626215772121892
Cr 12.016616686165134 7.012805674009392 8.292059509501637
Cr 9.470767787050454 8.521934175202482 12.82554575658352
Cr 10.051787427291105 8.127395294611611 8.309648898903937
Cr 8.39943030868876 9.820371019274528 7.36678107856443
Cr 7.766701554677032 12.062976042478683 7.3992062741661515
Cr 7.846063445013705 10.246937398807043 11.81813483802453
Cr 6.84479331355295 10.15831169800188 9.39010922229265
Cr 7.293233718518835 8.00052850506272 11.21582954455436
Cr 9.380811109123231 6.980631930113665 10.529235280667464
Cr 7.43690142443131 7.93291637078972 8.923782677685542
