22
Energy = -168.27853418 eV
Cr 10.91353844396562 9.613224051800438 7.818753341233472
Cr 12.948967766362038 13.287674962381269 11.266371393718988
Cr 8.681554845524616 12.742495531665444 12.936393807511784
Cr 7.724475710032723 10.365441826879119 11.830482669176899
Cr 9.76103874113237 9.79755208703418 10.097013318808003
Cr 11.361029754450007 13.447428065003097 13.192613799169308
Cr 11.748328688502518 8.987994886613023 11.621190604808852
Cr 10.661693577464979 9.587417092846684 13.758788255488678
Cr 10.248052933695531 11.288629798545642 12.069536256121694
Cr 11.103615572506659 11.915396486057977 14.488763293430319
Cr 12.020228642769338 8.490452059089325 9.400908558061712
Cr 11.8598750650065 11.189805295322003 9.866422943734412
Cr 14.467439109560427 11.43532061006549 10.185534752688358
Cr 13.271687349138434 10.480540500710456 8.058171749729174
Cr 14.028958836432855 9.675796945090191 10.518911778765837
Cr 12.742714803620322 11.145982294025533 12.262626363900045
Cr 8.53196908069303 11.94221361272125 10.059214972995614
Cr 10.544046602837115 13.240135998702195 10.621464857879928
Cr 12.857759922938657 13.129174196527782 8.91889904428246
Cr 10.309214561112178 11.813229903906075 8.2045589043517
Cr 8.518018963598712 10.701911170239445 14.096978920631233
Cr 9.06412312209576 8.692984075672054 12.118740103302095
