24
Energy = -183.64718414 eV
Cr 8.145917372444522 11.414849086225102 9.197811893242214
Cr 10.289743210002088 12.05691158622076 12.5157847821754
Cr 9.307284602661937 9.640847954295985 12.908744092792192
Cr 10.355760308974677 8.296185871927966 10.863461482559671
Cr 10.160540416708017 10.972428853153973 10.441035812454002
Cr 11.790022607329183 12.545747665501064 9.238600113433282
Cr 12.497361471057374 7.309543200933622 10.62799213508248
Cr 8.624733032998792 13.521733165559821 10.942032264302798
Cr 12.696949208635118 11.762594969796467 11.472397392139856
Cr 11.001255993526943 10.763583034638337 7.783194168252957
Cr 14.689283680980605 13.267799533012509 12.735197339362045
Cr 11.871299697148862 9.709793194061891 12.274611696259827
Cr 11.608555333333 11.056532747357194 14.117904712261742
Cr 12.245402362939224 9.866567006498396 9.632586660346796
Cr 11.02732632489356 13.902012790453748 11.171710250077178
Cr 7.814278271990047 11.289776011761246 11.832722396111006
Cr 13.493168607570547 14.052786204792044 10.818325591229627
Cr 7.863655056579905 9.064116843653037 10.682887735733454
Cr 11.721574461698772 7.9374942103870945 8.394453795845166
Cr 9.685600607447213 9.123001172340555 8.714251946153723
Cr 12.511666644121764 13.399083949573475 13.441122377512118
Cr 13.708565113927213 12.441881811308114 15.314093550161843
Cr 14.050023855275546 11.009916733280901 13.411101619566574
Cr 9.605255526124612 13.14279250591454 8.803614615017292
