27
Energy = -203.88487023 eV
Cr 11.363349360968318 9.30606693654513 12.899599212852175
Cr 9.115855867712677 8.132457503098845 11.896266611100529
Cr 9.54027335614252 6.514631896040522 9.756144182774909
Cr 11.320072083627249 7.607297806333274 10.892300115094267
Cr 7.882544445152137 8.326141544863352 10.23466384374861
Cr 11.69601010684874 11.732744257515447 12.37042535502576
Cr 13.557241672740746 7.869846665650205 9.790065942666473
Cr 12.410945772446535 9.703141028385042 10.674924536339523
Cr 9.527776115570893 10.06610073666256 13.720636595918167
Cr 7.464455108653712 10.225535719598277 12.201192253568493
Cr 11.852453613381803 7.286202709199708 8.571215725311705
Cr 9.384128329202149 7.706003665786851 7.801222690943646
Cr 9.672814709190636 10.529269625587597 11.054847573805489
Cr 10.21528222409166 9.001162330444002 9.309247011736904
Cr 13.210987694560956 12.372301074460637 11.117173214525364
Cr 12.328179744155296 9.49505135251458 8.194992311103654
Cr 9.240581107011053 12.308252833455862 12.28348277143222
Cr 5.867607651922515 10.32868779070889 10.824206501307188
Cr 11.093908346758377 8.885490361944894 6.479147131013911
Cr 9.887050785770368 10.506303195006018 7.519419505217122
Cr 11.035387361012184 13.785733119533951 10.87241403982647
Cr 7.782370430335352 10.427025694642923 9.192236244457378
Cr 11.497045099330384 11.63705152476631 9.442367641232636
Cr 7.683174036023044 12.438254703317485 10.632597935181037
Cr 9.471536998263453 12.47336400078277 9.194650428115846
Cr 9.132810324094471 14.643368889779353 10.800748513283855
Cr 11.719033735533255 11.645389113875396 7.226688192916685
