22
Energy = -168.39894875 eV
Cr 10.66120764347749 8.289646505913238 9.673419105394368
Cr 10.529560098498106 9.999975347733972 7.503531675689917
Cr 11.543648967601348 10.853684203228868 9.422511200129811
Cr 11.7695589127046 11.640233361816025 13.84616080628112
Cr 9.326814137823785 13.11937850397373 10.471539992588253
Cr 13.893910530413013 11.856291567259786 9.884457930379144
Cr 13.372504310342894 10.94778750672802 7.6923512902340505
Cr 10.382825289499285 9.750067068443643 13.688505644462534
Cr 6.454858142661291 9.295969580458937 11.060013058177365
Cr 8.65079778874947 8.629914202420702 11.763105348314648
Cr 12.463709854430986 10.317416578110878 11.933093403192824
Cr 8.678845029082964 9.641907469567276 9.513402632368582
Cr 11.496110241640691 12.95498799174963 8.552802512917111
Cr 10.009573454113664 10.542351096519925 11.179352661057646
Cr 11.177762983842436 8.206760239962989 11.982804621484062
Cr 8.118290739557226 10.493911815460104 13.196263711003562
Cr 9.773889063267584 12.429073249350063 12.732909525239789
Cr 11.899258336641134 12.529175682325473 11.273638899920947
Cr 13.210989855889865 9.166646875962225 9.960768879804863
Cr 9.174739896616332 11.83502990080441 8.588519050882933
Cr 7.707146330913096 11.335224573978735 10.969131809182809
Cr 12.513360019365232 8.809555857249443 7.758239936574655
