23
Energy = -174.62657903 eV
Cr 9.800713288628609 7.922406827739992 9.86816070149772
Cr 9.26858186330607 11.467613471254545 12.61377163621323
Cr 9.074071540873668 9.934711490979904 8.110721545159876
Cr 13.048799136371732 11.742515150491922 9.894039085269691
Cr 10.203269572934841 9.066376711149617 12.149201319264705
Cr 11.344197639902093 9.780648169292869 9.37475624530139
Cr 12.320730657448463 14.228725357055612 9.047976054357424
Cr 7.99598580650751 9.41903804788815 10.481916988282231
Cr 13.575212571183064 12.417570224710078 11.978997666823421
Cr 12.600648098311396 14.512963220612672 12.961393681926783
Cr 13.750433222376065 14.416597183747546 10.45464788537855
Cr 13.443511976353824 10.33478910972382 13.709075031388931
Cr 10.127462929532625 13.841491503770824 13.14635380478708
Cr 12.437668613232157 8.456974035645251 13.500422766112496
Cr 11.782778388893968 12.169546342172332 13.82173737956779
Cr 11.446813058081894 15.495985886870324 11.284693454751439
Cr 11.079215507290813 13.106140789947316 11.081126769984643
Cr 11.014508565491354 12.021036365989099 8.37644823354235
Cr 11.98782408383495 7.940476576960217 11.578409766265308
Cr 9.581095503779155 11.11960652376577 10.530156774083187
Cr 10.583525730051472 10.51826697839651 14.294235668694942
Cr 11.765792817942515 10.503133408101673 11.965242541259784
Cr 13.918201181078485 9.501407627863447 11.144721562351737
