20
Energy = -151.87303271 eV
Cr 11.201090384103336 11.146434256662904 8.458105521144288
Cr 9.418210107144077 12.631149660556515 12.296573285674109
Cr 12.194839820620965 10.004069735105592 12.840603327310065
Cr 8.140126080853182 8.628784340186286 8.843595823220186
Cr 10.425768219730676 10.842068307168574 11.162831932666117
Cr 12.631548883545062 11.807195336028164 10.582157770784963
Cr 10.645850398882322 8.154091435366363 11.866122445663123
Cr 10.296556610745448 9.289473346584371 9.565265158842235
Cr 8.198214967818517 9.848979485937 11.27501127730118
Cr 8.745103170971147 7.489889777537887 11.245289948502265
Cr 9.593243150822094 9.454089853906028 7.053159921162165
Cr 11.84156957626344 12.262665687696265 12.847690962013246
Cr 11.72892147617768 8.412083743583542 7.7333159109443
Cr 9.807154121896682 10.020190658516333 13.466851039464043
Cr 8.858702510032971 11.760401078174269 6.959810445528948
Cr 10.34346521583985 6.787692904256697 9.313748926260274
Cr 7.109894933276941 10.561201970189819 7.906104587265923
Cr 10.65127989107742 13.377114200281762 10.379265072178105
Cr 9.161987623222142 11.788617136519344 9.32559394973162
Cr 12.483980059705315 9.211314288471673 10.356409897071574
