20
Energy = -150.32302794 eV
Cr 10.56700108509834 10.239105809884913 6.342333641600942
Cr 8.485378076375355 9.650971205846728 7.399050045620562
Cr 9.660985780481354 8.003605444079708 7.691747413353571
Cr 9.60365736120445 12.271687779366943 7.496679066135138
Cr 10.044074229089048 12.822890338489577 9.402625666482265
Cr 10.517032535134915 10.281182930406278 9.018106873486651
Cr 7.887926561968803 11.288517010324048 9.631908091791118
Cr 11.894205280229086 9.032170833338839 7.420064852524711
Cr 8.863670210998285 9.03103707659095 9.845514700183271
Cr 12.710488413702517 9.796654075778058 10.22453638107494
Cr 11.30747492421827 7.6106112875847485 9.619258104263007
Cr 10.61692230184986 12.496242487072944 12.914701033128827
Cr 11.848437466160654 11.586129669267716 10.734442916449808
Cr 9.59750679077503 11.114961977516089 11.478620220886908
Cr 10.755333545969043 9.072691279798017 11.429966101138358
Cr 7.034171165904477 10.363971483321388 11.406354112439578
Cr 8.70727126125301 8.364667402312502 12.340998290841787
Cr 9.593061132663218 6.975281114405774 10.23914121477302
Cr 11.865814025461678 10.761504766392989 12.91371335040844
Cr 9.396237975812122 10.19276615257116 13.406888047766765
