29
Energy = -225.29727942 eV
Cr 13.214544702404714 6.906917904869275 14.287956788741761
Cr 11.045126757257323 11.999311572910129 12.115991177356321
Cr 11.540819379071227 10.206179000458322 8.580419581230817
Cr 8.962049869921145 12.25804016939611 13.387369398622004
Cr 10.24048488846229 9.957469807088296 13.342835811080521
Cr 10.292545861114945 11.986354066257302 9.723748928470403
Cr 11.013262514788249 14.17637261966561 13.19096380224168
Cr 8.678878644531851 11.155522777736826 11.501095321233455
Cr 14.837310968360287 11.007080032185579 12.163966873180742
Cr 14.306208147677927 13.336988679704696 10.674297351646855
Cr 10.660208738687453 9.72790711546331 11.16110766749778
Cr 12.504220806312551 13.928014830796561 14.810624241719601
Cr 13.74223882653264 11.45767925577312 14.745151430886013
Cr 12.382302583026668 9.162830799275607 15.021731068739077
Cr 12.70404291968955 10.088379538504958 12.796948690144932
Cr 10.630573242698865 15.920412492638178 10.816489871125302
Cr 10.315957482596373 14.496227651017854 8.819759018396834
Cr 11.94051748466019 13.70268347746379 10.74242367297578
Cr 12.68354658964389 8.984030086896059 10.650700319091538
Cr 13.054741101386645 11.31523700846607 10.584120965939743
Cr 9.366872699921267 13.62395128157231 11.059486872349002
Cr 12.867436130825094 15.233459032785944 12.343361008336222
Cr 11.65305589189723 7.673498519986342 12.719126270155114
Cr 13.32803100227019 12.83228000963454 12.81099826018308
Cr 12.59489292246033 12.85206114319391 8.536203227076832
Cr 14.734392955985594 9.347600166807107 14.39696176479744
Cr 11.405019651530742 11.774088366461168 14.507757500208218
Cr 14.400448012950653 8.16112885453863 12.472249533966785
Cr 12.862481350130713 15.843023148717924 9.633391139485127
