26
Energy = -202.49011541 eV
Cr 8.498501870008297 9.487611624024467 8.88219115053622
Cr 11.827993511013782 9.264592560402264 9.556121912010866
Cr 9.737176970109607 8.300855740466014 10.691476786226172
Cr 10.261162228362252 13.472763988820244 9.439758084022134
Cr 12.173724652640967 10.408310576752633 14.381126361729004
Cr 14.015024623233675 9.483013798138256 10.451847332185777
Cr 8.173602889152692 12.320766792146053 10.02305139544387
Cr 14.084536265309618 10.946282168618895 12.178529651412639
Cr 12.42909293276436 12.383453144025143 13.155891289449476
Cr 9.976181847988862 10.995436017342476 13.811419897741775
Cr 11.55522777510299 11.754446478806555 8.13256348441397
Cr 8.28487135673729 12.757116397866955 12.479191416226495
Cr 10.310292845670014 13.633763291733224 13.895227831391452
Cr 13.405995746338556 8.309627625327083 12.721971002730548
Cr 13.931986691856338 13.637965055030284 11.648867241461609
Cr 9.191537588355366 14.664249632137924 11.299352326838074
Cr 10.52732918138872 8.376977969292032 13.076066791873615
Cr 14.524268962002477 11.644773544029778 9.254109533869295
Cr 10.102112208455624 10.856792928567002 9.795830897146223
Cr 12.594922965286035 11.97969645170164 10.344348535608072
Cr 12.533578584208538 14.201932326966917 9.26283746991166
Cr 10.510373050930074 12.265308850468928 11.642995988116205
Cr 11.744442181671005 9.986812678478229 11.97368147758379
Cr 12.22131895416302 7.387012446920208 11.251505315627012
Cr 11.641190290660985 14.42302281488294 11.60220362272075
Cr 8.750966526540076 10.156034458348977 11.77806642387438
