22
Energy = -165.70986651 eV
Cr 6.539106031804354 13.301913382183386 11.443376150902878
Cr 8.67437142104193 12.547196703108614 12.461464949854625
Cr 8.976060962312056 12.602554084244243 10.410979171515672
Cr 12.469773413100238 9.24750685636525 10.453231356226013
Cr 7.5752195942702265 14.684161970635232 11.422496391349013
Cr 11.458537110660906 11.439029220748056 9.71982612913446
Cr 10.374279918236534 10.63871619021623 11.53101325258933
Cr 13.841241300856261 10.27318029519201 9.89186569238542
Cr 10.016097181468552 14.622638090935833 12.606985535818415
Cr 14.461489293069238 8.68649672043829 11.826079766906927
Cr 12.072426423710427 9.356394230164824 12.938162157759523
Cr 10.947329276619138 11.930872390291421 13.273335991760996
Cr 11.18385362803843 13.16865109105299 11.209580381680816
Cr 13.086048933341905 11.33425054807645 11.956686384366744
Cr 12.581042416164612 10.878075109660175 14.58120982100729
Cr 13.532237214057787 13.000981530501251 10.476181724861737
Cr 14.733134413072243 9.610526158252693 13.57470010263913
Cr 15.586528630446132 11.200441947982025 11.624096953520521
Cr 12.891541898251457 15.13714507816035 11.884562687332851
Cr 12.564453808668425 13.766779501080922 13.435288776992435
Cr 14.417650344252953 12.06437106071032 13.978586329909295
Cr 14.960473656859131 13.373094583058906 12.171074911324721
