25
Energy = -192.10897388 eV
Cr 9.25798612175439 10.79950616895208 6.281385454609857
Cr 7.6811131607844185 10.147565763215365 7.96994991000644
Cr 9.265964463314315 8.3321411788769 7.594674833862769
Cr 11.345414496935998 12.381833073283548 7.437179711598585
Cr 9.13828735784185 12.585542864008852 7.976750714220602
Cr 10.493690392343487 10.163045713840328 8.32957593082007
Cr 11.465852319587697 8.058696690781188 9.173217820804236
Cr 8.783906056604817 8.636491940919079 9.665376492661647
Cr 8.839470355379555 11.257857810876242 9.925276359715708
Cr 9.788990270007494 6.381293367264992 9.080046822158303
Cr 12.826478281771903 10.533910643221692 8.799054865390685
Cr 11.98220676262519 12.207805533268557 12.28461167090031
Cr 13.84741180691175 8.386542818785587 9.455861010863938
Cr 11.251110718453631 12.329841031784813 9.886676171459413
Cr 10.584182115598518 7.854035808867685 11.320395430738888
Cr 6.7376190458403045 10.329567186607328 10.566826230932994
Cr 11.01812610635833 10.04966807357492 10.89200777823871
Cr 8.519236990321836 6.518673198384128 11.337145847448031
Cr 13.00017416537474 8.317578911202698 11.541437965419952
Cr 7.589091784214766 13.047773408269748 10.816155784808009
Cr 13.313610918370587 10.62314480701069 11.042173647445388
Cr 6.909674678950317 7.696072817408899 10.959374664618085
Cr 8.556838793686737 9.268399961417781 12.039760855190249
Cr 9.667131205332941 11.561465474192975 12.12882560187591
Cr 7.131132365901571 11.526246488250331 12.490959158477473
