26
Energy = -198.24381213 eV
Cr 7.711982803986742 12.12206816822535 14.343407987932874
Cr 11.666473289157567 10.363792503698559 13.29901432520585
Cr 10.118999072557708 8.70525484001431 12.119105834321484
Cr 7.758073639381738 10.121141384255745 12.40804468550248
Cr 13.867915794989553 15.025688658727097 15.139717399443807
Cr 10.044526204133788 13.763997435568568 11.744540711846492
Cr 13.154352413990795 9.024920889664246 11.901560923142961
Cr 11.900834363170478 10.278374755695468 10.669781460698744
Cr 15.822804078488906 12.482288773455117 14.165163187522651
Cr 14.111574527730646 10.853493671394581 10.331250340887623
Cr 9.097542638958135 10.003328377703554 14.126268384567057
Cr 10.047369817885196 12.395477083154056 13.569429680974812
Cr 13.43626400852998 16.292536121951517 13.370332021479564
Cr 15.259209481943797 15.879849006950014 11.600457243648023
Cr 12.530168447535441 12.56452060750475 14.189740576914275
Cr 12.571167578227353 14.742240153073235 11.283223100842928
Cr 9.937716017760748 11.22689327826867 11.789510930374542
Cr 16.092292364897073 11.825955468178263 11.766262846313365
Cr 11.633561399287958 14.542403150310664 13.357748471929323
Cr 7.705742558220954 12.595230788764407 12.03736709257062
Cr 14.506315470289607 13.209382036835379 10.616570724922438
Cr 16.818174717336248 14.181963239469573 11.80474077784882
Cr 13.899945418448235 11.103776805060374 12.571400862705932
Cr 12.227015977556935 12.525656479231577 11.602879329664903
Cr 16.004091427229103 15.596897742006917 14.033382987700843
Cr 14.348162725377557 13.722826891909685 12.917653683946696
