28
Energy = -210.19579355 eV
Cr 8.90264464077977 13.366055416556 9.286162850330788
Cr 10.070275131221006 14.147315213232726 8.154984173257935
Cr 7.799452886263732 10.893560063833794 8.234782290917403
Cr 10.262845886945742 11.350190362634692 8.102229075974682
Cr 9.78853710403015 13.100883334991208 11.979797471732248
Cr 8.75959090843187 11.246105066865889 10.496959954465897
Cr 9.162681930295358 9.058364281064822 8.836324599941326
Cr 11.234890996239574 12.549371344612677 10.1575149441245
Cr 10.803161716668265 10.023924373109972 10.32622305376035
Cr 11.359275232350459 13.356838064461066 13.887819730752119
Cr 7.153925324889797 9.086295609418679 10.349404975552947
Cr 10.84077478820334 11.09536386979403 12.375240501224697
Cr 12.04191723304922 12.797595412206457 7.571336838200183
Cr 12.717886287494002 12.66252870653621 11.917139916218794
Cr 8.929262737469832 6.944573961786434 9.588656786170557
Cr 10.49461134386741 9.650189293023995 6.869649009685931
Cr 10.29642767948981 11.414590964948006 14.52677912254883
Cr 13.72578820636258 12.430013383787132 9.245658723287242
Cr 12.694683098965537 10.500996628718829 8.644214224774402
Cr 11.42894003287409 7.9254537376085255 8.806043862872022
Cr 7.5856518316239985 7.777638201035697 11.57093092090159
Cr 10.376282462423998 8.904946206936925 13.976432529669012
Cr 10.263493180497502 7.963513210607051 11.239094856100689
Cr 13.166466584190907 10.459116606917382 11.02116909881855
Cr 12.632791297740175 10.81004036297717 14.155640040396282
Cr 8.936467206689947 9.723756343298145 12.306365871134991
Cr 12.19822766196008 8.957578359308824 12.598782915297969
Cr 12.698681638517781 8.128836649263757 10.100296691424315
