29
Energy = -223.07195616 eV
Cr 13.865831814747922 7.32592630677383 10.854909674755712
Cr 9.692386812510888 12.367498872445283 11.83525959064452
Cr 13.94620991101282 9.867272006197389 10.659091595276635
Cr 13.03419436841033 9.35821835515674 12.465739581934589
Cr 10.830162342119802 11.652909892167028 16.113827184703368
Cr 8.921389250856423 12.644471889254257 14.424426260596599
Cr 11.468492087504531 13.966809236739453 8.833069643577323
Cr 11.056251187459111 10.468562830218714 13.611815257421743
Cr 13.934986971194744 12.927750904181496 14.432684360163247
Cr 15.16516035446433 12.066357403300424 9.817807475215389
Cr 13.478771459701152 14.483795243119495 12.917086467143987
Cr 13.930734208000866 14.138260009345224 10.508310202427657
Cr 13.000777420497993 10.842836350150156 14.775041402860479
Cr 11.640633226276924 11.07277858140724 11.197827904653643
Cr 12.778528862604556 11.748378931368242 9.577523686512281
Cr 9.355822511242744 14.726827546946028 10.43212826488549
Cr 11.383445150420583 12.73458718733736 13.631417534302678
Cr 9.826672569311981 14.161892901482288 15.594464764813134
Cr 15.617967595176019 13.034309290080252 12.35393838911869
Cr 15.995374488946434 10.861544053378422 11.216653018279006
Cr 9.759475016369407 14.825006383039149 12.784232328024064
Cr 12.338025366672944 13.197459892874768 16.28966762040973
Cr 14.734598443813459 10.352237848519831 13.307500755283446
Cr 10.13393070382655 12.175191797784155 9.463427159898652
Cr 15.415996483344644 8.116079464055064 12.073945141733784
Cr 11.532718908144314 15.719637202233878 11.712811083988502
Cr 11.630494727767216 13.49970450070089 11.256689731514623
Cr 11.869677877939502 14.973257901369378 14.443496897254295
Cr 13.564365252570337 11.90893565553266 12.042547626957486
