26
Energy = -197.65563459 eV
Cr 12.03829395855102 8.669190336811985 8.675653529875953
Cr 11.50221091522777 9.11957495779066 11.107835654501015
Cr 12.669089006552644 10.884316851874061 9.751367189198264
Cr 9.62617859980452 9.21401816408503 12.514912078824958
Cr 10.37269448374487 11.264333693323492 11.074675860496287
Cr 12.927659513561974 12.53637741394975 7.9513302763896965
Cr 9.959343949628865 7.4159764952247125 8.448523812766956
Cr 10.683508672524486 7.238333108451137 10.600132350817189
Cr 8.386055309083357 6.927683714383917 11.95808826530903
Cr 12.237522238306145 10.41308542022367 7.01173503289571
Cr 10.78775539822293 12.754203559105799 9.191005275727132
Cr 10.179662599370575 10.129361352609635 8.82713886035143
Cr 9.034521285976979 13.065270611495011 11.157932459101602
Cr 8.770810489348912 8.972854267363118 10.361923690768226
Cr 11.800271580406301 7.690133721469396 6.482849002495713
Cr 8.282594368008688 6.426036701071388 9.739548998098318
Cr 8.046320278964352 11.041941766091364 11.672966629563453
Cr 10.374992893469656 11.88267572257006 7.20723438891327
Cr 6.90202165649095 8.771128510231655 12.172688039054513
Cr 8.40541647475531 12.096818605742204 9.458845018033326
Cr 6.516897803949097 6.268088031331634 11.630826293886523
Cr 8.02229540090926 8.4388927740077 7.997185669387589
Cr 10.168355322056964 9.140384021592869 6.487814407560193
Cr 6.537449111035316 7.69825114296894 10.022378631661436
Cr 6.704218281313205 10.232342479932862 9.747260864931196
Cr 7.939135729343615 10.584001896904859 7.6234230399982295
