23
Energy = -176.38087338 eV
Cr 10.544355243679483 10.991362785080009 14.444022639790143
Cr 8.330931163932341 10.438410083076965 14.083246877517372
Cr 11.495913476607114 13.534615087554872 8.224991381822472
Cr 9.54372544482263 13.611876157877848 10.937171705230451
Cr 9.011040599030919 13.095623231847233 8.45098902274826
Cr 10.96080406151675 12.107873307753373 9.970456022963479
Cr 8.483951947467736 9.104460331504127 12.048669314037342
Cr 10.249873149434825 9.533021298311137 9.506879069734854
Cr 10.207226625266328 11.103359854981589 7.647333520840899
Cr 10.493873469624612 8.628554980634593 13.64812896984574
Cr 10.082744752922514 10.828477919421651 12.086867724863183
Cr 12.648280255024686 9.786073271780113 13.057011904314393
Cr 9.582629612566743 13.069520681975805 13.48497302692901
Cr 12.559078518590288 11.020090853620667 8.161348290855347
Cr 7.809865859751269 11.936658753382957 12.448021067235867
Cr 12.782954973297759 8.659772061346752 9.167976865183155
Cr 12.392848995558781 10.380621344282899 10.913261333318822
Cr 8.640892235519004 11.10149919893469 9.914359414370724
Cr 13.355608219238842 7.99485033471254 11.561001195012235
Cr 13.522974404904751 12.195907772233639 9.955820913880794
Cr 10.998647930379581 8.28383096837497 11.358785133197248
Cr 11.819671373027523 12.538189937786418 12.326557649170592
Cr 14.651562512753014 9.93109003635502 9.679052641155538
