24
Energy = -185.14432137 eV
Cr 7.303916075402179 9.070744920227082 9.43223942873136
Cr 6.805078158215087 11.192871379766846 11.51097266081662
Cr 8.043885608523423 11.213057556907142 9.156869697939301
Cr 6.933423942325724 8.699381593127137 11.775776985177913
Cr 9.14288241066855 7.802259175363789 10.141212402272389
Cr 9.134603542108554 10.065109189768526 11.202984572735861
Cr 9.86539616896065 11.308437218982256 6.985553811061675
Cr 10.218190008570806 9.819130017295306 8.80227766372073
Cr 9.963054456619568 12.511786507772134 9.144452186499286
Cr 9.164890640775495 12.507412367466582 11.522280519572885
Cr 8.661050834671387 8.663961869589698 7.460580177314481
Cr 9.009701692334145 7.8963282409388755 12.777929984743203
Cr 11.809055167843196 9.228692420750765 7.4011052764108864
Cr 11.857508522622403 13.112850581808628 10.983224084210324
Cr 12.111153546990684 11.29317534350324 6.085334270699505
Cr 10.511409859617336 11.549101140361472 13.089358119584693
Cr 10.593396930950473 7.1972916049140165 8.226802321759813
Cr 8.389257918463604 10.424010660433227 13.417037665177713
Cr 11.308337535370834 8.274670535924182 10.89534286965874
Cr 10.94702828606479 9.218349520545221 13.08349952944937
Cr 12.114444106737066 11.893559903376138 8.493848073359544
Cr 11.325233587849677 10.772498820354873 10.863300176475166
Cr 13.00773775056276 9.87283024419541 9.343728960921698
Cr 12.798937188604159 7.432063127479388 9.22386250255938
