23
Energy = -172.59716037 eV
Cr 12.168653983719116 11.720432786700162 10.425310528140583
Cr 13.245031676612637 9.620706850076406 8.997320355027703
Cr 10.750079332949944 10.204653614792386 9.297092812282498
Cr 7.657242572393876 11.771459185753208 11.69973310474346
Cr 9.349429313604428 12.146441013109401 9.83720063468212
Cr 12.331320525838178 9.15647472634518 11.21899530901326
Cr 10.23910032661113 11.090186018527803 11.722727037320547
Cr 11.45628221142725 11.330613747790789 7.3994579838602865
Cr 11.90467902289309 7.091416798358141 11.610271295117895
Cr 8.855671222698673 11.345991838802647 7.7185949684014075
Cr 6.705503860706431 11.97709552859852 9.30319756287539
Cr 11.966926393442602 8.90010334198406 7.286555533490815
Cr 7.082172358234676 9.749671013108898 7.974881014037049
Cr 7.097576847577636 13.614547596058845 9.833320752512412
Cr 9.957051069119062 8.732622312267475 11.33114362621361
Cr 11.242864516410892 7.786844479240981 9.230143415511645
Cr 8.224292903788896 9.864270633950387 9.985579639736018
Cr 7.8709252731902 9.951907915724659 12.539132129159489
Cr 9.662267465850215 9.210315489982177 7.501960891727612
Cr 10.057910169272152 6.792413076605752 7.716122614121731
Cr 8.552881968561591 7.629435604206999 9.2648697676597
Cr 9.869150595790703 6.583012580971634 10.740545394003503
Cr 7.765600503734284 7.79304925773591 11.514526336746922
