26
Energy = -200.4061969 eV
Cr 15.321977979103726 12.822753480689196 13.249446216578722
Cr 14.569393204260534 11.272547269366711 11.667791151959578
Cr 13.369964384081568 11.509295476364526 14.234680367361033
Cr 12.630448356955444 13.61483411367168 13.149342427520894
Cr 13.588407811787189 13.001052910913572 10.536117677438456
Cr 13.122190726390537 9.54457700942188 12.581117500926313
Cr 13.114458036443688 10.402774572583876 9.75153216742632
Cr 11.88583043684373 11.692975976194253 12.02380896911863
Cr 10.769348566932164 11.775459682065524 14.351791861295336
Cr 11.668845024018239 14.287038826781812 10.925209697978486
Cr 11.166257481917244 9.630467016521887 13.737714842546064
Cr 13.099591674023555 8.298052812001266 10.42907397274919
Cr 11.47381091056627 7.331949879796654 12.366446648219908
Cr 11.022581534124235 9.276292845709206 8.746074521722328
Cr 11.576283857367784 11.953626061840879 9.318479243982138
Cr 9.058418243535437 8.22665735580939 11.084095162392412
Cr 10.06586218605525 13.667136624892134 13.002959479358356
Cr 10.797125829444731 9.709314271826143 11.14291297172092
Cr 9.696992534042847 13.925105632980081 8.885913808274493
Cr 9.110340374556522 10.951273486994088 12.569482258679823
Cr 11.025379558734413 7.152518511977429 10.097232493408855
Cr 9.798633732322932 11.454969485076315 7.773281704174396
Cr 9.250676670166992 15.06542536523843 11.025897514894917
Cr 8.816317362830302 10.69828118882286 9.718301626863186
Cr 9.883671648404302 12.454998493467345 10.933887304863658
Cr 7.776739165781284 12.921053874403595 9.3688081856758
