27
Energy = -207.09900769 eV
Cr 14.030914263584913 10.425658559586177 14.397355359131197
Cr 10.972377301081334 13.47950424730683 9.852403978080716
Cr 11.895473612349626 15.713092495317033 10.361779363541332
Cr 10.854239048560405 7.233843226684562 9.405193767381949
Cr 9.169296562563634 9.042252859304732 9.050031745151497
Cr 10.94472007856138 9.392723095750899 7.5989519229328355
Cr 12.522269632386212 11.664738583132266 10.740345335791009
Cr 14.210101099330387 15.586225231903189 12.273940129778946
Cr 10.619505007313201 11.731062765378338 14.558792642350626
Cr 11.559119050321806 13.831934198639116 13.68262868002113
Cr 10.335667534556407 12.68585307195466 11.914653985496802
Cr 12.57177392293677 11.61708925882716 12.951464393924411
Cr 11.6222803320811 7.559264373733087 12.011839933190894
Cr 10.332669727008886 15.234732925116315 11.791666949098722
Cr 14.273673453735956 13.239749968917305 13.65856937951299
Cr 12.728696997873945 13.83128037063711 11.727719641370939
Cr 12.773386640382334 12.109379344769062 15.551059571298921
Cr 12.1672639874262 16.052695311890908 13.278619272370056
Cr 11.827508989812985 9.363096568265146 9.841533713499857
Cr 12.225476207355179 11.600852362868398 8.405897577483161
Cr 9.916858657287401 11.777826124797885 7.989099445785971
Cr 13.221261682481938 9.305417453852527 11.910599064424838
Cr 10.89709420313946 10.152007668635768 12.321711502007279
Cr 10.094689341491385 10.94329031706162 10.189071074366886
Cr 9.596093290884443 8.48709460889796 11.461007881695647
Cr 11.763634745688519 9.536426545430347 14.472719028956057
Cr 13.568375339474663 14.935492622151754 15.103978438454059
