27
Energy = -204.01519745 eV
Cr 10.80552152800521 6.164645837091733 9.384800153107177
Cr 11.750171161579184 8.381095880627973 10.301812481473274
Cr 12.445724514291392 9.909758066394327 8.483758725363643
Cr 10.46014653807021 8.51246959042199 8.142198172077785
Cr 10.81402507345217 9.055130005026385 12.666793399460795
Cr 8.900776077238238 6.39843056036891 8.85799890762485
Cr 9.461776150350035 6.8605349417878205 11.56074387151627
Cr 10.612773939220663 10.905194540906383 7.039728476446832
Cr 12.440632961051508 10.4149836040935 11.258800866269734
Cr 13.20350550057472 11.901687070381819 9.752996164541692
Cr 9.156865378336047 8.353524714781436 6.525285065856424
Cr 13.094290254404372 12.550998462844204 12.593627911796416
Cr 10.714969579234403 10.786599957962368 9.650320277187959
Cr 11.634150648433648 12.47611633409779 7.921986919196914
Cr 12.476122844650762 11.260195119496744 13.777588392402594
Cr 9.357599615691319 8.816191293985655 10.316211108663664
Cr 8.807219090924658 9.62497998048838 12.768284518602144
Cr 7.667796068293936 8.505530358059529 8.484708788861251
Cr 10.55519868643667 11.703497404295907 12.269307032792934
Cr 8.549110198771844 10.631159371579285 8.330546760196828
Cr 11.310340722874425 12.938146679899926 10.648843509149254
Cr 7.156683506467781 7.347373685205897 10.659095950467854
Cr 9.476079181709656 12.889959768909208 8.680102467264083
Cr 8.664994586076814 11.711135072675035 10.732516900340666
Cr 7.275976891846531 9.860801630845884 10.800780899929011
Cr 6.0370556376207745 9.864889516786532 8.938443398969337
Cr 6.937063950687299 11.941540837280693 9.219289166735308
