21
Energy = -161.05260482 eV
Cr 11.918032654203547 11.257627309759721 8.22714479643264
Cr 7.3002564360759665 9.841030127990495 9.753931681451611
Cr 7.885488014225457 11.809704139114789 7.980417941920818
Cr 9.279323908735838 8.029777615687184 8.931573934926593
Cr 10.294099405308136 7.048672639631108 7.081556966834184
Cr 11.663460399320149 10.388224374209289 13.163347836789596
Cr 9.931727474199354 9.612236996046857 11.01731720236813
Cr 10.274758984092944 8.483396780785963 13.012795328955711
Cr 9.74954974482049 11.459703572220647 12.473968290673263
Cr 11.8408712432997 8.837861714552727 8.80432942067388
Cr 11.90378650799474 10.934508596886122 10.705482052017148
Cr 8.213344905130777 9.192066826898447 7.029533779626811
Cr 7.79566188271891 9.966692609346142 12.617366063245491
Cr 9.88461095879767 11.88663191046257 6.623445547562641
Cr 7.630993764377733 11.923189056417359 10.73266922953226
Cr 8.031131643012781 8.149177031013565 11.158762199649521
Cr 12.345751205303685 8.539633419597225 11.232053503896765
Cr 10.605527873449763 9.372110065590435 6.767751821616943
Cr 10.690059275767139 7.085824910157515 10.578703687686918
Cr 9.658517530073741 10.535427126528694 8.892204480830866
Cr 9.95217978227453 12.457970048646585 10.124742395839963
