23
Energy = -173.26685144 eV
Cr 10.998440736696478 13.13950767027291 10.938989329207432
Cr 10.855169412590467 13.472098036912923 8.735985229348337
Cr 9.343593333174612 11.510999264132034 9.800293169527997
Cr 9.734654533457565 11.377109315477686 12.344274617398938
Cr 11.561804505911677 10.476778937108373 11.234924401383498
Cr 12.198633981595888 11.242923728004632 9.151835180717855
Cr 7.4336617761116806 11.609636148907128 8.487094190728696
Cr 9.929569935076874 11.259938447586405 7.619712939956361
Cr 7.408994179223684 10.912604750334006 10.996129730957952
Cr 10.611522424079231 8.660288441099715 12.915734628846533
Cr 10.659151771128794 9.39938611303786 8.958586804398376
Cr 13.245672945561886 8.8337091867849 11.707334699054847
Cr 5.897880652264134 10.360777566626519 9.69193223275408
Cr 13.2792447965445 9.10728083598623 9.613876314542972
Cr 9.198319305104718 9.256465879649623 11.065594015101974
Cr 8.11006187655675 10.544034459515307 6.4831100002990185
Cr 9.35860582770516 8.677159954947976 7.266916235281052
Cr 8.080261349706854 9.442704110422918 8.770454522986217
Cr 11.78577737835548 7.439023468835052 8.576557238374477
Cr 11.454671801538542 7.830412678058955 10.91070199637799
Cr 7.024199606455154 8.318963102717465 10.458707743577584
Cr 9.261495465192265 7.134164224501244 9.473940362702676
Cr 9.141045422686584 6.777471007744234 11.477080501818216
