27
Energy = -205.5708265 eV
Cr 12.619799037233474 14.46126159248727 10.26647699753362
Cr 13.913588660756801 13.122437423685845 9.285006526014806
Cr 13.729371002989465 12.926090118961847 11.94512364937507
Cr 11.156744562723977 12.582345125645935 8.813603804983416
Cr 12.102139976131909 14.8011135223478 12.880294824770868
Cr 14.583659419156906 11.211174402077964 10.686539002341163
Cr 10.529295341493501 13.329844628030207 11.186536337392202
Cr 13.332343483451632 13.920661773457034 14.167103716682877
Cr 12.434929606916501 12.324980172047976 7.075072688461419
Cr 12.05174500490502 11.656932846355435 10.98481017648465
Cr 13.718132994077104 10.918062969203568 13.202735220570565
Cr 13.222608979724281 10.730709173684467 9.048212146406375
Cr 11.47593074940419 12.225319119081007 13.528134102652789
Cr 11.816410842231612 9.771823516214576 6.955348663186859
Cr 10.017133959797464 10.631572994135803 7.346578810270027
Cr 13.252425240144614 9.301882324120909 11.35109668296954
Cr 9.884273010483373 13.935769035618392 13.440594221116182
Cr 9.746883428084312 10.937569406888716 9.82226949721078
Cr 11.345682294081866 9.581354784098286 9.561968398546984
Cr 9.465375418502832 11.649480170093328 12.18650043366712
Cr 12.480992821616994 9.690792711735105 14.299797528528204
Cr 12.94240977418531 11.933929091052123 15.591582858523868
Cr 11.126667384896876 13.914614939839243 15.415788848198082
Cr 10.875388834047692 9.822584601044358 12.038945254026816
Cr 9.06541089314672 12.145771270689185 14.552674876938447
Cr 10.039166382191086 10.201170407146215 14.354085192283812
Cr 11.243984972752033 11.490934360062097 16.070175893102753
