37
Energy = -289.34956418 eV
Cr 7.405991429266786 10.353401575376553 9.590089567653889
Cr 7.827854446044639 9.57927416097907 12.180567147939744
Cr 8.13987137629745 8.687337421139604 7.72100336674403
Cr 9.169179734217439 8.513568818412956 10.125006388129211
Cr 7.644898495556921 10.805610759566015 13.983487162061904
Cr 7.842888914905464 10.555873520338832 6.783356079475943
Cr 9.048563689731512 8.854182446683202 14.549342653773223
Cr 7.933966769815087 12.341848602000837 11.833334059437886
Cr 8.002989936133092 12.247491739914688 8.911735929573844
Cr 10.990570554734816 7.114517792130548 10.345744479164644
Cr 10.727918010923302 7.928097705232174 8.091902498208238
Cr 10.150384192719715 8.766821099774043 12.317780655148127
Cr 9.614319011225467 10.919930323228455 10.650003642053333
Cr 9.68649231345443 11.34940988982999 15.709614576655138
Cr 9.994200770984405 10.464821460321735 8.42352860408453
Cr 10.402680692910213 9.805159398617882 6.1859218045839
Cr 9.874035602656043 11.012626769195005 13.159313092986569
Cr 9.143613667657473 13.040395115920582 14.562452791396854
Cr 11.662700215937987 11.885277819964339 11.737914385070878
Cr 11.278004192089695 9.515080948183208 14.78840140044931
Cr 9.669428170861941 12.361437221852729 7.117873517324469
Cr 10.228791564650592 12.905837207337285 9.724657704196256
Cr 9.775218522782593 13.365915955152214 12.046405659810343
Cr 12.155701884269229 7.756255276010566 12.365502410272473
Cr 12.00244998107095 11.52184219936435 9.33156241840364
Cr 11.692283142298276 9.390474996479949 10.457118178485528
Cr 11.720293300286828 12.721850484854333 14.006483160354186
Cr 12.427122028639616 9.25451857022118 7.910082402066147
Cr 13.140248189574919 7.459097594151299 9.531435685808972
Cr 12.482408726985877 9.985895630095794 12.982187199743212
Cr 11.607854009698258 13.899980763359922 8.223609801836957
Cr 12.213463816488446 13.976778732149732 10.797299284088508
Cr 12.168657586127228 11.428933035101936 7.0930791560693125
Cr 13.931920714757512 8.98148358924535 11.250110332845058
Cr 14.099781447208423 10.13266293416909 9.118805675030346
Cr 13.950986775410085 11.623789156570144 11.371548162423373
Cr 13.87911427790362 13.17716443383734 8.785618228475384
