32
Energy = -235.15794983 eV
Cr 12.38103076987413 9.450097989896403 7.1469196021370545
Cr 14.268181086284166 8.273876931027475 9.49686365931224
Cr 10.26549630904472 10.725932925999928 6.841458875461431
Cr 11.240729065179597 8.359320615289775 8.736382802859152
Cr 13.298974181101782 10.077143987879374 9.15662173177863
Cr 8.51493714506747 11.998608462137147 8.24301756609427
Cr 14.078167576717105 8.489103010736693 12.079118089407247
Cr 8.765618164841166 9.71438052997973 9.015779767819586
Cr 12.122410669179967 8.826253532769424 10.92049871073962
Cr 10.990143905496828 10.894257789062891 9.03059646143192
Cr 9.633400278010798 9.661961492098754 11.172597028087747
Cr 14.130931809487876 10.693317149042436 11.305866574655612
Cr 11.39009506998666 8.858360342791382 13.19759219511831
Cr 13.41297032785331 12.662462050860686 9.878812150919265
Cr 7.215572895800386 10.762270194097182 10.530433679701359
Cr 8.938102391631356 8.604316568297245 13.55197510145987
Cr 9.153307904713298 12.03247184750961 10.424080166606677
Cr 10.536390650241726 13.166376653352849 8.28141498993533
Cr 9.31573540850793 9.494959586101404 15.075132115355958
Cr 11.656055640825128 11.051137025410444 11.38618787623224
Cr 13.027062813412233 13.063785218652287 12.222146738650881
Cr 8.251498674651911 10.863110121337355 12.709413751813901
Cr 11.144717492315356 13.379652817250859 10.457157736590371
Cr 10.504444220083704 10.985714959540184 13.421946055081468
Cr 11.957595940493272 9.94971183932081 15.367580350351501
Cr 13.156253679606717 11.091306547910722 13.66609971685301
Cr 12.69662892140522 15.161707336264767 10.936304241019286
Cr 10.37214982703846 13.089384621437233 12.759663565296002
Cr 13.55331501247501 14.504389003685233 13.87782381120593
Cr 11.910692979753563 12.975381532229507 14.625885840319533
Cr 11.407533487756206 15.100997816200445 12.697922346231698
Cr 9.652205835117506 14.980599635784335 10.729056835426785
