36
Energy = -283.49635348 eV
Cr 11.032897232059987 10.316522285915077 14.234498771662699
Cr 13.449550812415053 10.469033631881988 13.210052836995267
Cr 12.361036770114897 8.02052933866398 13.362743433943782
Cr 8.485615478891079 7.3163262642415114 11.081837054515988
Cr 10.20163290457245 8.250350757975736 12.720152543395898
Cr 11.290496969138593 6.987651041013423 10.9645135501133
Cr 11.878697903098788 12.551139708487778 14.261846483150414
Cr 9.225184878994506 12.203165823381447 13.712047875852132
Cr 9.76801280180877 6.8988571248523245 9.020489073227933
Cr 7.601696503771631 8.292783376272892 8.531131853243163
Cr 11.1029344907251 10.944715864879363 12.02439697006634
Cr 8.440255443761737 9.927714145621513 12.405159094488246
Cr 14.360547616802696 8.149680044436792 11.03704874881574
Cr 13.104112172933434 7.174448435729118 9.20195024965122
Cr 13.160901153832267 12.663124294690572 12.287420491696682
Cr 9.665182758501306 9.267016595230341 10.332684677122696
Cr 12.329161255890453 9.188993638548467 10.984470798274998
Cr 10.549513644437381 13.724016144437195 12.541158949593434
Cr 13.400356583160512 11.16274055615603 10.563201770942383
Cr 6.856191689093161 9.266350320197201 10.57411651042207
Cr 6.788194476503806 12.015015284219153 11.104507415426468
Cr 9.15580242129474 11.899044923167715 11.266052009276482
Cr 13.773002634397399 9.483543240091839 8.60123805202427
Cr 11.298834781852362 8.616891590673658 8.724430833269684
Cr 9.546279094225616 9.494351075721687 7.588441195642368
Cr 13.30907169804504 12.218598743391881 8.445913794113164
Cr 10.908547496338775 11.247071156160231 9.233157003500724
Cr 11.654956512040066 13.238378923209606 10.507083002310674
Cr 8.258528907429747 10.740779281276241 9.372546080069531
Cr 7.04266031996132 10.253373584442366 6.9918702550813565
Cr 11.739361918856172 10.666553509361748 7.048210807942271
Cr 5.636972494788467 10.553992532639834 8.77604950779095
Cr 9.101071438975838 13.371565582146745 9.527708365391
Cr 11.354407312242833 13.233325691332825 7.833641344612715
Cr 9.058651434471905 11.80091233335851 7.118593782960548
Cr 7.007988573391819 12.621140114459756 8.545020953099133
