38
Energy = -300.56199765 eV
Cr 9.461784282318279 8.74557546335598 6.4999880003994654
Cr 7.26905141783134 10.42576254305724 6.55149644598955
Cr 7.74717243149517 7.532122663290129 7.248796043017009
Cr 11.510907462938293 13.033958197670858 6.482674309269164
Cr 11.697898548951688 10.226385423819519 6.556424368752728
Cr 9.581737337868804 11.528984945453095 6.615657698464933
Cr 12.7272898385774 11.78630037084062 8.28736860420209
Cr 6.192365664427072 8.678097510075418 8.63699823405132
Cr 11.494276580242355 7.514620036990506 7.716488031587576
Cr 9.530186076130843 7.266445027099013 9.001353376616434
Cr 8.485718318425727 9.689542536497395 8.634063376562185
Cr 9.04051758168559 14.028065891841978 7.681877898982776
Cr 7.767352933914479 12.113206655397391 8.655960620439767
Cr 10.385587855138075 11.996781783883359 8.787603450583582
Cr 13.252224777745633 9.46047363768845 8.908023123600367
Cr 11.352341084410018 14.271337937190038 8.444232207565115
Cr 10.832507683662325 9.741491593032476 8.632666249389372
Cr 5.831309854289765 10.8076374258747 9.076183560717178
Cr 7.641065525491818 7.407326235308788 10.281070898130993
Cr 11.912632685696938 7.871380173914684 10.24305773581793
Cr 9.375156891442737 13.688848923533131 10.45265552444925
Cr 12.051558671584575 10.603524606725973 10.777770707820851
Cr 9.427758763445057 11.191787123049629 10.73971941106438
Cr 13.533054057799713 8.888198026487645 11.530272098573032
Cr 11.767732995105346 12.970670129726399 10.897349236102928
Cr 7.26151349842095 12.270404606055918 11.057213773161193
Cr 9.757543675199525 9.057302321553406 10.782627123519651
Cr 10.510545807885117 11.89477261618336 12.99096042580403
Cr 7.122234783984833 9.744044046836267 11.015021199093333
Cr 12.492383849649071 6.737254297595502 12.73653981712139
Cr 11.159473579243134 9.107854295618186 12.7970537231889
Cr 12.7064514046848 11.173524243078397 12.889992120934595
Cr 10.245684785233275 6.588593375458383 11.515561619183067
Cr 8.470138041892897 10.423155956173458 12.909302641769802
Cr 12.91065969197691 8.627121176303765 14.232231066437745
Cr 8.644078820185412 7.91948631316884 12.840166964872237
Cr 10.535605852343323 6.989282470527292 14.325310690894407
Cr 10.413314952208838 9.946710075835405 14.699846895962526
