34
Energy = -263.66360446 eV
Cr 13.540676260785785 9.980201822161364 10.797144178421936
Cr 8.940912846441696 12.827926787937615 9.915614556622808
Cr 11.807431423237174 11.146933472958514 16.836065349555874
Cr 9.908773117266806 14.725736245522837 9.010614736721143
Cr 9.608342881752991 11.545221413968576 7.946902796333009
Cr 10.918774605056283 11.200100954025357 10.52335922963373
Cr 9.371630572046834 11.868868525552559 12.277997398395772
Cr 11.587265831808923 8.560529415915225 10.57410642285521
Cr 9.390132420986108 9.74700095194364 11.989001414095618
Cr 12.251446706285263 10.486992201363229 8.701381083763485
Cr 12.544698021180453 12.506698185350729 15.197006314275177
Cr 11.512642285935298 9.187678249572443 16.054873008052294
Cr 7.554296433024757 11.08401057027522 10.579154275683853
Cr 14.03093100444995 12.136586857359244 8.771723024799142
Cr 10.824024368015538 8.113395264966135 13.59944638990705
Cr 15.255075725481387 9.432929681113833 12.893957484383932
Cr 10.961037441914552 13.986098693362035 11.196444584416016
Cr 11.360947425569274 12.918759857170752 8.849359115419999
Cr 9.51664551426767 9.738251782746861 9.269454855686462
Cr 10.26277578137326 13.64642606286127 13.716354506221013
Cr 12.954485477389698 12.288379585857902 10.69511914692238
Cr 13.01585408622087 14.435484440653424 12.497549742711216
Cr 13.026657280987097 10.122414617523177 14.45269659949659
Cr 11.997945956123688 12.4074498114544 12.961337850707029
Cr 11.138370327323509 8.317948979354107 8.280065857336519
Cr 6.98625502712948 12.625956584448744 11.815886865085144
Cr 13.539785435103045 8.35689662537941 12.831520106548481
Cr 11.783172704591957 10.20554267968989 12.504604837107216
Cr 14.209349422452773 11.466742858272507 12.91238929368164
Cr 10.428614196077538 10.708047432849561 14.503546629782504
Cr 12.927623429618453 14.675573831294212 9.566795860353292
Cr 12.071845947477103 11.794276950803825 6.780551819818904
Cr 8.582558841830648 14.332083230685404 11.57581380639697
Cr 10.465697100008612 10.031821099947475 6.696578296474692
