35
Energy = -273.88221809 eV
Cr 13.27465950513431 9.258397347365584 11.310593983440535
Cr 9.796950449435823 14.288901379727548 13.610921950373461
Cr 11.826009514778518 12.166751845470799 9.254854500038686
Cr 12.637291197052752 9.978565359939461 9.046051560702118
Cr 12.169743274679147 14.197356738087082 15.388166195156941
Cr 12.91726668026869 17.084274010915642 11.810644540133579
Cr 13.997287435143065 10.740028635240586 13.621508614431125
Cr 12.171141425536751 15.132474818187797 13.16191056794116
Cr 10.450347934583691 13.125521782054774 11.365044212711023
Cr 12.83328332873359 11.546371598138835 11.389269932263371
Cr 14.127034049545331 13.322015382072365 13.417435821455213
Cr 10.728902077769423 10.383356236183209 10.98731951680593
Cr 10.308941007324973 12.460395211110464 15.034798445537538
Cr 10.792000164304898 15.433675625328046 11.297451404854897
Cr 13.516120841279731 8.158615376616762 13.585965034113151
Cr 11.253463688630328 8.176868980672253 10.544315394732184
Cr 9.356702822935725 11.515516618211967 13.047501932856758
Cr 14.413369710417607 11.542742128225592 9.608492583304123
Cr 13.14602193654935 9.102270375060796 15.706606079777766
Cr 9.670353337464265 8.838560642737441 12.67334381882511
Cr 15.641072499774348 14.05057026083083 10.016729692696916
Cr 11.838744072741223 12.641159284435012 13.24910548830322
Cr 10.829205390421876 14.090176407182904 8.956804399519406
Cr 14.715641325948157 14.984955269333941 12.228450858757293
Cr 11.480040845867858 7.353850375887909 12.807155087666846
Cr 13.691746416351679 13.655803180227768 8.56021176811608
Cr 13.05119952614952 11.88788069742917 15.32148323242993
Cr 11.056890449268966 8.02787280158916 15.035852275580908
Cr 12.12529092654173 16.225907650205112 9.487471109531365
Cr 15.322995856184455 12.339230738283 11.653700447511936
Cr 14.505983869737314 16.059984546017702 9.739051012786529
Cr 11.250347929736629 10.54968633588968 16.135435875497066
Cr 9.2612342035026 9.741396167982378 14.915540870513986
Cr 11.64642451709289 10.10725794565168 13.57649348124485
Cr 13.03233381832137 14.050323696947691 10.898138534613732
