36
Energy = -280.58969395 eV
Cr 10.399531230426248 12.002482276864352 5.134273145728494
Cr 7.996896773084593 8.329690017825625 5.794428973160597
Cr 7.576530161579304 11.413578414206933 5.357406551449114
Cr 10.585780378633446 7.628600756250091 5.025124145509047
Cr 9.768121000902308 10.121576833370831 5.077898472582439
Cr 9.200980560032423 6.122636542564827 7.246240686667259
Cr 8.672045290956717 12.786576816285788 6.828477434395915
Cr 5.858625652994375 9.239855679093061 7.333836103949901
Cr 6.58020358309934 6.786174992235917 7.527474031607617
Cr 12.15423206080358 9.698485473992287 6.301289089670289
Cr 7.9874517991289355 10.290905785047158 7.19768572300796
Cr 6.316134956301059 11.986688843283558 7.821659382029115
Cr 10.058044560461497 8.531273893460215 7.047723518135894
Cr 9.671787534962062 4.628960920916002 9.414312185806839
Cr 10.306054873858974 10.993384430988835 7.613455310271662
Cr 11.901678043198615 7.190978409432254 7.561917159626571
Cr 7.992428961373579 8.146098080602798 8.471737777605409
Cr 8.46843015283156 12.007480792441546 9.279138502202567
Cr 10.969439948844089 11.122298395111647 10.304831271832718
Cr 12.389631081635926 7.102492054478795 10.12624108878928
Cr 11.865212248218008 9.188499436865266 8.912021656546036
Cr 5.986374377946496 11.88436428849335 10.685726949111075
Cr 6.691707385251597 10.04563172900905 9.600477453584825
Cr 10.159283496260224 7.127040779960533 9.24993088856582
Cr 8.113245387797896 7.777775012874672 10.989794879490265
Cr 5.750646253689736 7.859497444542109 9.73603419930399
Cr 9.396642117470336 9.659117271742275 9.477719649388515
Cr 10.126392475153907 6.021352747033518 11.225161187635473
Cr 7.802100841532444 5.77786903558373 9.652519448503481
Cr 6.980515905490245 9.586341720381705 12.070443309791294
Cr 10.87533627650468 8.458194261695834 11.34184328358012
Cr 8.384898288287872 11.59658503717121 11.184247507397195
Cr 9.628866289238022 9.801573341959616 12.26966541359733
Cr 8.854684777030892 7.408297193531961 13.132981175223195
Cr 6.50192926547607 6.545105876892451 12.093125553196419
Cr 8.14685521518143 5.251254619447023 12.031876096693843
