34
Energy = -265.25207723 eV
Cr 13.934067796514494 11.934207515752686 17.78125919688763
Cr 11.568853676356396 11.472449546576772 10.208603132792641
Cr 12.23553411464168 13.485960081926116 8.55761981159678
Cr 13.067277317368175 9.9657605232653 11.962194031704863
Cr 8.444239215894425 13.882334962994094 9.940672234108561
Cr 10.182049266575394 15.630310620407224 12.591792091957384
Cr 9.333030891274019 16.01895883798939 10.475290301331448
Cr 11.5459924614627 9.816112284963495 13.784621426956843
Cr 10.203523816281622 14.520099521678896 8.306676296540061
Cr 16.52937552131023 11.535412185182782 13.870158067886418
Cr 10.675651141474974 9.59392846589796 11.215264569785306
Cr 14.156192370982557 11.107177898049827 14.271750770025657
Cr 14.872629567615276 13.83781797116897 13.068611475423678
Cr 14.733718300895841 12.845212308962134 15.81366888922202
Cr 12.63293127154043 12.239444117724343 12.509514219131242
Cr 13.049075107744367 13.881821015685695 14.45111864886377
Cr 13.813201547135204 11.47626167590338 10.006123157212368
Cr 8.991045248277414 11.586326447959305 10.37793743886431
Cr 8.550688932928807 13.783404630387778 12.29096441228549
Cr 15.530097988100488 10.260395397651086 16.297556066992982
Cr 13.491158727420531 13.745597930247753 10.896246071587607
Cr 12.517155180132466 15.162368778264698 12.355261385089712
Cr 10.176197001544569 11.721814502983657 12.529745840745523
Cr 15.25301312314611 11.87545896010948 11.897896589289266
Cr 10.697653773047444 13.70224633934403 13.875991394784835
Cr 15.465931611447727 9.638636022009416 12.006156713837768
Cr 16.234411383289405 9.22624010122486 14.254444688300204
Cr 9.805990170960282 12.094822883648513 8.285132516675707
Cr 11.44742733511727 11.773414929632121 14.898402046294494
Cr 12.114583150947633 13.252731003726703 16.62691622653992
Cr 10.78589253255112 13.675680186423145 10.796293238038382
Cr 12.835471502796063 10.586019707387326 16.240738758908833
Cr 14.009539525796072 8.742934156551126 14.207192451271379
Cr 11.644804275217853 15.808726869712324 10.145500218594846
