36
Energy = -278.5534743 eV
Cr 9.81020580084327 13.459824258027162 9.86861441915879
Cr 7.302365200322614 11.072288691471904 7.037974970480116
Cr 13.52138214325465 7.923897083923063 9.291964413700985
Cr 10.39351586203405 9.073747305094033 15.265662432526549
Cr 8.567720886024466 10.254903146562807 15.36656081398349
Cr 6.9919215111112285 9.699039368144101 8.886516550389643
Cr 11.609187320507973 12.161408916658855 9.94649273097525
Cr 11.158990349626709 7.692843013185416 10.425268011636563
Cr 13.394883476945513 8.012058672220045 11.9013672701449
Cr 9.073273774416565 9.218430688573093 12.935310610058837
Cr 7.398079005580695 10.137075990296092 11.340746991749176
Cr 13.200634835649053 13.276338816858436 8.993785308232296
Cr 11.018915152429944 13.38888210696887 7.835544884736381
Cr 14.699777901819523 9.901636772139291 11.75032164469573
Cr 12.341831567689763 12.374713716145111 14.05484798704013
Cr 8.723051473509544 13.080130677314315 7.473926353147965
Cr 10.998081692830768 9.016595820784069 8.427099292279987
Cr 11.93009627378308 10.896072926928086 16.051678315373554
Cr 14.047521132351756 12.15289484766461 10.691437113063438
Cr 11.103257808961693 9.440166676448536 11.906391923400612
Cr 11.677762571325088 14.656877776132324 10.08486768071398
Cr 12.505427880174832 11.391909598626725 12.189571100095854
Cr 12.795492857893992 9.738492800116202 14.03975015855327
Cr 14.153617967194947 10.878673811869282 8.386030772957476
Cr 11.531914148913522 7.786341240901671 13.605734683147004
Cr 12.769932759399078 9.934569700756853 9.947768504435931
Cr 7.827721969468484 11.914523987633213 9.814933851020653
Cr 11.918628658083508 11.285724209644338 7.65780512218333
Cr 12.737585347692223 13.817747048936052 11.651444275561884
Cr 9.64498152730242 11.238275626871824 11.32160612090001
Cr 8.41574743044581 11.377777044018197 13.057823925311684
Cr 9.664348799965245 11.790771332671726 6.473600947206077
Cr 10.758433219213446 13.220097500915132 12.215049342158702
Cr 8.989661133364217 9.287523741489597 10.304155262781167
Cr 10.527768153243164 11.190070859750628 13.845906828963672
Cr 9.470645639807529 10.932037457437708 8.62680262041445
