30
Energy = -231.49846792 eV
Cr 8.317774481536533 9.631587138449294 6.623813342999914
Cr 10.343776108801574 10.972050025684556 6.619637348697032
Cr 10.89137434851897 9.09988120945155 7.34830108499558
Cr 8.648601093685507 12.077706439205295 7.692306564063041
Cr 9.1379665456222 7.648340356361866 7.918651470799484
Cr 6.9816142487706765 10.511456152579669 7.713854139683318
Cr 12.342057370623417 11.450420550344145 7.994877014356022
Cr 9.32435662772377 10.161280975312218 8.833683833468148
Cr 10.630280908982947 12.124630100659475 9.189696240992268
Cr 7.534441521460088 8.705581495840015 8.99004124682474
Cr 12.655478656126201 13.64171785796338 9.372359948917179
Cr 11.916770640782401 7.2486362375233275 8.692644963697951
Cr 8.811566851162667 13.857033315952679 9.938796355213062
Cr 12.04900389182345 9.899326954873262 9.330918474574622
Cr 7.640829646103772 11.988475060666532 9.888265588581525
Cr 10.132410662904983 8.107601728123203 9.933704032257385
Cr 12.100023417324028 8.065171471797537 11.382247304447443
Cr 12.964034092451941 11.940063831132603 10.599911676675115
Cr 8.503853499490322 6.491090571347557 10.698754758297435
Cr 7.021857168166138 8.04007680236283 11.462133190565154
Cr 10.70214337913732 10.536642832112218 11.061230728964853
Cr 13.252788521732718 9.890265184313922 11.809274213687635
Cr 8.404491280444944 10.045728918684592 11.06670802990609
Cr 9.150884455316628 12.238017299791627 12.104684533588163
Cr 10.954135871786178 7.029840241374252 13.450454257837267
Cr 10.925873417312129 13.222191556504168 11.489838294623627
Cr 9.56990785817754 8.543527775994457 12.224230267368306
Cr 11.652993158348968 8.89638611441189 13.826562119130726
Cr 11.675974904644637 11.442879015586112 13.106954066404258
Cr 9.662092863617264 10.391750278175698 13.53482240096272
