38
Energy = -302.407247 eV
Cr 10.529171859293246 6.970959956785725 5.315730245112285
Cr 7.345722438802894 10.167470082219388 5.122143968980364
Cr 8.58271153343761 6.35063472348071 6.670702652133312
Cr 7.857325604009275 7.495331196993588 4.6471683066033584
Cr 9.30629510826018 8.948530267824946 5.991905986972385
Cr 5.044782010141963 8.36018420009452 4.9306735134722945
Cr 10.4667043525889 5.008818563104502 7.462859947255161
Cr 5.334566509000426 10.301116853104704 7.111592983138203
Cr 6.129306762744755 5.9566582705100135 6.2227406420162
Cr 9.73822864724934 11.315345269973713 6.244979093544818
Cr 11.680912593449708 9.299191637448143 6.389172961978915
Cr 12.942224221849099 6.702780874475058 7.14889453855311
Cr 10.856203478005156 7.440079916742849 7.737301956028615
Cr 7.76181446343226 10.671441216618474 7.534580487376815
Cr 6.759322527437762 8.342787911361388 6.661661124676765
Cr 7.153995324796177 12.704940060655897 6.77277757451945
Cr 7.743514808807503 4.43810243084115 8.005940062792833
Cr 4.609266272217268 7.654680995327429 7.777376893084762
Cr 10.374909939837666 10.111440563199931 8.263360601566687
Cr 8.383883760410944 10.109733086373103 10.10115902906258
Cr 6.7022461057981255 6.584082992471739 8.595599693169182
Cr 4.966111990899845 4.879483442445073 8.756849480849999
Cr 9.163777034097043 12.15553707514419 8.971693854849859
Cr 6.045274259170452 9.1505492926881 9.161071186781056
Cr 6.472873262466218 11.55017424866318 9.481324046371691
Cr 12.314486768634868 8.929685059887072 9.107560096227228
Cr 8.475026629772742 8.289308254597808 8.441177883659176
Cr 11.597176652911353 6.225530783948647 9.770899948398025
Cr 8.333246868368557 11.911029430273528 11.755421331743618
Cr 9.195356781542559 5.907992460290131 9.34558900013529
Cr 5.2638694154515715 7.244657728237959 10.494309701387158
Cr 10.301380806199361 8.229334236891043 10.31614582995469
Cr 7.170083325813685 5.237020128312141 10.616854365039972
Cr 10.7201906525137 10.609321901901328 10.672478122673898
Cr 7.6577500553513635 7.631038133565345 10.883308383735136
Cr 6.428685054504404 9.631920437711043 11.539395720924087
Cr 9.54708313613238 6.367437855659337 11.714264835802386
Cr 9.057784711135657 9.128934186713288 12.276599675964288
