33
Energy = -258.60438166 eV
Cr 6.373323623266092 9.183950027911575 9.490270990610819
Cr 7.40180582016306 7.111286997506493 8.783926151215367
Cr 6.876208538160215 8.814981260967674 6.805573032801998
Cr 6.954182241901809 7.179584857914674 11.22199164210646
Cr 6.090022668190675 10.875634328673309 7.757642890842046
Cr 7.396204622987886 9.89030416807809 11.941363999031351
Cr 7.6036140438037645 11.825356251063072 6.04183773332153
Cr 6.536297238852386 11.985291905750525 9.826637769518882
Cr 8.825181891102494 7.473780751132864 12.404495216663733
Cr 8.824686477086987 9.614490468521458 6.015186816818163
Cr 8.726996597585659 8.998213499966392 10.19302352661789
Cr 9.325721842511909 8.124230851988411 7.954632280417583
Cr 9.550770362758074 6.615253121688842 10.301241712364323
Cr 8.477285839162665 10.683531026086314 8.348658383499712
Cr 9.372527092063498 10.124448508405287 12.732180537912436
Cr 7.805035112160357 13.113301005994254 8.26256456552924
Cr 11.498798903438376 6.727656579206949 11.884127732867276
Cr 10.672529600762235 8.09811729573871 13.918854019104172
Cr 8.636836938066484 11.652320296027588 10.579578238718433
Cr 11.349859902652746 7.928462246995806 9.129473141576913
Cr 9.966290843351446 11.935226632416256 6.9158426214141135
Cr 10.856868484923675 10.575661921707919 9.302096946137313
Cr 10.170999945820476 12.875687825176382 9.04007580640637
Cr 10.907906868331896 8.907501582442672 11.296872135059655
Cr 11.125462990143225 9.90316122244446 7.011329263173114
Cr 12.54703092712745 11.987441542813514 7.740960608822042
Cr 10.898327776036831 11.658500135311618 11.585900888838788
Cr 11.972556388048647 10.165008858574312 13.311894514915194
Cr 13.134367351755232 8.164402149417361 12.733602643381047
Cr 13.479531077261868 8.09712555441262 10.71540625672157
Cr 12.83069137144339 12.304976145158593 9.708561092851316
Cr 13.201333242883736 9.791660931817985 8.666382751988078
Cr 12.99574083646949 10.087726207981262 10.93478679291558
