31
Energy = -235.87097208 eV
Cr 11.892953252873221 8.715523138839545 6.372505108373692
Cr 9.826450789649828 8.612670248189575 6.270625850263221
Cr 11.546743400250104 10.952638385093044 6.081997843740421
Cr 10.576146247548397 7.577250287416499 8.47703776242088
Cr 13.29410810782707 10.748621065765628 7.465516215615982
Cr 9.681905613324112 12.585880731755871 7.519715545152226
Cr 12.879051896653346 8.63492606098295 8.849496143275084
Cr 10.780024983504374 10.142277459123566 8.204712032099339
Cr 8.55307162404818 10.555073275676902 7.591390113617807
Cr 8.44582844800556 8.500346893182302 8.755219027423566
Cr 12.253395274592288 12.499379420433867 8.710235279870476
Cr 10.600480868557598 8.97707134872657 10.470665745464265
Cr 10.148957847363084 11.680371346198346 9.650473006275766
Cr 12.512780789375054 10.632550111066488 10.02274404148293
Cr 12.91659580321876 9.204785668449597 11.767524240513689
Cr 6.239094320776265 9.961043480885627 9.217008522781835
Cr 8.40217553333135 10.099591739550148 10.742080354638041
Cr 13.068074254397168 11.987335814170452 12.054042681377146
Cr 11.720054650362727 13.013717320919694 11.385163617478788
Cr 7.590853184968832 11.967834515447842 9.316245137825389
Cr 8.884910010879118 7.3516252987264625 10.82619471312352
Cr 10.751021489023094 10.661327625475392 12.034234115324388
Cr 6.715386317759713 8.297338895780316 10.827457638717183
Cr 9.044290982279229 12.43104709247641 11.67523457115978
Cr 6.574811995575866 10.9159098889957 11.823651536020543
Cr 12.281970971580535 10.157883393948568 14.128533494710176
Cr 11.135290218355939 7.960324398505842 12.546181910214635
Cr 10.83211063507242 12.404483545611791 13.8162396218192
Cr 8.851692979034842 8.921755048434216 12.688049821396303
Cr 8.590406145124756 11.236456085866335 13.507689587812743
Cr 10.585197671529862 9.694854180808052 14.50918006207458
