39
Energy = -305.92301995 eV
Cr 8.507614448635291 10.40545320331109 4.342313188807699
Cr 8.690218041806311 7.949528132160052 5.166002959256694
Cr 6.926022549717567 5.827306515540718 5.004165166300136
Cr 6.156257420370246 8.758338302348257 4.721815742611562
Cr 10.20771920792364 9.767630821796002 5.93425913971423
Cr 8.700493237763826 5.805280676380908 6.745616597606974
Cr 7.540576753545166 10.018212020466786 6.149156553137083
Cr 11.010690730459256 7.229201844986814 6.534510804929546
Cr 6.554094447738855 7.5237710677108165 6.750138827755432
Cr 6.9546053040263285 11.514270162788542 8.223829706092758
Cr 9.080706718159215 11.936357977843162 6.350350030692532
Cr 11.32763337061818 8.901810332769644 8.369743359815692
Cr 4.419134017002555 6.811181270049637 6.297071986785725
Cr 6.465336080444274 5.080967431627875 7.612316056253691
Cr 11.485489944738417 11.103405962148162 7.673392090225625
Cr 5.2418700349027665 9.54405856645096 7.202595192702578
Cr 9.282998126534828 10.590408611765394 8.242125022454472
Cr 11.296244612779857 4.884381481303027 7.792704894246184
Cr 8.983603963072891 8.243559569156892 7.499504591630721
Cr 6.996358784544505 9.194333684583706 8.681236510941549
Cr 12.81219863276831 6.6965612286247795 8.53001079961001
Cr 5.383694800754971 7.375343755431317 9.113926243158273
Cr 10.192860202453934 6.5103658734441705 8.88137629840468
Cr 7.795562015709573 6.779168856508624 8.892954498333527
Cr 8.838211028037087 4.485427851997944 8.905028657078464
Cr 9.1576277016649 12.596954104895609 9.521097416676646
Cr 9.230653771535561 8.54683043367295 9.953413353502741
Cr 5.456112951861958 10.082160010798178 10.143626361473176
Cr 6.76087520058862 5.437716360343529 10.268768516963279
Cr 11.414748228710453 4.815585966696724 10.217266310709986
Cr 8.04799514273181 10.624197416566384 10.54811888879541
Cr 10.710856958981037 10.43082861533746 10.302199797434788
Cr 6.695506147341908 12.263399179215526 10.661693216520085
Cr 11.44770895252067 7.726681858718764 10.622685713473365
Cr 6.969751870927629 8.270102143383715 11.206065058354739
Cr 8.942980933776841 6.326923673967892 11.175685693981789
Cr 9.251914655951806 9.034596584386637 12.209699352854713
Cr 9.241406937674817 11.513550914732635 11.991465248730465
Cr 6.844149294641316 10.416630759507134 12.584553375400692
