34
Energy = -194.42197823 eV
Cr 9.901411596378214 11.631286128631107 9.205187915813765
Cr 13.25082867342724 10.126859464106847 14.622418420520251
Cr 15.035510034626968 13.771864706997892 14.39988661089555
Cr 10.66683372160867 13.227129109389002 14.831061172100663
Cr 9.232977832185105 9.687480044389803 10.178061188168282
Cr 12.591052100706184 12.524583942054562 11.761031585213024
Cr 13.406286953871202 12.346579942756543 15.4520529892625
Cr 11.622505674752947 11.477408289854344 13.694359993388563
Cr 17.281429498039564 14.962903725618935 11.122320004905385
Cr 13.71217471535206 15.797317708555623 13.141392376219697
Cr 8.973425474085463 12.985171503527686 10.92214404108858
Cr 10.591958227546117 13.658320972035982 12.475801586162953
Cr 12.376894520175275 11.128022548373865 9.932822874874528
Cr 11.523269501095479 11.179727308689175 15.989935170570687
Cr 11.310031958222298 15.521685442419233 13.582112393210078
Cr 14.584701687363932 11.591344441045349 10.941063891978924
Cr 9.226416782764916 11.908581133502514 13.379046361614156
Cr 13.003953925657434 10.225095689869962 12.142977967185526
Cr 13.5549306981724 13.60848304811989 9.875567190886015
Cr 9.422364568680342 9.605400248591904 12.63263656772717
Cr 14.479599940270651 13.80992071575989 12.100545835783244
Cr 9.831154878440824 10.24259994757661 14.85062504035364
Cr 11.462774746213801 9.090397819999387 13.597437932307882
Cr 12.363363024901588 14.959786879477392 11.44831699416142
Cr 11.243404048112168 9.109978605874105 11.174809738215957
Cr 16.04405581728014 15.368368048681516 12.941591429550181
Cr 12.738955389983369 13.798967917384669 13.848882803507792
Cr 14.94524375957448 15.578799316567803 10.84144788771392
Cr 16.55419455567496 13.108788759008448 12.52812645017817
Cr 15.870347122242961 13.465107389003995 10.252150433583687
Cr 8.01761823688341 11.065625600740514 11.48702483002053
Cr 10.520357753263292 11.31032935035126 11.439614806739831
Cr 14.40918904993506 11.757167129965714 13.355757806779343
Cr 11.230030343356848 13.295635876397881 10.041464556265591
