36
Energy = -284.30453728 eV
Cr 7.975895425653876 9.81106760033181 13.989017181281637
Cr 7.458240463539727 11.531692281543158 12.359462481098328
Cr 11.174499308405764 10.730222813154509 9.795056309456347
Cr 6.532176894817804 8.740231689760366 8.639459844647577
Cr 9.608910873696574 13.533824994175728 8.872932694784588
Cr 10.676921189030294 9.194958845001793 7.814853720674224
Cr 9.557932315542136 9.72545265667173 11.686954880124427
Cr 8.41828199842909 9.520786136838257 6.4625978799814074
Cr 7.501492143628684 11.663605467661755 7.971809290678789
Cr 12.777802994371553 6.703256810155764 10.348313890391804
Cr 13.407686505841363 11.290725129303206 10.300008146652367
Cr 12.415972960738204 11.158267175068021 7.630891542718327
Cr 12.103693529081534 9.058353615062748 11.425537511438536
Cr 6.35274943333005 11.056693844844673 9.81111696042903
Cr 13.044438050780949 8.818620244894682 9.042849971640097
Cr 8.86243239224153 11.49883797994559 10.330672628765003
Cr 12.744119493373448 8.788877859768377 6.709558170454458
Cr 12.0683207429682 13.062833602595362 8.777253613264177
Cr 8.44953893571966 7.299776750601317 10.546545708224977
Cr 6.929289693913729 13.354396651482329 10.461986832862717
Cr 10.656854410642302 8.108734769380897 9.796126553019652
Cr 10.978858098344212 10.224687628001965 5.402463876712346
Cr 7.08230733964761 9.4345974167662 11.393653872108366
Cr 9.876083430891216 11.45153462954918 7.517848614819745
Cr 8.91232819467038 7.141030141715798 7.925459909435837
Cr 10.022959542116817 5.58222454310723 9.664436194389836
Cr 10.631841327568907 8.990832786296782 13.664370523119644
Cr 10.1320192279141 7.79232487601395 5.966775476112621
Cr 11.640853406032475 6.653089113513295 8.05696945693113
Cr 10.775233108869593 6.820436888945984 11.849911531665532
Cr 11.96788628390439 10.997433041207803 12.496410757498241
Cr 9.730848700807407 11.716235685280632 12.966256716303588
Cr 8.484205811504241 7.634093446131232 12.954627327041369
Cr 9.130771759846706 13.629031577455923 11.359541193441526
Cr 8.52017819635174 9.469313771836052 9.048819511350782
Cr 11.32418816805496 12.850119541075633 11.0082641726392
