37
Energy = -289.26958667 eV
Cr 7.684805124967986 10.851190011242062 12.890801720230375
Cr 11.115104825466558 7.951000628307919 13.929037866212015
Cr 10.01776068640456 9.528518805663824 9.605820120041315
Cr 9.141135237226269 10.91730258290298 7.834855073874066
Cr 13.582546941405528 9.197683450160328 7.861722924313546
Cr 8.970226672222047 8.952795048538468 14.120708467198687
Cr 12.453348937155916 13.005081580999258 7.902968504747824
Cr 10.228178100346552 12.448513879887013 9.402820488519405
Cr 6.721857470384358 12.363738237819693 11.13510366502362
Cr 9.88121294753541 9.298741492265115 12.087984748254877
Cr 11.142863571718868 11.287824454636803 11.350733047613755
Cr 8.356971387237847 13.701782723420976 10.030600707226217
Cr 8.942004548508974 7.472194865961887 10.102905591793363
Cr 15.05746574845442 8.599904757760026 10.166032905138993
Cr 12.152561279551708 10.065029058034911 13.131041126653603
Cr 11.07635049352555 13.836652696205386 10.886809414931621
Cr 7.379573836259414 9.491956696556047 9.046237505111318
Cr 11.055789843648668 12.19717471350372 6.789728677268908
Cr 11.01590975352339 7.402114064654995 11.364661792062911
Cr 10.297401285012283 14.507723629019855 8.09163237434792
Cr 8.896215794075264 7.2222513170126446 12.781117336487565
Cr 12.647851061969822 9.438355711430626 10.511145813539635
Cr 11.739475166603802 10.760216353239056 8.554592698240802
Cr 13.662650386957083 7.108149364131532 9.714881685457176
Cr 9.423065676656588 12.570173205554799 12.103070422338199
Cr 14.080881216216783 10.82461293527896 11.692047298579586
Cr 8.342928370464168 11.072915552505126 10.461528924959575
Cr 11.51627792761981 7.964664962630666 8.880216341082754
Cr 12.7383217489449 12.36687620118313 10.28666165835315
Cr 12.29732362071562 12.465589418461501 12.784824680675131
Cr 6.641233876041731 11.860025206628626 8.748728719880127
Cr 5.959962303366412 10.180599090012729 10.739183506431146
Cr 14.33667355674236 10.954683147265586 8.911734536985396
Cr 10.349462292283933 11.154815788282537 13.891078403086384
Cr 8.444283467028926 13.093834359223385 7.589087763590783
Cr 7.689703806054142 8.862093618583456 11.686756645172126
Cr 13.280866820578693 7.931971148369949 12.306415681642068
