33
Energy = -258.52276098 eV
Cr 11.473329982525721 10.975599649089055 14.115932296676766
Cr 8.909608884974885 10.881486892899622 14.598480153942626
Cr 10.763459992435417 8.748108355186893 13.916613971209282
Cr 7.825019654714822 12.46168431345432 12.916348174422685
Cr 9.717906562094077 13.061785937157916 14.850113945427307
Cr 12.838309973580738 11.834797910758603 12.085932162256736
Cr 14.38718314660135 13.096474300639134 10.049094292964886
Cr 9.330086242091927 10.06409876999428 12.432789686496882
Cr 13.141931874083717 11.049708690371858 9.780471235235586
Cr 8.208508964232065 11.491732126388301 10.735486464682227
Cr 11.957028723994084 13.730137029265888 10.732857912065617
Cr 10.061867805570815 7.40055268356345 12.096471028781867
Cr 10.544563676700301 11.424254922890825 10.188699942596882
Cr 14.073125251679564 8.830054664910723 10.491566442868283
Cr 13.586970665531503 9.667167757473765 13.488371999599899
Cr 12.559505170134054 7.323224887720503 12.32228664400371
Cr 14.999511609557869 10.866747491526615 11.74255142065588
Cr 12.005530610009826 7.4162723482835275 10.054234427388854
Cr 10.25174374438785 12.234910216463117 12.500435430788047
Cr 9.683446888082969 8.976221228353172 10.406529106491375
Cr 12.094533144150791 12.076492622436291 8.22288338159139
Cr 12.629983782062702 14.799671374854013 8.586333125420373
Cr 10.71329881690323 15.794687478983716 10.468247278520119
Cr 11.884931508767357 9.527657650411214 11.743336951389843
Cr 10.002791408970307 14.837878937205437 13.10668381030389
Cr 14.425964478439019 13.630806171931178 12.237571998779906
Cr 14.979203593766108 7.990663285209226 12.512237685432666
Cr 13.79653195418058 15.656815841671477 10.222532405522895
Cr 12.776133334616423 15.438347646773105 12.389686688906723
Cr 9.175759522413093 13.85382906491393 10.981564897602892
Cr 9.963303500740647 13.448523951162054 8.954253482697034
Cr 11.790333266882921 9.395682561729403 8.93919604898116
Cr 12.082151470051222 13.658643529329929 13.605943638489926
