31
Energy = -241.15472374 eV
Cr 14.484673390246787 15.145775035220936 15.397174141397432
Cr 14.085344996086858 13.570893383311597 13.231080547209745
Cr 12.234977710540694 12.981859073458365 11.39497747112082
Cr 14.422298049224707 16.062499143682075 13.339597459283016
Cr 9.685175653201027 10.86222660504019 9.855539953252343
Cr 8.058967790978727 10.70544865617445 13.452968076570128
Cr 9.888522142807084 9.243013873845106 14.031063698494718
Cr 14.178842685029098 14.54386556224415 11.047063754977952
Cr 12.088240724507964 15.283864141725129 12.362743470428857
Cr 11.461608837382816 12.21462075947691 8.858806610066079
Cr 12.126256822038199 15.262102596234138 14.682555900135473
Cr 9.336811193338027 9.649674913423297 11.564532187364371
Cr 10.473373666003969 11.422447473581332 12.425772624787191
Cr 13.588311466904312 12.561854544887545 9.349669035528555
Cr 13.577736463697201 12.788366575133434 15.381062454364951
Cr 13.806427332956519 10.280362608964868 8.977970810690172
Cr 13.159178161513886 11.150127662191537 12.978404797100094
Cr 12.023068476882264 10.553855050511636 10.65931168387994
Cr 14.596497458419691 11.727055183072123 11.272992597490527
Cr 14.219730972770654 9.254192949058872 11.274484267438618
Cr 11.937107636042155 9.037429712010548 12.404500149154313
Cr 9.949664185022458 14.101864546154466 12.884195353010156
Cr 10.677890654509072 8.240835648581928 10.43516966306907
Cr 8.602483990193171 12.374370290335222 11.2926571274146
Cr 11.690458349743636 9.699699739970454 8.194904101047024
Cr 12.736830433340868 8.02612270577635 9.92793997032759
Cr 11.58839785000416 13.083185557295998 13.951765271081436
Cr 9.32510622749509 12.039157342883154 14.595166943951416
Cr 11.489321410216062 10.692880560888472 14.720473038508633
Cr 10.293252936923993 13.568724068788061 10.379842335366027
Cr 12.286894056710059 14.867324913032423 9.57619080696706
