34
Energy = -264.55086749 eV
Cr 16.137930442932106 12.152934637735422 17.552391873321703
Cr 12.176366158688376 12.254016490890406 15.527937351617794
Cr 10.167170982955943 14.144944444707386 9.123685767349047
Cr 15.745444841188196 13.721455003411688 15.59688981929094
Cr 12.657746250995833 15.287208025585622 9.649694160359905
Cr 9.43784342230948 14.812238965055302 12.365732447840854
Cr 8.032227674310917 14.671778854229368 10.314336965718095
Cr 11.141851003634098 13.343584826458862 11.193779612607397
Cr 10.951751275841124 10.200452493876101 13.87557478976276
Cr 15.102192879028248 11.768532049931197 9.84580222996394
Cr 12.8335524728347 11.479058408949662 10.818238786857828
Cr 14.501613880930648 12.02063835087546 14.821558506015249
Cr 12.243889530369387 15.513012598025824 12.271426162732011
Cr 10.514895455184538 15.90725075059297 10.59747232759053
Cr 8.833514359432089 12.567791906732957 10.912674982472343
Cr 15.166999864587583 12.527788565621934 12.22825795166791
Cr 12.471915853394762 12.00623854857001 13.122282584560429
Cr 9.658802898307421 12.47777139863837 13.211116455271405
Cr 14.77463101069155 10.403421798364388 12.477301956947795
Cr 12.662261008446077 9.326505203004267 12.497732706684126
Cr 13.299146572789315 14.394645892057573 15.92516129889652
Cr 13.390413648766684 9.871865853066675 14.725825468604889
Cr 13.682447554708139 10.627233048373173 16.968015929657465
Cr 13.63646712733582 13.970064799794622 13.602136639409819
Cr 15.931666572288151 10.562448628837673 15.77626348930041
Cr 10.89581920131459 11.348136898225523 9.268023850218164
Cr 11.504594400873962 9.149524160913604 10.363609750816497
Cr 10.542951065778292 10.836540216555836 11.834857287129086
Cr 13.686064811567883 13.813011966077742 11.080883475726539
Cr 14.137382994960834 9.49842609502055 10.177898320704772
Cr 12.457880346151757 13.09941232431031 8.831163102876902
Cr 11.436763588506427 14.284489244023701 13.809891129392597
Cr 13.936406392454256 12.848774213532028 17.594718240516602
Cr 12.993771064795963 10.437134932341804 8.42601191113583
