31
Energy = -236.51599347 eV
Cr 14.638638421114809 13.869253094163815 7.710943745364329
Cr 12.413220596333717 15.173180145407452 14.469039661755001
Cr 15.634384588438985 11.411698906691402 8.575759832060381
Cr 14.169097305371876 12.357469458233068 16.21509677726472
Cr 14.573912495413365 12.701608970176613 12.43582954319719
Cr 12.393135728810417 12.45805392594402 14.126784031224883
Cr 10.265441351412317 11.36876561878955 11.959148276487301
Cr 13.316467467338049 11.803252895931895 7.952566750168026
Cr 12.782064205618902 13.585686022890282 16.584939291743193
Cr 14.027707399063132 12.855492775217863 10.038735640048195
Cr 14.060045771184502 15.068470979487046 9.036331782674141
Cr 12.90201869724158 10.430412006460728 12.433053600649853
Cr 11.97402620590947 14.975717013667877 10.58421432746154
Cr 10.949424337099256 11.155438908316166 9.331805271512081
Cr 16.167076349610333 13.214355740376629 9.874970096566939
Cr 14.810714931497836 11.422863423962001 13.811182668872867
Cr 11.211832263509054 10.001327758032378 13.876306277274232
Cr 13.126809687814925 10.195774764048611 15.272751229220502
Cr 8.892238688074642 13.101629960645417 12.98312192887199
Cr 9.816599729675113 11.55601771131864 14.735062286508507
Cr 11.273323736425777 9.222907230233329 11.223745869681162
Cr 10.64345663432288 13.56526976576168 15.117448139966967
Cr 11.806096415975723 13.2622111579656 8.69999805445982
Cr 11.701684462555566 11.181873212525824 16.224333861496795
Cr 10.641523132020827 13.96516583846477 12.689461754348534
Cr 9.845210435848696 13.445502623154956 10.42955754704058
Cr 12.14361297699083 12.333772314529465 11.29476409826643
Cr 14.13005756055987 14.335645914065358 14.377714103932787
Cr 15.052581944193003 10.714506392793913 10.958220257468035
Cr 13.266060145942191 14.764354000054997 12.014491927360968
Cr 12.912242607281247 10.341521160141582 9.765784632409252
