38
Energy = -297.74497817 eV
Cr 6.7733111257675125 12.391897841204685 11.100276083842905
Cr 10.178781114230114 10.576305546183816 14.517844053019052
Cr 8.493172976956942 11.383437458120405 12.662690886165903
Cr 9.269524803123364 13.310142022276302 11.31983315846729
Cr 11.672467505117401 14.488718812148692 12.385095185332005
Cr 11.145489704218884 12.012828646280376 13.027695199286933
Cr 13.43836933861432 12.47245975550892 12.404696894810675
Cr 7.890116966662081 13.386698647615944 9.244758804079922
Cr 10.401515703934324 14.771563068079791 9.861997008614695
Cr 10.611881581848406 8.420544112026302 14.541972294387167
Cr 12.951408978450697 14.419106861146608 10.54664240763641
Cr 12.453217108103194 9.411812024683167 13.42204784659808
Cr 12.916677406320368 10.531038451437567 11.688845476382058
Cr 7.4440865358094594 9.816332669901875 11.46195595779257
Cr 8.643518784959275 8.839869410083198 13.202900608129971
Cr 6.358687589432353 10.9710575795422 9.555020627444934
Cr 8.96673047477224 10.987214473989086 9.969049682634806
Cr 10.345645021134173 9.78384962698282 11.956247406948178
Cr 11.315578653033844 12.342156446969339 10.763235575369182
Cr 11.435694321380776 10.430465336232915 9.480303696974211
Cr 13.751134208681057 12.157570452211369 10.225170342385969
Cr 9.16929751508888 7.926671623705361 11.01316289396239
Cr 12.027937854248 8.230290310951139 10.986826869387315
Cr 8.245149892941088 11.061287234608757 7.846135677240863
Cr 10.09302842302111 12.763764852218682 8.665546997348658
Cr 12.292288469125955 12.76717203610544 8.369732239489243
Cr 13.720197221202296 9.672805247569519 9.160001488772863
Cr 7.538681422061208 8.889029817597713 9.064857028217356
Cr 10.056451373523727 8.564896806233303 9.156345793476573
Cr 10.88919875477575 7.1444978798592595 12.704474224222842
Cr 8.60104945885864 6.435328846983318 9.18527688672461
Cr 10.229050367170778 10.702621904296693 7.619920348239156
Cr 12.738610154499092 10.216219461652427 7.274307301991687
Cr 12.346060681417933 7.789094113521953 8.441107826425519
Cr 10.979648306739682 6.431629667397813 10.25088776187233
Cr 11.006270440948708 8.46616168690157 6.6620901921946505
Cr 8.536453529194727 8.547692770916555 7.293015613177182
Cr 10.055521823251684 6.328831665319732 7.771219990492206
