32
Energy = -245.42936634 eV
Cr 10.652009465059546 9.25508212424974 10.523845175459837
Cr 10.686235241973296 10.231227212431525 8.44272543134428
Cr 10.94648090506676 11.293267657374265 6.071757004898172
Cr 7.28717396351178 11.584838092270674 11.582448304675232
Cr 13.079804856862815 9.147074827123522 10.965842220846778
Cr 12.200392694885116 9.059483144422716 7.031321242715442
Cr 9.956458794368949 11.11201522615038 14.166353395879137
Cr 6.669048347446822 9.077427565800443 11.188094019495331
Cr 8.414818933339628 9.606837675557387 9.766046036012552
Cr 12.175355275078878 11.99350650411873 7.2600990617037295
Cr 13.646578175843498 7.776840251163878 12.708907896137553
Cr 8.902871263076397 7.604626713574409 11.684793013272387
Cr 14.042991580008847 7.418582707985913 9.945206639316927
Cr 11.563068108088602 7.7676012592138415 9.091912257870252
Cr 10.198461829060287 14.59340299025684 10.80046604294897
Cr 11.05607787116013 13.877938947605491 9.31752421983455
Cr 8.952720472218521 10.074884415809287 12.335240557107479
Cr 9.150055262621143 7.032229875321956 9.929256706963228
Cr 13.36851927072082 9.913976619511743 8.621380615629802
Cr 12.01716784105023 11.611162208993635 9.960128936634662
Cr 8.409914087082932 10.622353906310275 7.181435203207332
Cr 9.491461234617677 12.305827269910981 8.095697473481533
Cr 11.836787434050903 13.068582334950664 11.910358116206567
Cr 7.2004451093910395 11.398900610445335 9.26794627775472
Cr 7.263005369388452 9.291872688715308 13.332130432188539
Cr 11.45187643550216 10.849613731054689 12.467282197289872
Cr 9.842143182916145 11.777584468016332 10.534170761370989
Cr 9.383961426960052 8.488919911487267 7.771213553613533
Cr 9.397107181911283 12.761260464150002 12.521547843478531
Cr 8.161922592858089 13.588468998772035 9.73946117456993
Cr 11.652037632038478 6.875873365878865 11.337478764982302
Cr 11.097735804535676 8.616133198195925 12.807554918706357
