35
Energy = -275.27811042 eV
Cr 12.739629996460424 12.292212252151362 10.277732298792872
Cr 12.183213202138036 10.364284548100217 11.94903927648353
Cr 13.257332926455643 10.086895909234658 9.400023744393947
Cr 10.703122718813272 12.279917881367357 12.1789745390548
Cr 11.914138515337246 12.201568243629266 8.234243902221975
Cr 10.004192948172097 12.879724006176666 10.073731320068399
Cr 10.35008829708603 9.854115925564239 13.35847506826505
Cr 12.411451692920084 8.213543407065162 10.615600909481337
Cr 8.890812092054032 11.975482351529301 13.76356453672883
Cr 10.736498505293401 10.483569994291372 9.969844894736433
Cr 10.107593491709563 8.481397930080854 11.337957365979989
Cr 12.045867652320968 9.918000146832345 7.293671061574872
Cr 13.558606394762672 7.734137667016072 8.082412935889984
Cr 8.139700799876474 13.176041017943549 11.665083796874443
Cr 9.750242232580602 10.585589184287102 7.789939825729416
Cr 8.608390562147969 10.699971692358282 11.46634537576313
Cr 6.689173999787393 11.211483538871539 13.024060739502156
Cr 12.329184807606044 5.990585632314304 8.781294475553741
Cr 8.06731612629562 8.564191372064252 12.83940294682535
Cr 11.050653631398287 8.274092837848258 8.704819610060014
Cr 11.860282428064487 7.311012748449035 6.377869133436202
Cr 9.818398607070382 6.685390541469595 9.794281734468624
Cr 8.202534074494727 11.572892952360757 9.27819265233297
Cr 10.438386639768307 9.302036726136127 5.41576818917725
Cr 6.188157404048236 11.990061945889309 10.587068800692958
Cr 8.423745416053311 9.027350484789828 9.212046907180033
Cr 7.656819954782565 7.537600422914005 10.751055105668932
Cr 6.517613053783072 9.671727746324656 10.838058574335792
Cr 10.23911595351175 5.863797040547626 7.491055306150994
Cr 8.183690876180947 10.396453101067987 6.201354119618827
Cr 9.332786571584718 8.064052321822537 7.0425668297915545
Cr 6.216588417002642 10.209232631490208 8.22048609944053
Cr 7.339422040117426 6.733010338827633 8.460362256647946
Cr 5.57967939899244 8.271065867594057 9.192162784094123
Cr 6.987063627987542 8.392432900936404 6.818862245517287
