30
Energy = -232.30600425 eV
Cr 12.305550884571435 11.793652025758275 8.028296684596542
Cr 13.776866632059974 9.586814348030563 8.067331962839818
Cr 10.215826320739092 14.112236893623388 8.445956366962868
Cr 14.280307062681123 12.023952468634713 9.183295781551145
Cr 9.649641112943037 11.67617845827633 8.879840078718512
Cr 7.549219894296655 13.433437103661566 8.386832679477457
Cr 11.386199002763359 9.836154713792844 9.221234259763252
Cr 15.158822674135765 9.292158305101427 9.524804085103833
Cr 7.159929665104744 11.129846820227987 9.416288963773578
Cr 10.619028221306879 14.775172683049744 10.335865099875774
Cr 9.025491083698942 9.482603146167444 10.231235703124534
Cr 13.10078815632798 10.45416639084786 10.538997910122568
Cr 12.946094556676467 7.612137580938567 9.811089669694873
Cr 11.713230033853709 12.532913164866722 10.03283682081317
Cr 9.03379024203107 12.708735924299214 10.672213431836733
Cr 7.872167647577524 14.8260610680723 9.859129162835465
Cr 11.124655279333377 8.464552506197553 11.257181771060525
Cr 9.189089600552288 7.688447424920767 12.447241068145255
Cr 6.592501087298715 12.359643712715604 10.86511885614462
Cr 10.981639761864217 13.419346894980574 12.503050145433093
Cr 10.520335063430027 11.088482708836517 11.536169617858986
Cr 11.672517048877195 6.082790469628033 11.877363494757702
Cr 12.743872326974845 12.462357284616232 12.282479642647496
Cr 8.02570370705077 10.203815723020226 11.824313393001377
Cr 13.83718581279972 8.032093007413524 11.639363031418563
Cr 11.838892674157611 7.239466251344022 13.577389643081164
Cr 12.226048411073412 9.829147488558055 12.814879057739503
Cr 9.893520644187715 9.173299388663164 13.6184907396485
Cr 9.104353833568124 11.728989998176901 13.416370602997707
Cr 10.979426319299309 11.474040806814962 14.228035036210477
