39
Energy = -308.02283768 eV
Cr 12.690155885630366 9.590052823275336 12.711076550623067
Cr 13.268190636151678 11.36243193456352 11.256007530808981
Cr 10.503391466115923 10.527983541915688 13.865580303779891
Cr 11.51668417011289 12.184540959401616 12.68326627942042
Cr 14.240529755458772 8.560998542502738 11.042316675444035
Cr 9.486597225956281 13.157837751657727 13.893621933693273
Cr 11.100020068864616 7.892939314550516 12.869179833499429
Cr 8.054168400553454 11.292069306661242 14.449369858493432
Cr 13.230934432693676 6.649944879015527 12.254004213610154
Cr 11.462320390020162 11.951027622298694 9.750108161939417
Cr 12.845709802596893 9.915597879763995 8.983911963924223
Cr 8.953117485522393 9.21437110772094 12.95057579984154
Cr 10.6735379563587 10.024079532531324 11.12128168268018
Cr 10.306674114431596 13.659876010560012 11.12686701146292
Cr 14.057014979791566 7.948429586688332 8.519162561043629
Cr 6.791566337989639 12.72048136360868 13.282641128304839
Cr 8.887986902307194 11.76755222234346 11.830936707743366
Cr 13.831768314034765 6.031391514951464 10.043805180182298
Cr 8.166655191486386 14.402433400622696 12.36928389076196
Cr 9.459615662118775 7.274684467429486 11.305459903033068
Cr 11.944047619247364 8.006962781821809 10.314589886017787
Cr 11.181080785210193 5.876170418229873 10.91484527069309
Cr 7.073787575614537 10.27059605292599 11.8202914842032
Cr 8.532767771809285 14.349812616938882 9.619433406515226
Cr 9.15008332669288 11.692003492899387 9.332455821220947
Cr 7.021923164501735 12.816210477787253 10.596692794583644
Cr 10.175568238944024 13.808231291052373 8.10369244082256
Cr 11.910820735401293 6.983270233745576 8.223073637283905
Cr 8.570521294358935 9.495209732580244 10.206458772730306
Cr 11.34366130864921 11.566826619306111 7.227583262261325
Cr 12.072949234874738 8.9660155038398 6.462424894660583
Cr 10.646059402450433 9.545379167957776 8.403611606327193
Cr 9.409586085409195 7.346999369376157 9.104646877160146
Cr 6.836511808435439 11.141974794917736 8.960536780143613
Cr 7.325119965606217 13.333512034914525 7.943948430666675
Cr 8.87355203525478 11.96734965765401 6.974888353230935
Cr 9.996902472682136 7.4797121843462895 6.741022184708716
Cr 10.240104095862302 10.020096142735204 5.689220141978447
Cr 8.439988189197246 9.512264879357646 7.51110602207634
