31
Energy = -242.56009908 eV
Cr 11.799890027893381 8.437620249562778 11.49649419435169
Cr 12.560130342639338 6.857522971308244 9.512652716868761
Cr 10.239181054604343 6.0793822744774575 11.28678493737012
Cr 10.140511783377288 8.25287527966087 12.638679323193271
Cr 12.717465084227202 10.881108244094934 10.992354846386874
Cr 10.797919172420384 10.553780041087755 13.02170843607276
Cr 12.273592818078155 9.41876927803326 9.169777537651155
Cr 10.664161361613518 5.900461240463453 8.727145323382068
Cr 10.263565781866689 8.082731791493055 9.765950881574481
Cr 11.407730850684713 8.046913907310426 7.406263309130117
Cr 8.112137265563321 7.741025016385551 11.066387474284038
Cr 10.013299328341189 10.348629005086579 10.79039542392684
Cr 11.20061031828418 12.700782509806091 10.807059307235852
Cr 8.123951423898074 9.8356341762219 12.181064620954517
Cr 8.192935997519006 6.438537401282519 9.050127701805534
Cr 8.926245578465142 12.471981637626088 11.976916385777592
Cr 5.868115896196162 9.395694204336861 11.001140961269225
Cr 12.002668044311253 10.423127132239914 6.37066179898138
Cr 9.855919216850097 10.158433159741989 8.011265204954848
Cr 7.999359740405006 9.41470019711396 9.384174467077516
Cr 5.906209546705768 7.5837660549095185 9.926513579273417
Cr 11.759711175780314 11.642248496146816 8.534750246754983
Cr 9.100689812650144 7.772957031128999 7.202625814579311
Cr 7.373824515160404 11.463579961007133 10.491285040879278
Cr 6.421069575293979 8.11917306025401 7.719900791949296
Cr 9.226846970077101 12.08639699696796 9.265274230565968
Cr 10.086647370184338 9.309558175128693 5.462553803839907
Cr 5.605501879646728 10.176740991787126 8.698124976650004
Cr 9.688803586356164 11.92401650423224 6.496733812871863
Cr 7.332127111797887 11.76637091207274 7.7477769013121955
Cr 7.697032518901866 9.83041199639537 6.678977566876366
