33
Energy = -254.87792429 eV
Cr 7.293928551461502 11.358470878520825 13.00908980775926
Cr 8.776472880030875 10.222956165300136 8.745292333107964
Cr 10.815276658823322 14.049313287265385 11.619605727182503
Cr 11.504233718511035 10.478498132067266 12.779835266656026
Cr 11.950836638406463 11.971527268203701 10.945310793778686
Cr 14.765052920147568 9.352929692036502 11.593417740854116
Cr 13.872126503708534 11.192037273931863 12.464948976506886
Cr 11.032893311838036 9.192052292092535 14.756354770443087
Cr 13.434364429294362 10.546773170633678 14.650462008292521
Cr 9.441177581657357 12.06061381964328 11.905177568824637
Cr 14.016510875281586 12.641505213620961 7.590371454753271
Cr 11.737840092023688 12.813093664995757 13.403443316202935
Cr 13.848791646464512 12.726190641979183 14.436670818939753
Cr 7.932797550279499 10.205445958109541 11.191572033845205
Cr 10.51992558576727 14.682009735377934 8.972841251535177
Cr 10.004220553101696 11.543632422634575 7.5955872146125945
Cr 10.207200439569267 10.145158674909007 10.542080324238947
Cr 12.081007357255713 11.068512435294432 8.60361683094707
Cr 10.872014468945283 8.32302134831102 11.34353714469034
Cr 12.528215813976582 13.732539327094482 9.555856886344788
Cr 12.749097148498352 8.56249346937209 13.00642447009183
Cr 11.139077122887633 9.30020117315548 8.40892167350577
Cr 14.289754970089083 11.791756871843182 9.938345632679228
Cr 13.44166823861079 13.51425942325284 12.120724401106276
Cr 11.868803455655367 13.19635250615793 7.0941797339144115
Cr 9.371373122523567 9.516558790088505 13.066939177184562
Cr 12.773606391506062 9.594357018456002 10.529999491657426
Cr 10.54879117062249 7.041268346439597 13.52057722234386
Cr 7.829572122806176 11.795059594728727 9.863054938592903
Cr 9.60789383660002 11.643220543468297 14.183759485914178
Cr 12.519453747292339 15.394986903473617 10.997768530759993
Cr 11.625003410560378 11.22750497287052 15.399367382567739
Cr 10.124288380407524 12.436943000011185 9.445494961909073
