32
Energy = -247.06612175 eV
Cr 13.786023870569664 9.602713271678441 10.211464742703388
Cr 12.399941946458698 7.749120729740306 8.950786772644319
Cr 12.096639891612508 7.899020199426507 11.529222504639067
Cr 14.338060623722923 10.033937151213706 8.449783799660722
Cr 12.928364135600704 12.14610047140803 10.118902115652105
Cr 10.473977134164993 6.85986297434904 11.4974026616446
Cr 11.30631452729705 8.628317302697223 13.88316875371878
Cr 12.03700159963292 10.31286619965404 11.90534896638396
Cr 10.217691345190367 8.544104652161415 7.370156455549651
Cr 11.761814144661537 10.266406380825591 8.873066995242088
Cr 10.172108503493451 8.663559629503718 9.675532953740719
Cr 10.899342080047685 11.166278958929505 13.201611816175662
Cr 12.449622659547966 9.219601907132494 6.807486280310874
Cr 9.759207187299893 9.240130420728004 11.958701309007177
Cr 12.742153982943783 12.040308939879433 7.71575494258832
Cr 8.676395578762678 7.642757052881421 13.547361834695844
Cr 10.42621515412845 11.335486735443574 10.488983913664843
Cr 11.001917608962863 11.03028434897467 6.484223490495755
Cr 10.60392345831854 12.753225068072595 8.636204761196614
Cr 8.797016300175443 9.499512509042681 14.09679420725424
Cr 9.401156209791043 10.681116981334036 8.088920160512144
Cr 7.846266724528633 7.735958616899657 11.021941082358923
Cr 8.215763653970955 10.07083864507879 10.144744174096441
Cr 7.901543137101469 8.383380153588591 8.33288592046838
Cr 8.591859605898602 11.603604877630115 12.13257199008649
Cr 7.863758140310506 9.825097130699405 6.414938947649127
Cr 8.218104125807173 12.588394596059748 9.764013086807015
Cr 8.111867006286834 12.595403874311932 7.348127673379411
Cr 7.030990828876495 9.172462497938335 12.05313320324976
Cr 6.016671916030908 8.846173269463703 9.453913080909805
Cr 6.696438177350192 10.849589399920115 8.297027552268903
Cr 6.227770498939678 11.55755648422219 10.492910367348617
