39
Energy = -307.28318453 eV
Cr 15.105483240831916 11.146894936865364 12.084977723170166
Cr 15.208004985431781 10.001887318621149 10.161453249164996
Cr 13.122792284035087 9.19230571301822 11.786059257772036
Cr 14.979040830771593 12.275479634820076 9.658923501696467
Cr 11.858567345982056 6.86113818275185 10.924320293402275
Cr 12.577692642219318 11.967498081913115 12.901756492741596
Cr 13.088157221241229 8.626668995086913 9.53607222185009
Cr 13.887424035938187 13.422888374303353 11.48684263105756
Cr 10.833837836874615 8.182622442056651 12.811259239724789
Cr 12.878023023001202 11.160082499930535 10.59144310410218
Cr 13.098043431894679 10.595898370539846 8.297384156655458
Cr 11.091578298808258 6.94451648801158 8.737546175974853
Cr 9.622178288568058 6.6397794100381535 10.882457300389044
Cr 8.089440517525505 7.4577157742344795 13.198583642722486
Cr 10.895670963852805 9.142291584586703 10.2057234944719
Cr 9.806190774720879 12.167725897947744 13.15237447393723
Cr 10.780728509612523 10.507046142913259 12.204400637749792
Cr 8.91783439084493 9.812381756245898 14.046423307412624
Cr 11.174118904208466 13.0185401363291 11.371566914818183
Cr 8.876693846806274 8.925162873017438 11.559329039930887
Cr 11.077280756375984 9.295283390649121 7.726223202780501
Cr 9.310604259129548 11.414768694232338 10.643600387338118
Cr 8.905772866034585 7.86740908814912 9.172294330842538
Cr 6.456571283855734 9.008444532215496 12.741233223843214
Cr 10.911106949403 11.60497731413325 8.994067283695278
Cr 7.001008361081789 7.632482324373412 10.604594345414844
Cr 7.630804115553699 11.025283729332394 12.29589521873496
Cr 12.504609087919809 13.413042082864534 9.358396317167243
Cr 8.452918030742442 13.417852321966025 11.920027497518205
Cr 9.814812280338984 13.66152949729231 9.470444844566419
Cr 8.787014503503862 10.160250596169027 8.742421435403138
Cr 10.353672663173676 11.202500714469233 6.701036937373728
Cr 9.192602446258363 8.495007543895428 6.670911045030154
Cr 6.938884953447378 9.742092683360196 10.122746163076258
Cr 7.330022952310739 12.277910135248343 9.771604855998529
Cr 6.804543558393464 8.51392250192643 7.8737475857441686
Cr 8.506765890256737 12.494751862743321 8.015708771082057
Cr 8.046533082855367 10.46649248739504 6.215147061804551
Cr 6.394142270494316 10.770145414124393 7.732141610941633
