34
Energy = -266.7476264 eV
Cr 8.74053038738747 14.290384952786807 12.889875370284456
Cr 10.981044937945564 12.866861249303945 12.627427328745767
Cr 8.735883521464665 13.433319965334714 10.872365363980876
Cr 14.157823688957539 10.997494079981 15.392029388669377
Cr 13.033717146469876 12.926319659338949 10.991833932915647
Cr 9.744519682201512 14.073547700799383 8.505333667608841
Cr 11.42125109465023 7.930459271673489 12.07688672173482
Cr 9.949982039707706 9.63741842580672 10.852189437132937
Cr 8.899146330562617 12.30074015971025 14.294586563302476
Cr 14.93276090098771 13.764862887130773 11.949386516323681
Cr 13.087008905152327 15.61968430371473 11.086806515409457
Cr 10.424868055712508 14.18682382432995 14.909920337949087
Cr 8.450643009070129 11.39517917858414 11.941278138821158
Cr 12.412336696690373 9.471229311570312 13.799456551917132
Cr 10.605077815666155 12.049117061566236 10.289775176996569
Cr 12.776429849060944 11.205039754236859 9.140431631073653
Cr 8.867736886048307 11.390255225420566 8.929338221866928
Cr 10.802321415067516 15.663468297570356 12.976010586514851
Cr 14.64999958079916 10.99327895710636 11.627317501694785
Cr 10.871645085304056 14.680025451713401 10.793255871771146
Cr 13.22393708535421 11.7950414797793 13.412553704369552
Cr 15.905477039015716 12.074334940801968 13.515186807217642
Cr 12.399331238286843 13.228356216061878 15.312950118759963
Cr 13.855469384861813 8.273861211664036 11.826602257096104
Cr 12.878669143800638 14.491325656105975 13.275349703258739
Cr 11.028585955414576 12.395476398830157 7.654100612464862
Cr 12.175009922515091 8.266162587616291 9.69974190095551
Cr 10.797607102861395 9.837695078288132 8.666193365616083
Cr 10.66864553184938 10.66946905328716 13.050316978633077
Cr 14.805448537957911 9.533361680727515 13.641463585732412
Cr 12.437528438192345 10.265510345115747 11.239198231177332
Cr 10.991788575742854 11.401531934559884 15.120389498464748
Cr 12.426429571844428 13.943221650947233 8.978059347649124
Cr 14.919547977244326 13.5953779385988 14.644583577427712
