39
Energy = -305.7333375 eV
Cr 12.802872373537676 8.440674860035216 14.567042067995633
Cr 14.3728858577936 9.845012233276483 13.45671037067213
Cr 15.688292034212866 10.89607180702666 11.206149547050591
Cr 13.538992842851961 11.781536872816805 12.799744756344467
Cr 11.985542256861377 10.415709363592002 14.670104770535474
Cr 11.877935208879746 13.589119666029433 13.174646412987348
Cr 10.391268071867414 11.63784526947454 12.960583038049348
Cr 13.586922337236453 9.987246461998014 10.753644633383251
Cr 13.095547799827619 8.010879440392504 12.216583655170158
Cr 10.713611293949999 8.038449860247566 13.81026227732936
Cr 13.723350334536704 12.491484606007464 9.946399090780876
Cr 14.49458811649962 10.062145131489387 8.56383668953527
Cr 11.739075482543612 9.721452182336659 12.619897521549108
Cr 9.65870614911555 13.662639114190887 11.519988669043546
Cr 9.227746398143 9.922929902321636 13.896939518660105
Cr 13.352215134172638 14.0255744352854 11.767098775994658
Cr 11.217821872529008 15.30826352797895 11.1213739104209
Cr 13.158165262367337 7.659757109113121 9.608639030071275
Cr 11.728756706126951 11.938836946259258 11.142468459891413
Cr 9.093511911390122 14.811182664506779 9.55681640978987
Cr 9.799464234005915 12.023294458113154 9.769849923730971
Cr 10.795045349552597 7.5860990050302615 11.347528648068305
Cr 7.492792337611446 12.926182040343964 9.87507850933093
Cr 6.838088974785515 10.254888960099127 12.24194221232345
Cr 11.298782535399292 13.748132884995812 9.226803592107604
Cr 8.482217898899442 8.28041153718068 12.35272181367407
Cr 11.378707359518245 9.564308658221998 10.047100920733659
Cr 7.987352627334652 11.936302626216207 12.23455201165236
Cr 12.271645942865968 11.243574244442666 8.659998761997524
Cr 9.417841200551145 10.004895114657552 11.301524955407716
Cr 12.004426525285451 9.432705575274955 7.309812600057516
Cr 8.795594797250288 13.501636371043848 7.579901178041593
Cr 11.252001271727254 7.363166315360113 8.58997070731563
Cr 10.685059856243653 11.921727077697627 7.082364158441951
Cr 9.146637099531526 7.963517879830049 9.642415998552432
Cr 5.631620108872208 12.177894759069483 10.649891096413205
Cr 9.752914318879343 9.931764879512698 8.387505168768891
Cr 7.88648341536025 11.599483313764413 7.715800198406317
Cr 7.540235920308917 10.221913643386866 9.83958402661846
