36
Energy = -278.0941209 eV
Cr 6.478410621122947 10.651184419439765 11.073774856843066
Cr 10.364057614461652 8.15489423832476 11.636949803778505
Cr 8.337662767011835 6.884272344566297 12.19739401542731
Cr 9.020188272264312 10.057407112825821 10.3345163401476
Cr 10.571603254447036 5.595863503540023 11.404292533283158
Cr 10.038946608906597 6.404974515432799 13.607825707404285
Cr 12.843488897586546 10.702667378004925 12.940030612156631
Cr 9.654746648211688 7.0154749717351 9.383009780331616
Cr 12.520886374548729 12.786032617515808 9.522202268967082
Cr 10.746479250713305 9.227286530511131 8.86352224159794
Cr 13.181541972483952 9.257798462376929 9.17914485081629
Cr 12.361189610744093 6.433504218067593 12.007022591783372
Cr 10.285979029249836 12.128053349352916 8.992380283576281
Cr 11.70324682908313 10.964228809851214 7.5104352295113195
Cr 13.798537730475559 11.481584059436722 8.011129972119317
Cr 11.511053099020291 8.034187616173265 13.807257812693202
Cr 11.999755391012295 13.382472477451246 7.014820624286872
Cr 8.047204209925594 9.5921833125839 12.650881273841614
Cr 7.925704945648676 12.349613134630587 9.383690207356777
Cr 8.646985159950416 14.293896615358896 8.467793374575978
Cr 6.975908278601313 12.253748734314424 7.239203249317872
Cr 11.446483007487242 10.643781241109851 10.648852646347597
Cr 11.114484959554067 14.69094240853412 8.13400086954574
Cr 13.815247809308639 11.206066346579822 10.730741718935574
Cr 11.965333072514758 7.053217875833083 9.679708331233037
Cr 8.833876862946749 10.521031673673841 7.644803329282211
Cr 9.98865549607724 14.049992453220778 10.431523722567833
Cr 8.996567283851562 8.67197450168579 14.13755268005222
Cr 10.600788161983568 10.288989986599827 12.69812058334129
Cr 6.444685731400819 10.338785725219367 9.15738747084202
Cr 11.631759728260809 12.725495607307554 11.75368660411885
Cr 12.69475537667527 8.83395687596587 11.555618946628057
Cr 7.813479288326507 8.437221220877968 10.471742607511617
Cr 9.405318906394191 12.858298136348427 6.940308378514406
Cr 8.816013229896773 12.097040629553643 11.581598110603071
Cr 8.162974331324255 8.675876707470067 7.951076182132987
