30
Energy = -168.53063671 eV
Cr 10.96084735393711 10.331789108796517 5.680435306393308
Cr 8.766200787580335 9.4052478424525 5.5047176118600065
Cr 10.171645391440638 8.467262752803272 6.927209392396767
Cr 10.900329162344153 12.306177004115998 6.91980744169653
Cr 9.232144281171365 10.850879726139887 7.30269785334697
Cr 12.37294413176671 8.414716932354203 6.608700216390533
Cr 7.840772490696716 8.80606701885172 7.529612487337648
Cr 11.621521539514005 10.248839011690965 7.89054565626508
Cr 9.156934785355627 7.065605148964189 8.582073978097359
Cr 11.628825073883545 8.043182492252864 8.946025893030347
Cr 10.496549631188081 11.90022137011852 9.101730374462235
Cr 7.6214644202693655 10.641977880417905 9.186984236091202
Cr 9.739545199966338 9.377949611935904 9.272654960815734
Cr 5.920602654516072 9.106424665185711 8.971194466693703
Cr 6.8528723296671865 6.985878530445599 8.577093001770242
Cr 7.190324526341841 12.107844958139149 11.039777774117754
Cr 11.575439475261339 10.169516701741134 10.41958422596382
Cr 7.890278036810149 6.059307096610022 10.570432765030379
Cr 8.436876325183455 12.760430307187162 9.106168805701353
Cr 12.04954837002683 6.224606560113138 10.17132394728092
Cr 6.3989247433025636 9.948333056160058 11.141123553356929
Cr 7.787359514276245 8.366763637312456 10.17701431132305
Cr 10.983131083979012 12.4400546274047 11.19841455177934
Cr 11.975798028025624 8.171482155878568 11.411388421670452
Cr 9.979715862477267 6.87622452266387 10.610147135544233
Cr 9.202859332874386 11.094580254422128 11.07328810683021
Cr 9.774406764754318 8.91846795964707 11.778176944337222
Cr 7.947325565249598 7.66961508245935 12.361708493408258
Cr 7.9926126759372655 9.98258254466371 12.72921740108508
Cr 10.903208933817638 10.628979910684588 12.58175915753647
