33
Energy = -257.65701155 eV
Cr 9.433689397036108 11.349632386885379 10.074366814889006
Cr 11.28740138601422 11.193644847869397 8.729634868678394
Cr 9.83132629980921 9.019294417852826 9.555445544826455
Cr 12.118571032537226 7.620942857339572 10.100714088070426
Cr 9.379538466211065 13.72339693173646 10.002454815541398
Cr 10.27297685167556 7.976229981902703 11.717434337477698
Cr 13.13384044338765 12.356116844360118 9.798835814322505
Cr 13.39276366289806 11.95734531004247 7.371370544173276
Cr 8.281702345763325 7.072400297501571 10.482396801933184
Cr 9.000392922351116 10.243752114507904 7.664442704016016
Cr 7.968137871518561 10.754771559879584 13.640379558111142
Cr 11.815198811412632 11.157908498589237 13.070021868455651
Cr 11.784262723088418 13.8440099219324 8.528349055071976
Cr 12.374298422833332 8.622085227028258 12.78072950928375
Cr 9.917912955881931 11.631152339696767 14.568129559732613
Cr 9.825817776002703 12.862135002297208 7.726381364930723
Cr 7.660758663630532 12.094778025032504 11.651439699018681
Cr 7.547368092156348 12.181395910140232 8.609103172878266
Cr 11.370286899614822 14.575559908489804 10.87585993866424
Cr 7.8554599946966475 9.258177448050247 11.38594918114053
Cr 9.97078048059152 10.292842984932701 12.164875960685421
Cr 13.622216010509527 9.463012041806667 6.444606913666385
Cr 9.60990171988528 12.962251364243585 12.681105803882794
Cr 13.8827926292759 10.88872286338803 11.594469130912353
Cr 8.436339446185436 7.769040973236744 13.243521967628274
Cr 11.582323293498476 8.900448760729276 8.106181164509962
Cr 7.2737072359576 9.510528878303965 9.140485127676346
Cr 11.923381878891133 9.90043725797704 10.701366086864839
Cr 11.463389486110595 12.346738786984295 11.186304582634921
Cr 10.389673475859476 9.283507351435258 14.550697905992655
Cr 10.759517985369511 6.944311508475283 14.014922941709052
Cr 13.712009565372341 9.9027077607169 8.817127821235735
Cr 11.643023576513642 10.909539346544824 6.280974384292617
