32
Energy = -245.78496624 eV
Cr 14.102397035817281 17.768541324477667 14.369106314034944
Cr 11.16623187502008 9.3862050546484 9.048320995131741
Cr 12.934788372363657 12.830398880888866 12.808880428263897
Cr 14.491720190295261 16.241512168865743 16.05122876236877
Cr 12.359060969033933 8.345769273548957 10.418689316075799
Cr 13.367668173945797 15.274992015333593 11.472594574758162
Cr 14.905594316542137 13.610343330690297 12.73784187285942
Cr 11.795190628011243 13.377733785186134 10.469886755237392
Cr 15.345979757213696 11.742351226234687 13.82800190618885
Cr 15.149428487729985 15.944878134062447 13.35892904017349
Cr 12.56359604588053 17.19799128131723 12.839317852748277
Cr 11.992160788628452 10.793036498879149 11.341531162244227
Cr 12.502114209004183 11.502602189797445 8.778541385128849
Cr 12.861574003196829 14.691862022390882 16.78067230303697
Cr 13.907532307231465 9.066201797906803 12.234068652110306
Cr 13.772125939479915 12.958880428298494 10.428896155364088
Cr 13.33973926324704 12.97714131763354 15.153091223323742
Cr 13.483952034261954 10.599530751414349 14.182876090023578
Cr 11.271535497800095 11.123983756301543 14.087155290878972
Cr 12.068580804278431 16.97025044383113 15.73280614859395
Cr 10.6619361228209 16.320141166114738 14.38822374688581
Cr 11.154410369228819 13.565772511628333 14.794926523774965
Cr 13.841512336966511 10.156718579188432 9.494780147488395
Cr 11.70327000985939 8.960057476618157 12.95793590176055
Cr 10.072447458392704 11.18722527912266 9.963052213100928
Cr 15.433082665836935 14.163449711662539 15.241466923884584
Cr 13.195856813785491 15.242716881657104 14.145803126554929
Cr 14.570481875366532 11.073666959423315 11.692279088659733
Cr 9.363822077566502 10.186457216802342 12.353344077207028
Cr 9.88716280496618 8.560940075826794 10.982973209333478
Cr 11.315921076361699 14.740932882330393 12.48585949895286
Cr 10.346995230123488 12.393296926316259 12.470021374406913
