39
Energy = -305.53472046 eV
Cr 9.816086374757422 11.142833442912588 5.920211114554337
Cr 8.4750707370048 6.501113484568215 5.46961552169723
Cr 7.797912129726005 9.326215504845404 5.751930313399626
Cr 10.577233231732645 8.468532658923946 6.146219071778814
Cr 5.046697975466284 10.217483726069316 7.251696394973965
Cr 7.464850861843918 11.790781741282713 7.116231456899417
Cr 6.036014254496595 7.440866809749177 7.048423561768438
Cr 11.886010349567101 10.459372819293439 7.729171510462399
Cr 10.653846813230768 6.0198882915629754 7.463895111456469
Cr 9.359352427211197 10.079210421137487 7.637645838217422
Cr 10.037594276873433 12.58963897449381 8.230988139853723
Cr 12.944841657394903 7.488108179666863 8.489296387734642
Cr 8.589846491492034 7.466860140993603 7.475331161516738
Cr 6.875581940286968 9.56176946292896 7.976140429563116
Cr 7.993237858363206 5.246651541987525 8.132505465852644
Cr 7.669060061256569 13.696614033691699 9.332634997949548
Cr 10.968840130833364 8.339041608796608 8.573112898740284
Cr 5.952403629479768 11.634135469975302 9.320841676075126
Cr 4.920208523289465 8.744639398347507 9.239225211163223
Cr 11.504559242459358 5.94193306610881 9.770498200362466
Cr 9.623231954699214 6.698290870959505 9.928347120285684
Cr 7.124448065800171 12.38605107525523 11.629641771639317
Cr 8.654848659213338 8.932538185571731 9.726459424341334
Cr 8.208861648063003 11.27533559570329 9.51361356925744
Cr 10.567885538579405 10.715403635722065 9.787852336883875
Cr 6.8574192560316805 7.410593035190612 9.607744121504181
Cr 12.65221903467538 9.49649469846563 10.292933851309565
Cr 12.184623430612591 12.309738126351235 10.231480843955401
Cr 13.145870004502841 7.626512939488322 11.106553818864601
Cr 10.757451824538721 8.647235417865716 11.25755783544342
Cr 6.446075016875946 9.816791735890254 10.619995783887122
Cr 9.578993955477943 12.962648987509827 10.791161128507358
Cr 8.413610388027692 8.140602234279429 12.031963517183868
Cr 11.237424073826123 6.920996421191256 12.32298954274178
Cr 8.696011623413735 10.482722015755567 11.809920336200099
Cr 13.496581167104182 10.774541834626955 12.313676936684177
Cr 10.920233860539629 10.994976866875193 12.196634864263915
Cr 12.664196724785063 9.111519525859935 13.01511135618025
Cr 10.169301696976714 9.109852910611272 13.709284267357706
