36
Energy = -279.22502572 eV
Cr 11.534516063014951 12.445778640119364 6.632850006412431
Cr 12.55368333222672 10.733120987892907 11.517367147339664
Cr 13.659806410328162 9.878040605733764 9.529396942301549
Cr 11.086717710780894 13.83132571644469 8.805798735413234
Cr 14.478699399105656 11.923842915950075 12.974134871234885
Cr 11.204885136814166 9.765650525842796 13.874282830219999
Cr 12.105595196635706 11.446875721244446 8.937568066810618
Cr 9.455575631363057 12.27424761056893 8.611203139071085
Cr 12.958246460160922 12.92508569627594 10.746237993861865
Cr 8.50353085093053 10.207440895186306 10.002160011036482
Cr 7.466066334809408 11.340852618153248 8.198863142845811
Cr 13.76962401278482 8.1596167639721 11.188279734581917
Cr 13.446948757368151 9.826212935661783 13.530039148469028
Cr 10.44737756657087 7.187469389981745 13.350937804283628
Cr 9.114982686376589 13.184176321604626 6.58406788505959
Cr 13.352590630510118 7.295952804609041 9.148038738964527
Cr 7.439075618652831 10.231770261035042 12.51595785316065
Cr 6.942869048382298 8.91702733356868 10.974124319568025
Cr 10.062514494674051 10.357366317228808 7.430386962388522
Cr 9.836411340657078 13.516092550674191 12.808417727421961
Cr 7.872268707206756 12.61212250136563 13.299825793014424
Cr 9.871569190534428 10.810561703574281 12.314610028693863
Cr 9.153692722601136 8.12358310252 9.059615827530166
Cr 11.577386902815059 8.875386430349106 8.198427487513406
Cr 12.835420047385416 10.336075688301536 6.882742611409061
Cr 11.478084971792246 7.179868930458502 10.186212833745929
Cr 9.13477107474921 8.468575608388349 11.831214004459028
Cr 11.846678001264936 11.980016129149062 13.32586180025181
Cr 9.585929287643475 11.369588574760584 14.53277109965976
Cr 11.618368099688702 8.497475410289775 11.953821854148327
Cr 8.43885242613206 12.505523252873083 10.988064138986534
Cr 6.177174941530207 11.198259560526832 10.878063550938876
Cr 10.730386814802078 12.555920095654741 10.932746613566895
Cr 13.73456463765667 12.894874126270926 7.9063910856551844
Cr 8.80348251682287 9.004693639458289 13.840169342959008
Cr 10.797998082741495 9.844793679887154 10.17535661082563
