33
Energy = -258.07354202 eV
Cr 10.530253996529664 15.220941829229952 8.868207336744282
Cr 13.07672573612139 13.70499529432699 9.270971287985674
Cr 9.516629053554334 12.637785457543393 9.401831735667926
Cr 12.452279896008582 15.853815619521379 10.35510739531193
Cr 10.596093720399972 11.1144378706197 11.382963242129007
Cr 11.847283740523729 11.19137754266679 9.1951733479362
Cr 14.798603162180004 10.625182677729526 12.246188900756394
Cr 9.303156030015963 12.977831359182927 12.295909233547151
Cr 11.159485162158104 13.182660342690813 7.803632515066307
Cr 13.764679996052536 10.239491468307142 14.884369298532468
Cr 11.9794783111865 10.934387192172872 13.308982491023983
Cr 13.173361068177893 12.170183808969679 11.256658878170247
Cr 9.333910956502313 10.392524493189926 13.484322262691904
Cr 11.177137958055244 13.475775467372864 10.461707894157108
Cr 14.451673337132553 11.228398246552844 9.389931142840569
Cr 16.52251361626858 11.04952754776812 10.583592353567187
Cr 14.247193137815678 12.439461413486937 13.673787642979452
Cr 13.39899028970409 8.85499051699022 13.03724086518856
Cr 13.277785917786828 14.469562019090136 12.201146537438664
Cr 11.059287045295424 10.569666336016375 15.69230906106066
Cr 8.096273793845196 10.97964472451512 10.996747450792894
Cr 9.769296195241552 10.090189193994654 8.992533938014983
Cr 12.415996434090433 12.886774549285004 15.050901536991727
Cr 11.168963938354384 8.663930238906786 9.701354699159388
Cr 8.9224574590335 9.017696166614042 11.232746483780254
Cr 10.650303322319722 15.358462188772007 11.875593008990684
Cr 12.750161034511189 9.844172451582757 10.793878736572214
Cr 11.536308284404027 13.283310789004844 12.933836525018942
Cr 11.097292049193877 8.839997404368102 14.585795494501982
Cr 9.89602230198487 12.28570091168872 14.667943162468465
Cr 10.984469313374941 8.651776915343548 12.187052733775428
Cr 8.767580638021977 14.625333689368846 10.571928937230972
Cr 15.425762411012952 13.138662326743912 11.187732159251286
