39
Energy = -301.25018868 eV
Cr 13.780870018319249 10.864771927159117 8.395324465496069
Cr 11.709332552545272 8.871941190215432 8.598659407820277
Cr 11.228252398007076 10.956330040481346 7.708392278927998
Cr 15.382245317485786 13.023983529298908 8.92234757535816
Cr 9.576672367781255 9.003847561523143 7.2876975895697145
Cr 13.50172878195273 8.936058152892528 10.258345605393101
Cr 9.637444838365292 7.732762768166586 9.682361071728037
Cr 14.039508231127794 11.859069043469267 10.805422800294501
Cr 11.853405598204455 7.159208177778359 10.631001370018852
Cr 13.255457528917116 9.96557683988267 12.397308629898514
Cr 13.127631419529918 12.7181583792644 8.318212773007833
Cr 12.481199758898846 7.783042230959365 12.73883015922498
Cr 8.691671415656694 11.549117739605114 7.609039644140492
Cr 12.027646600113247 11.08132728544328 10.061614618235357
Cr 9.375465553596083 10.058423483911906 9.418481603847832
Cr 9.949232127963434 10.641200777181167 5.849811020049215
Cr 10.11932726994633 12.584810356893955 8.949897799409397
Cr 13.949017173087979 14.078444743074035 10.65136911114032
Cr 11.113569600908383 9.24388439511087 11.19917010890925
Cr 8.722046262986783 9.037461823070036 14.896459794964676
Cr 11.872822748871412 13.35404572674016 10.316049310036712
Cr 11.955770961492231 11.99453004699591 12.60797585298659
Cr 13.910177658919519 12.92603089461923 13.004906546243102
Cr 12.76335878314832 9.132876448280959 15.025101492587277
Cr 7.3044726290331585 9.791392776488241 9.0461014983323
Cr 13.68444036118519 15.095358874305889 12.77633666466073
Cr 10.924094670742186 9.920923825688863 13.676522955921282
Cr 9.72422747659099 11.629453937758491 11.55205560373247
Cr 7.662703617055078 12.024130496256802 9.808895386760167
Cr 13.322546954149086 11.069301456342185 14.717796252910393
Cr 9.308815047219918 8.844771625288926 12.11642605825976
Cr 9.138519780630348 13.72074164223698 10.893637641746396
Cr 12.307820201925091 13.53382478070192 14.61864615826104
Cr 7.665801740845715 10.579003917884917 11.522224750480072
Cr 11.570536567714562 14.194262787069563 12.43035534142773
Cr 10.930900158050404 11.57278133593084 15.048420794931218
Cr 9.696184901618865 13.070865487317421 13.586819701952951
Cr 7.636492967367546 12.730816154400213 12.39813446328598
Cr 8.472777751453497 11.039657133716673 13.848035891455257
