39
Energy = -300.98314361 eV
Cr 11.304426883510988 8.826862215608383 14.618779690245045
Cr 9.86597334052221 8.560289486260908 13.251224455053752
Cr 8.392883643211125 9.182857797720498 11.29486047464881
Cr 10.560116439616342 10.484998922267742 16.60464977158025
Cr 9.444932435680434 10.704236684961622 14.936215954929065
Cr 12.064187408570566 7.502923277083704 12.323526187602477
Cr 8.474796768168112 10.651420390008495 12.61785934434364
Cr 10.890719544992264 9.001552121856992 10.790958082986295
Cr 13.438580905886933 9.126570073128955 13.460282100422887
Cr 12.466764831948309 7.668533956985198 9.539205656511063
Cr 14.300133479502064 7.3596860968927595 11.20918836295524
Cr 7.243541118800245 10.366196100770452 9.349472788506334
Cr 12.14139053518427 11.38623469719382 14.71030327668877
Cr 11.259528953475211 10.632408624784443 12.620788068986053
Cr 9.535120385425788 11.499768327705722 10.731532302620195
Cr 9.575918945408798 9.881818584673356 8.829560110550272
Cr 6.812002675139045 11.480954233458975 10.878036263497851
Cr 10.44502161459515 13.057449101817111 15.425079438728185
Cr 10.034845412191293 12.685475681060854 13.324050173041925
Cr 11.561476035000599 9.474546404757037 8.114398375442674
Cr 10.649996952401988 10.88790583839325 6.498195894919175
Cr 12.027197213888098 10.953221845915214 9.939037351425128
Cr 13.461842364400779 9.4453396039975 11.282383398174707
Cr 13.204572054056634 10.240150161712096 6.183151298684266
Cr 8.508922708974744 13.330915511182008 11.261023141874869
Cr 8.276529319503387 12.555850339635588 8.684508924699037
Cr 13.44553534808107 11.690369483976738 12.168783310606866
Cr 10.619540624352886 12.026091859762507 8.43539170328442
Cr 12.288718106549487 13.334303152291774 13.519608058806861
Cr 11.379164331500304 13.067616772359276 11.209805140699045
Cr 13.097708556920695 11.668409199450165 7.618318816146935
Cr 14.00184128386616 9.570270323878335 9.018882148901023
Cr 10.088746934756706 14.87673760902023 12.469823630474915
Cr 9.926790641689653 14.034039311095317 9.85006897226428
Cr 14.546513639123686 11.617152245198563 9.949065673752214
Cr 12.750584573146769 13.363621320413758 9.418794680214372
Cr 13.861512098120075 13.790466234072023 11.210587104803382
Cr 12.494393390031808 15.415666563150362 12.25478307348866
Cr 11.934375782519675 15.516307468229348 10.437920349102129
