38
Energy = -294.23191329 eV
Cr 11.785509462395645 7.710420902044259 14.40997803356539
Cr 10.967381130753102 9.653218442884423 14.77118096110939
Cr 10.453225624090143 11.907712239241528 13.904250752925876
Cr 9.26817039535678 10.12381965928437 12.676886535686558
Cr 9.707076811626592 13.9363584035933 13.311483249038904
Cr 9.900370081605981 7.828110763171657 12.825682217963257
Cr 8.425627783994837 12.449911509094138 12.150979654005857
Cr 12.499056709123746 13.498747377546524 13.711412967754345
Cr 7.183868571892196 10.788794957831417 10.831633716158613
Cr 12.750026390049925 11.188159104364741 13.691239982496635
Cr 13.680154294299875 9.104629719712722 13.811517297188505
Cr 8.017258619328459 8.539867744701503 11.124459673238414
Cr 12.497395184562398 7.4523549679656425 12.09873581551468
Cr 11.67119790776236 9.851191801849398 12.185499134548714
Cr 10.927087365739274 12.270326887850318 11.745202737971107
Cr 11.722410450356787 15.526599223242025 13.052740851148185
Cr 5.757267409245914 10.48981445179416 9.093456215418682
Cr 6.7741674274988 12.853025625803904 10.05643842656398
Cr 10.18823385532262 14.309882025758652 11.128254289927241
Cr 13.25651773845628 12.113530586289151 11.480704830391172
Cr 13.987270160759172 9.840310767413271 11.66711232415009
Cr 12.600115558721939 14.26562024598528 10.972694699756383
Cr 9.587269817865147 10.628682580503643 10.274288831194466
Cr 8.850381300001906 12.743222643543268 9.7538285594225
Cr 10.341253931834311 8.498731225055792 10.54355300887673
Cr 7.820770418676438 10.77959375235046 8.385161684361453
Cr 12.187656403142421 10.57545326969096 9.690428404102455
Cr 11.373415865774783 12.74272932467588 9.247764128085587
Cr 6.677013849740939 8.619429371978457 9.322856677069339
Cr 12.858214564092954 8.191305007280292 10.105154861693771
Cr 13.41505523146742 12.84314130314866 8.908680556499121
Cr 14.420515799609788 10.704303986239452 9.265541951065794
Cr 8.871048195994284 8.779424682435032 8.587651294332224
Cr 10.226244516623717 11.166912773796877 7.773050202733614
Cr 11.375344708618165 9.067495482383041 8.209617952105788
Cr 12.737960387984417 11.289277889816143 7.263209280962177
Cr 13.538472957607473 9.171816337449812 7.905330067144019
Cr 14.630248464224964 11.426328308430975 6.9925935200305975
