36
Energy = -282.99277242 eV
Cr 8.251584262115047 8.753445001846945 5.182831995316548
Cr 5.371244241177202 9.51315357378351 5.639784925828941
Cr 5.3879609797392165 12.243792086381978 6.032938772969038
Cr 8.828310691589296 5.191999132706602 5.70828449210713
Cr 7.383504313466473 11.16888243787614 6.443435623334289
Cr 6.398520407723354 6.787449889026999 5.944166816876234
Cr 10.86575556488075 8.000227309758907 6.07044426578774
Cr 9.500454871609216 9.551604902810773 7.18563263677574
Cr 7.00872487685269 8.853584796142606 7.364587905326201
Cr 8.786846391530242 7.038801888558556 7.0636434278080245
Cr 4.983410955560574 7.710263086560009 7.8261523427307464
Cr 6.7790210356612315 12.842261735737443 8.427436143357161
Cr 5.134654762028271 10.483280673444442 8.330332045637498
Cr 7.041330569880412 4.852378030772031 7.188285334691276
Cr 10.943379274295502 5.679428024755188 7.566643194140183
Cr 11.720026738392907 10.120203717746795 7.702239710849577
Cr 9.500490301292654 3.908548799522447 7.820977292342187
Cr 10.998722591633529 7.902790632959623 8.569603000230325
Cr 9.610061080631215 12.071614865807348 7.822414767406687
Cr 7.663849599517554 10.645524512771559 8.955344950929703
Cr 9.4996089181717 5.979237751724697 9.457426964052626
Cr 8.496312345804357 8.273523442841311 9.187348520267209
Cr 9.95537600349369 10.046313787366474 9.585460497224568
Cr 11.397780052610512 11.756314560388743 10.001869699648148
Cr 6.261233384350621 8.760535892915561 9.982411797274597
Cr 11.88201772157709 6.381404147875386 10.133940569404098
Cr 7.9778971041968605 4.258179297061737 9.602062282443123
Cr 12.251363799481725 9.112873174942834 10.3251342630927
Cr 6.958934303083826 6.600244583936945 8.68478895365148
Cr 8.777078503476455 12.201800223251714 10.697788178604831
Cr 6.121620335348559 10.969447698635562 10.458379186166624
Cr 7.838610572384401 7.0938144364291515 11.246099679104603
Cr 10.266422778187621 7.952315919601666 11.148906027369092
Cr 8.196197918378955 9.765916999437891 11.354195142495817
Cr 9.925268053769043 5.474080416695069 11.67175812632909
Cr 10.49903996702881 10.517377838846377 12.079865739348085
