35
Energy = -274.02284628 eV
Cr 11.296098496089858 14.90848498439479 15.750886758504441
Cr 11.599278359642598 8.962435439282592 13.35539065812739
Cr 13.019923990581404 9.83531663699622 12.020355786346506
Cr 10.456886665292327 10.517540688245115 11.307738070978948
Cr 10.6299157900428 10.661145054529243 8.525421253631977
Cr 11.05384264843184 13.408165485680186 11.781014827706219
Cr 12.61207800387338 11.896102778817117 10.399240971009023
Cr 11.644711926508041 12.464425331828096 7.600089783193523
Cr 10.280090778528232 12.980145966246901 14.361243589919962
Cr 8.958602337361953 13.588960022940684 16.404171007259844
Cr 13.476643605128361 16.105691313418145 12.898709878306697
Cr 15.100944451349433 12.519845475645567 14.878701754199387
Cr 13.723499705497598 13.587167029276202 12.787654775955327
Cr 15.057476810011128 13.132522545538249 10.742700987768462
Cr 14.449291783250354 11.36428074879443 12.860997161572376
Cr 11.470703238232351 14.968871380677172 13.375864404993603
Cr 9.536957692078833 10.297007657634149 13.591371312896015
Cr 13.727175098803116 15.058074902343972 15.086630473739277
Cr 8.972639481123341 12.340473668565265 12.780823791655767
Cr 13.303192498205604 10.250215372787393 14.763656240262534
Cr 9.86010697416716 12.47583023441188 9.980235739220369
Cr 14.792735536929758 10.873534100740676 10.29179913036825
Cr 15.356552613588564 15.343325955140894 11.379337623765116
Cr 11.28854680019293 12.75937746440644 16.87370693762674
Cr 11.804231171580492 11.595964867691553 13.008289138162342
Cr 8.68592658103742 11.597665300300923 15.854137485064197
Cr 15.834827872619671 14.717896833048846 13.717849984742264
Cr 10.989949932864056 10.785584928300946 15.39938353623638
Cr 13.485895855522259 11.064239953979403 8.064759516100672
Cr 11.413889120990694 14.239377076756027 9.1792186983014
Cr 12.823453138667452 14.60619288680573 11.035438902602845
Cr 13.803615598731843 13.50745079874392 8.789023661174262
Cr 12.068139225335495 9.521255478504187 9.718009972107081
Cr 12.785554616893467 12.824317069757186 14.864230432610443
Cr 16.466810295219418 12.811030431221008 12.504856675786682
