31
Energy = -239.20510751 eV
Cr 11.738186928737841 7.800088435719393 14.777692318522803
Cr 14.21289856770961 14.431268720613176 13.17158282603612
Cr 10.316038261921792 14.644275735469465 8.211544544967492
Cr 11.078855229378444 8.557062665480341 12.299696360645727
Cr 12.137208474597594 12.64665215072474 14.342524153611874
Cr 14.489220891433245 12.159705295852222 14.321288295454181
Cr 11.694605066457887 14.64151868915434 12.27096052030835
Cr 13.36072085195445 7.996615310850644 13.59549959701254
Cr 13.609318682031606 10.060725518901341 11.792354192614544
Cr 11.373768331679816 10.836689807826575 11.426120879795516
Cr 12.659911224694783 13.91424306983011 8.05907854936803
Cr 9.463616633946396 14.297477980192424 10.731420043009134
Cr 13.554939903447298 11.225777792596634 16.211735700038652
Cr 11.129613411451057 9.904968751060498 15.738948960606454
Cr 12.515055434994293 10.32010425960329 13.911371031076644
Cr 11.43833118333645 12.29661516060023 7.582836123281187
Cr 12.955857955387742 12.531406272861094 12.116361469698532
Cr 15.095844525754421 10.052651940509122 14.092825964541712
Cr 11.152600882997044 15.48358167060212 10.017066382680422
Cr 10.479133075698218 10.542797205335788 9.284651502449622
Cr 10.46391177099518 13.079580716833947 12.578669354657675
Cr 13.28264451071066 14.183141138881446 10.585969067926557
Cr 9.478068057190557 8.812151534661039 13.976538330919375
Cr 8.895429390680047 11.85605489961204 11.116252061883895
Cr 13.744665851226788 9.113097002346652 15.954254520660724
Cr 13.21001308067725 11.581258810879929 9.622132369871512
Cr 9.236621899394772 12.972833058597107 8.697776205566864
Cr 11.304155094492154 12.975605382181277 10.11335879526772
Cr 8.951583222378593 9.713825022394104 11.392657566889108
Cr 9.978366912234497 10.858808325729875 13.409119580899379
Cr 15.250288104660873 12.07770668993673 11.669736443888072
