33
Energy = -257.08873614 eV
Cr 10.960535359897232 15.795820019898287 11.527296849042559
Cr 12.28543227986317 10.726715837583477 9.385200818576644
Cr 13.089300092469456 16.6243992001658 12.67399567436484
Cr 14.613021393483082 12.43189369038135 12.852658221069953
Cr 16.0187440327472 11.43453298386327 9.319787562655188
Cr 11.097214663347275 10.847704185040486 12.959742631384355
Cr 14.463938286600756 10.588548294494917 8.11579209566825
Cr 8.570696837871767 14.41157981103403 12.01429004439894
Cr 14.727848286202452 10.885686746665465 10.758219429765294
Cr 14.418966371659131 9.148076704132567 9.54549822060524
Cr 15.071289757622587 13.541011742952028 10.658665960550568
Cr 12.762870837613379 14.74164169128777 10.359733633059715
Cr 8.52409251595967 11.77931974383774 12.422230718967365
Cr 10.164188339568222 11.178782218248967 10.744773812106779
Cr 12.516247841965715 16.610105995935093 15.166997910880996
Cr 13.630913275822268 14.275442749441943 15.040159744483576
Cr 12.119737210225221 9.878933484359859 15.00704426253592
Cr 10.784631982964315 13.361444179338372 11.833097981837675
Cr 13.105344294881608 12.282384877248269 16.666407894745674
Cr 11.121213471334286 15.041000533006988 13.900874522475691
Cr 10.788058117538226 11.689453965443631 15.725969267051488
Cr 9.700523791506479 12.977692454395955 14.010037230497876
Cr 13.872269548594886 12.806324468009063 9.049026872713876
Cr 12.72226942758832 12.170057014700838 11.260082193965086
Cr 13.220730310558952 14.447961815530002 12.612873628598813
Cr 12.37697692978478 12.46212185003119 14.100105259680143
Cr 14.222506856140221 11.155477871915883 15.198536192922244
Cr 11.294675386922847 13.205655889468352 9.262371930879299
Cr 12.387750714078193 9.58428439151558 11.132410309019273
Cr 11.295679819028104 14.19242667077933 16.018669583916903
Cr 13.70182379860588 10.398528570273784 12.952251553529084
Cr 9.270046040338844 10.135200825326597 14.339059663349312
Cr 8.851461638300972 13.25092658035332 9.988266002279014
