32
Energy = -241.87583979 eV
Cr 9.844776195520296 7.0718097909889766 12.488941614869987
Cr 12.505442608566202 7.657740296380188 13.01363297293246
Cr 11.190075907300285 7.4482068170652145 10.826667544271952
Cr 10.52234836835562 8.73724770323946 14.22195089392721
Cr 12.991277341188574 9.986990401805514 13.48170607342906
Cr 8.908818532568144 8.959745488362056 11.479792974685404
Cr 9.048008484209834 7.645054651307664 9.618985208601773
Cr 13.3387511175533 8.848212898014452 10.831676757104995
Cr 11.022705253356731 9.605245812140875 12.279035863254629
Cr 11.09231465139894 11.49112161955274 14.343348320913314
Cr 8.961548729596844 11.051902103584075 13.195168488885354
Cr 10.942639627561888 9.582730728521172 9.751518151588982
Cr 8.165745885008207 9.952904349481296 9.09019465709487
Cr 6.9864388944327 10.495037324092555 11.226642094792519
Cr 13.42672086427998 10.840455768479247 10.936873530249821
Cr 13.606204276083984 12.455352366570237 13.099365540520266
Cr 11.325977157817993 11.984484884368351 11.992781040572982
Cr 11.509098332899953 10.486154616596544 6.241536852011661
Cr 13.501582564543755 13.394755220664392 11.380739681690855
Cr 9.483106959575172 13.228157309394016 12.766882847839872
Cr 13.990613546790252 12.573900324020316 8.901672788339262
Cr 10.35683093271052 8.777048949100754 7.876985488998617
Cr 11.626625292063897 13.883294167530202 13.785327476527039
Cr 7.538101956498957 12.182740917359045 8.933675143014378
Cr 12.531236703618767 10.386896399058598 8.2776004623062
Cr 7.4354760161321 12.587735608969302 11.334680608089556
Cr 9.0461333315273 10.777273808679043 6.33103200550605
Cr 9.931334197753301 11.29586489675039 8.186686979350359
Cr 11.872192723955346 12.315153691214098 9.595888532779949
Cr 9.378776204155788 11.3936213907732 10.744913141421081
Cr 11.46168368498489 12.72369845023671 7.3048252550679384
Cr 9.663693107875117 13.385740695583326 9.66555045924513
