31
Energy = -239.27354856 eV
Cr 10.916204886118512 7.333981250367888 12.411205212503496
Cr 8.817577543790273 8.851008524153977 13.620718587600981
Cr 11.286951221033938 6.899038847409009 10.030162026053832
Cr 8.503601722355718 6.755598578497298 12.726111019529064
Cr 10.658063352756038 10.336031454783907 12.178139989369484
Cr 9.49047880708868 5.924743965531174 10.337478486203931
Cr 10.583373672743067 6.52178489280284 7.809713619495352
Cr 12.233693943236771 9.000467599576831 10.50828252481339
Cr 9.497642993012324 8.703374975103467 11.020801005542689
Cr 13.149223723724115 7.3466558285493795 8.351248335282781
Cr 8.511475663893142 10.823423123338118 11.891231954021778
Cr 7.087577457092136 8.98303997211034 12.157735562776052
Cr 7.171100662839763 7.3018070903764025 10.879961958069726
Cr 10.873175443842408 9.102866733025373 8.465289537079535
Cr 11.54923602454955 11.170043811101031 10.080708453716657
Cr 8.786488244009755 8.071600873991866 8.895678524525236
Cr 12.303423072142765 8.119177865562266 6.255499907859174
Cr 10.473535171498611 12.610702137562242 11.497477728317566
Cr 12.864164277305381 10.24053739397687 7.919613365222387
Cr 9.487760569464676 7.883081456299585 6.424172462661558
Cr 7.368479800065557 9.583015729573422 9.74801379709439
Cr 8.966489662287794 11.013982898770596 9.550032791630073
Cr 8.358186775377662 13.091243181394816 11.064859101850267
Cr 10.744048281661655 11.788588725080276 7.6445781340071886
Cr 10.634139950854985 10.027093939882288 6.078949061851696
Cr 6.4106689566501736 11.539107653563708 10.761901215542972
Cr 8.548812225101946 10.031443083986495 7.4885307472793645
Cr 10.118606898770752 13.27752891959413 9.04046387134162
Cr 6.85516991614127 11.183704467080062 8.215702271512793
Cr 8.895615551331169 12.155561085347108 6.834306510428705
Cr 7.578141611110466 13.055893364165515 8.907151421486715
