39
Energy = -302.44671041 eV
Cr 12.658467939260499 13.862034419593769 10.966514535390358
Cr 14.079378817905758 11.749186366239565 11.656197771931238
Cr 12.741936033300354 11.979525633055777 9.834597074067025
Cr 12.00648617214852 13.134457613006823 8.034515352675825
Cr 15.398719994726296 11.262321900144313 13.327474768551177
Cr 13.498658646289721 9.828615418865928 9.4019770075077
Cr 14.579699880073758 13.817261755359858 12.19857631453046
Cr 12.479739035973063 11.061093859298543 7.315707532685112
Cr 14.141095346617863 9.293984779748767 11.996412393401718
Cr 14.23841515454658 9.077682274054466 13.990443585252914
Cr 11.02871839090462 12.275780697315419 5.610445473060676
Cr 12.162342478801065 8.22017091862052 10.119610321794754
Cr 13.16172023658205 13.268804209432586 13.50709689836995
Cr 12.60555414629433 7.5775757908533 12.323140138956148
Cr 11.227216273662089 8.488307913021393 8.000121262900395
Cr 10.909214599944928 10.793777455706495 9.011790883945434
Cr 10.318889987088234 10.030138977399352 6.45467333044114
Cr 13.00622473335407 10.870652181147511 13.649965681898193
Cr 9.80722931037169 12.230999056395861 7.4573692166216325
Cr 11.75048581667685 9.985842772131134 11.599322063030037
Cr 8.743622593368936 10.068005674569612 8.56100605356428
Cr 10.523761411499937 7.429766889823308 11.960304936329607
Cr 11.394489390038284 12.418603191698924 12.127615561125511
Cr 10.81301154549726 11.193176154406116 14.148737891967754
Cr 11.64160287673779 8.895888668868826 13.720083953804306
Cr 10.536050346796118 13.251958920556637 9.68399232979388
Cr 11.364189887327344 15.076934805460942 12.613213469901648
Cr 9.731356520999942 8.652089995680383 10.269924174579746
Cr 9.51838467538299 11.018530909157679 11.022544873549455
Cr 9.371817956695576 9.533345652150475 12.702148695067738
Cr 10.502468757749469 13.791388803408235 14.209302623655462
Cr 9.35026024900076 13.425581029018865 11.770955501600286
Cr 8.282664539688914 12.1064707429325 9.400901800040664
Cr 7.955604762401066 7.8497314848672834 11.736710316084993
Cr 8.887794933058062 12.00198661123275 13.252210806652835
Cr 7.236578467356941 11.949471219607062 11.639253368155956
Cr 7.535438108357249 9.742037719709662 10.672444243148815
Cr 6.991729788097485 10.079435254353314 13.044644886034733
Cr 6.334583666617844 11.222985752300703 9.523656379125457
