35
Energy = -274.80205646 eV
Cr 7.0997006268376674 10.930594903002948 10.801072882728564
Cr 10.855129661670714 13.563665548720618 10.991699919256106
Cr 10.120858476220146 12.868936064635088 12.929421018221122
Cr 12.55227804913682 9.721347624281085 7.457249545169027
Cr 7.90973552801059 6.4069087344573195 8.653374290467104
Cr 5.849836967052464 8.863743445688677 10.611481701641262
Cr 7.0810136540053605 7.180014974924261 11.001538267956139
Cr 9.982734336580348 10.34609278529731 8.328891484929171
Cr 8.205858520308832 9.056379991285391 11.867964450393155
Cr 11.988857163195664 11.167276016547127 9.476836592988557
Cr 8.210906789400198 13.407299970515187 10.897940311885877
Cr 9.5305279149538 11.23427134393817 10.856259844740572
Cr 11.287471841836068 8.379422924264974 8.871492188370151
Cr 8.263733342539195 9.05224439507289 9.369194673495986
Cr 7.794344937730493 9.967822729074088 6.953148087044418
Cr 13.206895448373063 6.988737173013389 8.149664729043721
Cr 10.596710595649029 5.975458901983004 8.36417808808272
Cr 8.050941282125379 11.881644994205018 8.696300672040914
Cr 9.770794666221972 7.462934041735923 12.810782955322226
Cr 11.821833985238019 6.837136118590145 10.90428535528015
Cr 9.41922207087125 6.968906740021844 10.412922152269287
Cr 6.496253087808549 8.216498789548043 8.347188827902928
Cr 11.98359655397435 11.273379161686162 11.775196769240605
Cr 11.270522819537222 12.021473801526248 7.009909554378836
Cr 9.743713284122974 10.18144380987907 13.202819343324226
Cr 11.586819919792525 7.299850912563541 6.456240916435927
Cr 10.509042169361047 9.183424896721458 10.833607914169148
Cr 9.037307438607572 7.705594287295678 7.428212577460051
Cr 7.884313097418931 11.814111478644154 12.85047729980806
Cr 13.159799987839598 9.242577146837437 10.27118371365569
Cr 10.137697630269228 9.6300786814068 6.065354471647918
Cr 9.37352437427365 12.102127651832316 6.494497929610233
Cr 6.167539282038694 10.384971886320276 8.432816230624143
Cr 12.065182510069832 8.85468650627081 12.56808457506096
Cr 9.955009354294363 12.84343053749392 8.93424144501075
