31
Energy = -234.81985875 eV
Cr 12.937998527273074 13.776666933228007 8.420255137223817
Cr 11.051733336517097 12.272989165724427 6.179526640349204
Cr 10.454098905281635 13.710543240574497 8.182215364447
Cr 14.244294317341787 11.852838576301496 9.708281800785315
Cr 12.281743391799653 11.561931012413801 7.905483361822596
Cr 11.444863070019036 12.339268309612816 10.14170095677513
Cr 9.34612106490515 12.242557658596912 8.329292618768426
Cr 10.079843133850261 10.039063012202467 6.977653518849032
Cr 9.314949642858 13.262326631429179 10.744193977281425
Cr 12.776058474719694 12.349427137707345 11.888883254864398
Cr 13.395707877944814 10.255000294379046 10.095168999426482
Cr 10.978285727555194 9.993761054275195 9.104889030767932
Cr 10.317935081711344 12.61772805518945 12.666001865601569
Cr 8.38418393974138 10.06313893377196 8.57358691627556
Cr 9.243216951917121 11.160199487421513 10.774625635176152
Cr 9.59197213324994 7.760154913221649 8.36487395312773
Cr 6.849547408419319 10.8076401365251 10.02946313387132
Cr 11.618031784981909 10.127629109024317 11.718617039898085
Cr 7.7422456745837795 11.709934405860183 12.610979661737842
Cr 7.273600773259283 8.527410685749503 7.787903205791418
Cr 7.449123335557247 9.88168118991844 12.451231689833993
Cr 11.818320754614726 8.036426666779692 9.53321651733039
Cr 12.264513387804413 11.338163842278984 14.046688840197143
Cr 7.411034600337524 8.25766976755545 10.265990905746092
Cr 9.510410648791073 8.734076753677819 10.77321076474053
Cr 9.918561275566416 10.235129165351303 13.202458976057153
Cr 13.478455583844676 9.834464146580503 13.018393039883565
Cr 9.183828501229213 7.87470655242504 13.022903222213388
Cr 11.549213954297215 7.794641485518997 12.329782971342741
Cr 11.613751205747743 8.804337338717797 14.185280794904497
Cr 10.230483867033804 6.532622670742209 10.721374537663433
