35
Energy = -274.10545467 eV
Cr 14.55074794599312 12.46456458926003 8.748445214611811
Cr 13.839648740729562 12.444072329163598 12.873289093797535
Cr 10.818178184812833 13.05883866437696 15.040105833827788
Cr 10.237073949296336 14.36354316441229 10.658932135265713
Cr 8.129946452850193 13.338759118783624 10.263015962191458
Cr 9.576994537473295 13.263923115713425 12.688677214531372
Cr 12.974654956907736 11.802136413183003 15.17816983344073
Cr 10.371429337144086 10.896482066672116 15.532107870400838
Cr 11.920908365521571 9.255824798505975 9.757275889431666
Cr 12.231672293137098 13.607506736976829 11.864815078883073
Cr 9.37859311761352 10.54993550301927 13.319644636618085
Cr 12.003682600284067 9.565534348219122 14.673362552611412
Cr 14.113786503695627 8.910280967548632 10.952856885394358
Cr 9.3224798943304 9.651218934730862 10.703719039794521
Cr 11.456691724907301 9.46639100353621 11.914288459309153
Cr 15.65084671609775 12.768268375426912 14.620350181576297
Cr 10.322208477415238 13.416721129543497 8.497381493627595
Cr 13.753529784325169 9.83147778494959 8.368568225898295
Cr 13.146324634149984 11.303401536568051 10.75478191227719
Cr 14.930129885335253 13.298572063826356 10.857740119730238
Cr 12.073186336903051 11.667916060036939 8.764976722206256
Cr 12.609540777633377 13.635110889223713 9.580005581901482
Cr 11.474300712927237 11.599655439717084 13.02324396109349
Cr 8.322878568574064 12.122562550757614 8.168509707609392
Cr 15.60356337276324 11.168135487069733 12.193220085385615
Cr 8.377173094351976 12.469350542618388 14.543246739550344
Cr 7.9009968004710815 11.791358191136602 11.83323108028039
Cr 7.351727249083261 10.688494783524918 9.733944009441954
Cr 11.018679794239556 15.03970584656812 13.504337744286667
Cr 13.591585788483776 9.8866206454893 12.963292656449958
Cr 13.30742590480581 14.11129861731639 14.443558425229064
Cr 14.974097110893933 10.541490484435469 14.847890591522336
Cr 9.933302888728402 10.322373974090125 8.499266608979276
Cr 15.46597367053034 10.597366843649993 9.835622697797707
Cr 10.466982492667407 11.79850819770001 10.691562608604706
