30
Energy = -230.72669365 eV
Cr 7.950939259437647 9.805559352250407 5.705276187792157
Cr 12.126838288249067 7.742459924615701 12.52495678383815
Cr 11.71333255568221 10.876010092599092 12.61046912358518
Cr 8.515433826968826 10.23971702838305 8.313720599251592
Cr 6.321093406024429 11.379821087302451 7.558767183311211
Cr 8.204902397888551 6.067347807839481 10.450734059257785
Cr 7.338495834826172 11.927579280824549 9.970645583774116
Cr 7.485238932484966 6.243562443785368 7.626502850732308
Cr 12.355805157012423 7.830703385911734 7.675617932524534
Cr 10.880032158508769 8.633606391805413 6.016539344281791
Cr 6.721537162923249 8.119761079478298 11.466830662758035
Cr 10.098368033602226 7.137447281898175 10.719476669276021
Cr 6.2202819303468155 9.653343520596572 9.497155787519501
Cr 8.429904371529457 7.909714507269046 12.58474335341627
Cr 12.283189763072713 9.883227883981647 7.788499722226802
Cr 6.829395266107056 10.99753128024901 11.830341724922919
Cr 10.66578966735691 9.226844655807625 11.778053653601804
Cr 10.289557413799344 10.633455202309866 6.835529627049256
Cr 7.347856907879912 7.005215758102419 5.693170590216609
Cr 8.09530684254194 7.902314725835764 9.292515813379772
Cr 9.943634910913955 11.82206414323047 9.449803884061577
Cr 6.553924373634076 8.848432664196151 7.491996786971887
Cr 11.805036049010328 11.001852302865442 10.241674904898568
Cr 8.650925105191526 9.699882021048788 10.727575820373614
Cr 12.4501750595465 8.112315172605939 10.034257757963836
Cr 9.14726884850712 8.254792016850697 7.012885352214986
Cr 8.118183325134797 12.31265208833075 6.928144401789894
Cr 10.35546141580551 6.918900247206158 8.465235367460952
Cr 9.556012565542023 11.686617316233253 11.760150116729802
Cr 10.593022117188896 9.174212283303646 8.995671301536774
