32
Energy = -246.57965113 eV
Cr 12.52325308174252 14.879383558627474 14.071717949552703
Cr 11.218651783102564 12.342716447990869 13.377124124891921
Cr 9.911957829641281 14.342019683863077 14.477916961999169
Cr 13.560104515499047 12.787527901220997 13.120898114206158
Cr 10.550598359460162 10.407527938126794 14.639607881055651
Cr 13.449924226088031 10.40014109779317 13.391779629123361
Cr 11.447716693083985 14.13431466312114 12.078726219495849
Cr 11.348856160749202 9.638881767694711 12.52035318680213
Cr 9.393027504332197 11.009105735102557 12.11153541030486
Cr 14.556293865179915 11.456897480446532 11.32107737022652
Cr 12.708562763721156 8.004917867894845 12.855483567485175
Cr 8.806683088109589 13.686684866234595 12.664486528880767
Cr 14.868178678238168 9.269899224117438 12.006226834618325
Cr 8.591477715738467 11.651478196525359 14.341576700645835
Cr 13.761414994659603 14.072610110004911 11.650133754614629
Cr 8.913578471452416 8.964025357233814 13.58418671087227
Cr 7.0678527003499125 10.215523651203437 13.09644858933538
Cr 7.277875357350463 12.079098385908466 11.740756932596282
Cr 9.90954005361596 12.766504168940743 10.720402263860501
Cr 12.152636168904255 11.745072423337358 11.191469598124232
Cr 12.231325976578802 13.732873980834325 9.460535447500595
Cr 14.978100217197817 10.174976795096804 9.327014583762121
Cr 14.299728214667422 12.915475090472112 9.510058791581434
Cr 13.169056148343222 9.27539684175035 10.912594400388496
Cr 10.086099950812944 8.344233957507415 11.388780571122757
Cr 7.975508252979026 9.537326992851279 10.974899302939347
Cr 8.496923383681311 11.338862712797823 9.690868451494763
Cr 14.844071790956706 11.73757673030884 7.204537383299046
Cr 10.463745209778411 10.19430466621151 10.038340494160307
Cr 10.810429809248474 12.138787553550195 8.557878356687594
Cr 12.994529724508654 12.838589692604824 7.0831536019124
Cr 12.928698634371749 11.051056043556516 8.968950120006761
