32
Energy = -245.83157742 eV
Cr 10.861202142907256 7.501889001267439 14.824413433313978
Cr 10.265038231057982 12.484896923427113 12.836136985433795
Cr 10.808088624010095 10.913742738263878 10.855104056100199
Cr 12.455310252536245 9.492393292055432 15.244431030492082
Cr 10.14746560732583 8.526846165619498 11.01662499218487
Cr 9.169426109818135 13.399343468296438 8.791014997997156
Cr 8.902000157311562 12.199668065877466 10.62193088485357
Cr 9.215250867086262 7.634223890835079 13.00058940914275
Cr 12.31800461071317 15.525449640569587 10.2728104783572
Cr 13.689058949568356 14.10655656295963 9.137781008664751
Cr 14.952007773774092 13.320618851391044 13.68172330245225
Cr 11.444699167090377 9.742485595235198 13.361791849552782
Cr 9.06968850468802 10.42459851446679 12.734241105985681
Cr 12.612047170878661 9.561394929856515 10.828498091427164
Cr 11.020380939310394 11.61730140717739 14.745928136972262
Cr 9.66690393163823 9.280212053513461 15.107930482351092
Cr 14.398858453105966 10.668228918205218 10.909709205749948
Cr 12.894705937657035 11.954093122438675 12.238273702497505
Cr 13.582162575775099 14.08269955820114 11.78596806428621
Cr 15.679559952747328 11.496882605237666 13.13458303229505
Cr 10.521927515604403 15.55035712989473 9.216528392366458
Cr 10.520297533142477 11.549642585296414 8.575098132816091
Cr 13.86651098427572 9.686139258244623 13.138012106683092
Cr 9.49084106587453 14.666096222247619 11.068473863392372
Cr 12.061125911977998 7.566778422339987 12.702370281603342
Cr 12.93011464255804 11.927160588185476 9.60237501041445
Cr 11.547318692629652 14.129115139255513 8.288286196362144
Cr 15.081779145596169 12.797513479147833 10.973676057836036
Cr 11.387202938114509 14.760990373815773 12.605135929020486
Cr 11.338656035303066 13.417313822272943 10.374697444502479
Cr 13.4037244854171 11.261372816411873 14.536265560578544
Cr 12.428687340007324 13.631650558343686 14.329745802422861
