32
Energy = -245.83986613 eV
Cr 13.283551236493878 9.47088591768226 16.400221649882653
Cr 15.219847741461736 12.45894112763544 9.624257881441528
Cr 13.370267695509844 11.337781613601702 9.525234665026368
Cr 10.812087116488003 15.276550262825603 13.533307224517527
Cr 9.974106033729548 11.230915444853457 14.98315589674067
Cr 10.615299772083645 11.883188393916075 9.392111463415347
Cr 14.388914938692093 10.053958476088749 14.190122101544597
Cr 13.152701134778534 13.86920147203893 9.151986475995818
Cr 13.857047909286559 11.433339690263416 12.183078008820626
Cr 13.556120274035242 9.072061823438489 11.56036029670781
Cr 14.159190239806424 13.650125788583434 11.620032581139633
Cr 11.245642546331078 9.053599929328 15.967542875834312
Cr 11.706376806215163 12.818260977764059 11.305132946191412
Cr 11.338209715278722 11.311210381076753 16.92378901961266
Cr 10.18865246603122 13.026960089290862 13.32440481604902
Cr 11.82064745904582 12.290033606128969 7.238521010781902
Cr 13.3792507833763 11.822700268382208 16.196558425495624
Cr 9.986146438174659 11.272536348198704 12.124511707240067
Cr 11.004313690875962 14.471603869480901 8.988146500750386
Cr 11.573758019887658 13.51713799141636 15.494792439644954
Cr 13.946531344338345 11.838465369210493 7.355233184817725
Cr 12.174728714854474 9.79214184879388 8.44421954610439
Cr 10.303482966467364 16.202497256105076 11.102977151588481
Cr 9.746924591229813 13.842979942660758 11.344642114029645
Cr 11.51736662920322 10.056205135441065 11.079188614180822
Cr 11.033211429068793 8.97327618337449 13.203372854450953
Cr 12.988535178884796 8.14070899804512 14.019618200287923
Cr 12.204270588408406 11.0241581507853 14.247620393220965
Cr 13.526847294942325 14.420666273473868 15.752575543249593
Cr 12.798697751512144 13.733577893556225 13.333648658795068
Cr 12.349424748077304 15.285856945217503 11.154230764965966
Cr 14.536703865868056 12.730662941450786 13.951872327825862
