39
Energy = -306.05008533 eV
Cr 11.846207849023967 11.633511724844038 6.690630890274151
Cr 12.465347855027513 11.77823266179963 14.095164253627457
Cr 11.53448292651192 13.536474842713213 7.976098911520985
Cr 10.158864532811537 8.696555218272115 9.173587632810744
Cr 9.449380569949946 15.13441962449474 11.069898580379862
Cr 9.937330065671608 11.231031797674664 8.018368683851222
Cr 13.349860459952202 13.553077925987633 9.570844350071999
Cr 13.770065798680044 11.85797092891913 8.2311159026724
Cr 11.960368947971666 6.133154333281418 11.166383309126138
Cr 9.813200020033893 12.414851972784081 14.274225849350582
Cr 7.811690362505506 14.638352182844681 10.422774649210368
Cr 10.896723590871407 13.733858878930205 12.97990480990061
Cr 11.244971164926298 7.675324846575773 13.036294728174509
Cr 10.31641975643141 9.923434595768532 13.921456646560793
Cr 12.193500739492794 9.587587343966062 7.69204502542929
Cr 8.252156076303026 10.78904783106102 12.866372927754002
Cr 13.727720084956434 7.822235604904052 11.885044860579859
Cr 13.929163872569275 9.640726564542078 9.77967863683299
Cr 11.553687713843427 10.900766984728222 15.759790595344505
Cr 9.627812727053524 13.184243211582942 9.395879909075425
Cr 9.208619050721632 8.83182235609574 11.920855953528092
Cr 11.372696340671132 13.490681422423757 10.699293607940579
Cr 6.858710534714785 10.068480245635097 10.94847669831273
Cr 15.160948573905598 11.587636355653085 10.34961742630951
Cr 13.485953346654952 10.354102932818478 11.935472830290054
Cr 7.790653549261265 9.603365532235117 8.353003845299636
Cr 8.944994739679615 12.709866793382064 11.688601667544546
Cr 9.896297555763569 9.132629272000415 6.881288620792291
Cr 7.417420454008887 12.294215104125803 9.336900797866413
Cr 12.50797890874974 9.140210298745744 13.748688970771031
Cr 11.627619736582737 9.015613482381736 11.218790934919756
Cr 13.309159335916172 12.458831880018206 11.814389580275028
Cr 10.271323894544118 6.725405285310096 10.75885039138291
Cr 10.950549493928062 11.154159601019174 12.182374824992424
Cr 11.833533229343624 11.231150148757553 9.569680747971871
Cr 6.5753457660554515 12.467251304871438 11.463905312464446
Cr 12.335794110798592 7.816427106845902 9.37023229200907
Cr 9.186005863677721 10.555609898448115 10.259731001525067
Cr 8.004999833898697 8.075241337021156 10.071842776720185
