34
Energy = -267.02086494 eV
Cr 13.415755372898916 11.118413455794558 10.862826120003731
Cr 13.697436699231075 8.8348212978196 10.193057113421913
Cr 12.543822256471941 9.805138020563575 12.566420763458392
Cr 13.174576346205795 10.32860654626275 8.264001963184919
Cr 11.58158038080134 11.797006881882501 9.461444178740384
Cr 11.843702230012322 7.947307612669405 8.947109284163341
Cr 12.224983374151675 7.518872451994079 11.62961597453426
Cr 10.960035096229046 11.572536950078323 11.979988487713765
Cr 11.237699655632358 12.052443711147506 7.013707564611463
Cr 11.105190697811295 9.615616744763267 10.371184775502588
Cr 10.277037438419267 5.946437731253458 9.564140716300079
Cr 9.349415465849523 10.89714435552647 8.548735274395879
Cr 9.183020842150283 12.097107333895924 10.465880976145336
Cr 10.355486240387307 9.086090202114617 13.014404178643135
Cr 11.09664523588435 9.59274762967226 7.637594652429011
Cr 9.579587176002114 13.40738089734607 8.326953568341443
Cr 10.600781801192944 6.837097117523029 7.244980116562104
Cr 9.69276666474864 10.79383477075906 5.711883070977925
Cr 9.906301970698763 7.462052059422254 11.36337420754916
Cr 8.368978781650934 11.116343887483916 13.126767031419508
Cr 8.488690957902193 6.147338670209011 7.465613864628595
Cr 8.488621306269282 12.489768234645851 6.427609033047196
Cr 8.919462631658838 9.945120661893302 11.13065845039381
Cr 6.973277094707717 11.824196551526747 11.260580139567654
Cr 9.050506317583993 8.30425170593186 8.99580162547382
Cr 8.974658602554817 8.759093751656323 6.719517489630896
Cr 7.91805395415696 8.703133987583794 13.286527783130301
Cr 7.916652869318385 5.958453810537215 9.753482185796166
Cr 7.229285175597511 12.66922615684661 8.778553438532349
Cr 7.353528075330067 10.45794477514439 7.420313928470001
Cr 7.541361592513573 7.856937246873426 11.05314631853645
Cr 6.0611649869606214 9.799123723295459 12.187840564943048
Cr 6.702313019193287 7.971745352168202 8.444345480740719
Cr 7.146294754800441 10.155975549056667 9.770190770266165
