34
Energy = -263.60762871 eV
Cr 13.477654438159252 10.549435873968518 13.087738583868223
Cr 10.528173967666103 12.899467396510907 7.827849141445461
Cr 9.450620904403255 7.231894968354396 12.387451217175512
Cr 14.684775159239324 10.198079599714541 9.497383669233482
Cr 9.551490987808837 9.60824725752473 10.667450484892539
Cr 11.600998140428548 10.334190311714812 12.041109107922793
Cr 7.9992775354736905 9.130312358350285 8.836023260718642
Cr 13.538588590770686 11.413582656282525 10.70631902812942
Cr 11.021837227226868 11.436437098351897 9.788921700697395
Cr 9.952586579261801 10.549317514383732 7.363883170023655
Cr 5.990307503794047 8.109025325257823 9.626641810340324
Cr 9.389016321064915 7.405359364377433 15.072003379913918
Cr 9.786406380595865 13.628239156052926 10.245547429927718
Cr 9.350850001411107 11.576955443924966 11.769954151419796
Cr 8.60485110312902 11.83958294386121 9.235902289716476
Cr 6.8598977266309245 12.511794964112326 11.328472893705113
Cr 14.118658215063883 12.485645857864062 8.243913416885508
Cr 11.232270984399726 14.871740703139794 8.469258237775184
Cr 7.396906254143552 10.29204989446451 13.071204031288227
Cr 13.876283648623248 9.010008867941409 11.724223763999781
Cr 11.213311184779016 7.64425290532606 10.970933300269374
Cr 12.525370990088335 10.93650012063671 8.16278921494555
Cr 12.383981979476681 13.254554937190521 9.628112110704468
Cr 12.232561553527205 9.324174011231937 9.801158234294595
Cr 9.545353004687525 9.452538606872386 13.2887902760988
Cr 10.697692426466379 8.743932253728014 8.428780466572173
Cr 7.341452210407483 7.864568605595 14.145779993727336
Cr 11.493902150573657 12.479920152050456 11.971029280155362
Cr 6.826180574834976 10.548716634571784 10.526017484182892
Cr 12.795253260596471 14.168681104680246 7.048025702173851
Cr 11.750278173783872 8.252948731139458 13.4206047650331
Cr 7.527024468710138 8.358277184158286 11.543461476634024
Cr 8.844779859461324 7.2104892659196995 9.589829130976334
Cr 12.166476551154894 12.214535383337497 6.267560604681187
