30
Energy = -232.3157229 eV
Cr 9.810801703956136 12.805147412582649 7.690078047714073
Cr 10.297444937663494 12.309632647096947 10.432924821110419
Cr 10.277667848063219 10.580860011799762 9.250477035450821
Cr 8.481165250480414 9.900790742285352 7.853757409087522
Cr 10.206144046366962 9.822244109248778 11.74215242569986
Cr 7.881912478717193 11.821091858870052 6.597123664042544
Cr 8.403980963941132 11.532379512079325 11.866410730284587
Cr 6.851831222116846 8.15181001600198 9.221143065202549
Cr 10.94250944389942 12.044348183982484 12.835153915829409
Cr 11.863126919035622 8.378645588678983 12.46754076791823
Cr 10.88014138213687 6.159633405813011 9.16194919145676
Cr 9.462077411896914 8.260351884257423 9.79517006692374
Cr 8.321505994516297 8.411241765161616 12.158626837468997
Cr 10.517630029177939 11.105496522194455 6.687186678755493
Cr 12.553002447576754 10.35045507204295 8.20570612325812
Cr 13.769765909687923 9.041497548783058 11.45974539434762
Cr 11.803660182575893 8.47449919813654 9.874141259385826
Cr 10.788708118116201 8.505636375369715 7.546115353419828
Cr 8.657528337372069 6.994116086348843 8.123253411388712
Cr 7.712257310732562 9.889219522434074 10.413989958872861
Cr 12.27717451799354 10.561822780451143 13.447785059490093
Cr 6.218772910827294 10.661436044216236 8.37578568153289
Cr 8.069824333879698 12.10062306026209 9.232181509544311
Cr 10.243785342808861 6.878522022478427 11.451156912486221
Cr 12.394727335049867 10.506592490465476 10.880078522781291
Cr 12.14487061335001 12.355269370406111 8.684690861441714
Cr 6.833514466069419 13.120722057916405 7.7101962133809865
Cr 8.33495946831412 5.944046983045 10.343807794889461
Cr 6.243836288985812 11.886827143731391 10.163099023571213
Cr 12.887147758400422 6.709317227937449 10.883305980633283
