30
Energy = -230.7135486 eV
Cr 10.431663687707342 12.59539136243686 7.187062025865968
Cr 12.662301420280514 13.813753304247841 7.721036527853527
Cr 8.23379543398529 10.201065135507337 7.637282013126965
Cr 12.78041644103725 11.684684303178209 7.907832086719301
Cr 9.88495375546386 8.566327544823034 8.461723422428072
Cr 11.853005617878475 9.122975836598187 8.03310926177788
Cr 8.563992759588645 6.457638810428543 8.25975985137544
Cr 10.42943258879327 13.650515731227332 9.102075498264561
Cr 7.507667886066929 8.730174612007811 9.253647477717816
Cr 10.50604516213447 10.969646944123365 8.650635515553377
Cr 8.313892258763692 12.278195583702685 8.506620150918387
Cr 10.708559353119357 6.1286567253580015 8.398523048398477
Cr 7.612750714232599 10.884196386768542 10.303181674726353
Cr 11.79385330514297 8.09905156114271 10.105559291964692
Cr 12.251995043450773 12.57470240468979 10.044627703568013
Cr 12.181004949773477 10.404593340679732 10.385573082426436
Cr 9.159498437212898 6.937395125702123 10.603859168442936
Cr 9.72779468300693 9.341805749546806 10.765145800596502
Cr 13.483262675994661 8.526896965694215 11.88402312600191
Cr 8.093333932182624 13.592151596070858 10.54669934404654
Cr 7.508971438415509 8.195905168124032 11.613618872995369
Cr 9.868224987751383 11.83480619167352 10.838701441720525
Cr 11.009703675223648 7.26144233995341 12.143621417039734
Cr 13.70232380802534 10.547385905036547 12.13570111734716
Cr 7.6473260858942185 12.531757266794168 12.194476778408692
Cr 11.235243110371359 9.655241094064364 12.487802544336443
Cr 11.691258644642357 12.273424376246428 12.462313324627697
Cr 8.52594588914509 10.192406392363635 12.501841109110883
Cr 9.343540239764977 7.9290736065819285 13.193993945772768
Cr 10.01425595687614 11.744752577152829 13.395967318793303
