37
Energy = -285.97332652 eV
Cr 11.107260737179853 10.02748776369192 6.178021928213169
Cr 8.644638915345627 9.70756985820419 5.297638421988436
Cr 9.751054401438646 11.84198099379768 5.155936386826618
Cr 6.28893237884973 5.507431198999788 7.074395600984974
Cr 9.382312498434148 8.295689730807837 7.394309093618903
Cr 9.865015709768105 7.312417771335384 9.789611433279696
Cr 12.02841778705503 11.703921872174877 7.923017867782528
Cr 5.633000851815478 5.6303544035157636 8.951596441597967
Cr 5.988548867025022 9.517012492597104 5.2697643005726995
Cr 11.241892945038657 9.476753913834994 8.848185829684443
Cr 7.985044506735387 5.646526836869548 10.459867097355447
Cr 9.492317462301981 11.079071274239563 7.566026770238499
Cr 11.931457641417213 7.216046087119324 9.847535303843907
Cr 7.4751810640658345 11.956175521017547 6.138822281280409
Cr 7.043117242580202 9.900103864373785 7.426435119831726
Cr 10.956891246461668 6.2340588270469555 7.580022430565702
Cr 7.523177999679283 7.58574269537344 6.070250565264507
Cr 5.449770684690124 7.8854277916145 7.360792918173247
Cr 9.704388897974317 13.176465795684717 7.299730072795072
Cr 7.313147157292643 3.5226488255279857 9.21255129624502
Cr 8.433046899047792 5.8454851841860505 8.08233174944066
Cr 10.139008014260847 8.0531789870388 5.3166222410692905
Cr 7.213560261795894 7.607319355240511 8.826473957601154
Cr 8.695361787633297 9.562943740468086 9.472943570589855
Cr 4.6293810057805045 8.065115903902836 9.448766386208666
Cr 7.5451458189748255 11.790894156640057 8.949945807694064
Cr 6.255147339487355 9.487332954492691 10.078366613620384
Cr 12.04230148203717 7.758684997453191 7.171089244842705
Cr 10.235929218559374 11.569175500202055 9.8370333777914
Cr 6.177982790253905 3.7748069890704286 10.711762831441487
Cr 7.949928073571015 8.165497004984022 11.452356598878366
Cr 10.132430599990562 4.764185844943697 9.903867360489238
Cr 4.93787044746905 10.484706097457913 7.953192002701505
Cr 10.401133017589821 9.159191047233397 11.356204640876337
Cr 9.475183373577206 6.569901555669265 11.953517348802096
Cr 8.394976688584684 10.836942100576636 11.138992784537448
Cr 6.109889730707973 6.855596607082601 11.075867867742401
