37
Energy = -290.17240015 eV
Cr 12.830817298621943 12.613757632591527 6.299686495890771
Cr 13.537602418680377 12.27540892752813 8.67015021596946
Cr 13.915723119255542 9.729213827138766 9.351902702710673
Cr 12.878141011606392 10.228178913528584 7.089958960830262
Cr 12.507358679638367 7.999838427738592 7.67441607105895
Cr 14.294204940369132 9.215015941106554 11.674895750835299
Cr 14.219921010561897 12.012388106988896 10.96486570726028
Cr 12.437175944978632 7.9264230162525156 10.10241031671832
Cr 14.131578294625927 11.481749665581011 13.278621968454484
Cr 12.434860317273367 7.170316055242335 12.33143437439844
Cr 11.868257479233527 14.185107364044383 7.645151102266175
Cr 10.854368150081454 9.689988737969111 6.047348165110084
Cr 11.722093401179325 13.20851538473883 9.975943427460505
Cr 11.006647792728739 11.596863256535281 8.030149045127757
Cr 12.505804296718123 9.77987439639466 13.06995653339476
Cr 10.714678342610997 9.396306046878093 8.609450126685784
Cr 12.254041072618017 10.734163848833923 10.708533813728597
Cr 11.892598701405344 12.461441016291985 12.521784715043225
Cr 12.121614585968812 11.38117487067293 15.077544129279312
Cr 11.322255455892197 9.552486995017652 15.48548700236393
Cr 10.561330350856801 9.092080135202384 11.09921651775464
Cr 10.463935415838455 8.244611000785765 13.463699550483817
Cr 10.346057425624437 10.868152773252207 13.192277407901821
Cr 10.68908034928047 13.452779179058949 14.060838425669251
Cr 10.132731446815987 14.130476016101428 11.459058149194787
Cr 9.518384041206593 13.422043054004757 8.722500285871963
Cr 9.088356424433655 10.631163753705394 6.802479006317918
Cr 9.757704094533391 11.458372009165153 10.601920236519435
Cr 8.402193101849631 9.14825802277156 9.966541755057406
Cr 8.228989451173433 9.813909773651043 12.316075844932008
Cr 8.729822598333618 9.685996404156564 14.97950826414888
Cr 9.45963826677439 11.500863708550087 15.452828286200706
Cr 8.85216292497884 12.509359643158401 12.808991250318753
Cr 8.253095355442921 11.255450591893382 9.000610309317947
Cr 8.06794587462987 13.55984283685772 10.436497766289543
Cr 7.053221862833202 11.50151530490065 11.197881949734324
Cr 7.110875362406569 11.252180022772272 13.994651030760414
