30
Energy = -231.20663606 eV
Cr 12.009597435510026 9.271013052560335 5.616394344810999
Cr 10.75314457683291 11.325511226111272 6.226460968432874
Cr 7.8133749289893135 11.400947507029871 6.71287068661337
Cr 9.454192408496658 9.267955101103674 6.871977758113668
Cr 13.599160566547095 9.96316601719096 6.99469692231752
Cr 11.69519703275479 7.8248778347496595 7.682711970096201
Cr 8.621262019831404 13.557634213412419 9.1380918373337
Cr 7.3963493522024475 9.837711810693943 7.66480264519056
Cr 11.55152181591272 10.127345967185326 8.178065529166814
Cr 9.278713503287674 11.215246856941532 8.274167189982414
Cr 10.233754697189156 6.662237008123453 9.423372592186839
Cr 13.550274473162329 8.437516754023793 9.10024988065283
Cr 6.964892978974171 12.11751515466673 8.904929689770661
Cr 9.417276895291835 8.75388817427188 8.907626607229329
Cr 12.972680006543426 10.503487293242953 10.087833181278935
Cr 7.817487025896722 10.169720986290214 10.146347121939531
Cr 9.078472236394054 12.122184464649417 10.941061493852422
Cr 11.11404257050195 12.398172536912623 8.914633166421636
Cr 5.684328760064554 10.708797158928649 11.18011614715261
Cr 9.27844898418702 8.335806304250251 11.292531910346346
Cr 6.87501031461086 12.515289230318642 11.415044573422806
Cr 11.619355377864176 8.194281735831774 10.459771639784526
Cr 10.476461263232611 10.414405057807581 10.482432538953715
Cr 8.166458219766968 6.471368762481216 12.536598477115849
Cr 10.295918342989475 6.305573616260663 11.83174383325883
Cr 8.060097556486623 10.233884727964147 12.654204795122775
Cr 7.193063966107242 8.540061376794432 11.794081290202193
Cr 10.755938451264406 9.94431177229513 12.591020107125711
Cr 9.110639198617575 7.878265201258723 13.519009198793094
Cr 11.46799107925914 7.806929135417906 12.762257942101032
