38
Energy = -297.52050704 eV
Cr 9.153571575152212 12.705092731129742 13.9877126715737
Cr 11.710610733227865 12.961887425792556 13.691145150250467
Cr 9.892508044229709 10.47742035236845 14.285734945126285
Cr 12.128230691225442 10.834926480677796 14.150065691752115
Cr 10.106910212056796 14.51313498700459 12.240478853903843
Cr 7.683076936482786 11.05916367591909 12.998694105644319
Cr 8.243463195747186 13.53616624327389 11.958083910456986
Cr 12.890971839954085 11.031374258729656 11.927648526687124
Cr 11.26924402406106 9.322610742319862 12.232088070857776
Cr 8.783075014142772 8.610017379859428 13.457127180350348
Cr 10.102774249119626 11.814242424037435 12.292733792731383
Cr 12.011500012010028 13.061081231934109 10.977819049417977
Cr 11.338878865749349 8.232292634902429 14.357581924838188
Cr 12.635210071353649 7.794806571663599 11.55276726745375
Cr 10.094994460745905 13.37416092552814 9.955451781341294
Cr 6.8351776108547755 9.386794547943357 10.856612753669756
Cr 9.055902030693463 9.475319414436468 11.512429859483964
Cr 8.403208891548493 11.575922868558468 10.543988349089531
Cr 10.11745205024814 7.077590361768532 12.019900188140928
Cr 6.645159725454067 11.275479753477274 9.204492128544787
Cr 10.83339892923425 10.772996859438372 9.992160511129315
Cr 10.642892796556813 8.160924043042165 9.995249023986686
Cr 8.636498991521332 9.484512239201242 9.007955047725359
Cr 12.937866274505124 9.282413829595864 10.120235714868791
Cr 9.31055586079536 11.80291884525749 8.208934237367936
Cr 8.6592035286879 7.303442505422171 9.556032494831765
Cr 6.4588775630203745 8.869940022882385 8.27235452269797
Cr 11.222872279405077 9.646495891307692 7.966766806286507
Cr 12.933772960669538 11.425602667605101 9.045599959173384
Cr 12.545515762702163 7.633262760411222 8.6830620457084
Cr 10.479769724594629 6.962463686404245 7.6701057115998985
Cr 11.467738151782575 12.396783868918066 7.980009386156065
Cr 7.603498362263213 10.934217365902786 6.8329569707062685
Cr 9.18425974730882 8.519308591672688 6.9888501263990666
Cr 13.715051739764037 9.473368076694994 7.545521685938205
Cr 10.342665429516394 10.849153010360299 6.014552850752537
Cr 11.815636001383428 8.276556001154871 6.092614310066233
Cr 12.836094436777502 10.82502483991599 6.568279067648195
