34
Energy = -265.31456286 eV
Cr 10.888637210873755 9.405628910378956 8.255826663043319
Cr 8.866800819666967 11.68929833661961 8.471422266219903
Cr 12.77394682448489 7.946307831624894 8.491250160112354
Cr 8.881624396544908 8.25206259029739 9.768462441493654
Cr 11.986959393856111 9.375941566449553 6.143346881402394
Cr 8.967264540445207 12.959113378123646 10.63449523350091
Cr 11.287485925619965 11.724874824612105 8.108272337409174
Cr 11.55631259955142 14.558971988459135 11.270010861187796
Cr 13.486308849902118 12.062754983927665 12.12093785727399
Cr 6.609207048988553 12.152498270465406 11.781947952098584
Cr 9.127187098923605 11.281879226985577 12.285969152871369
Cr 13.515740438560268 10.566716761247315 7.959272555846335
Cr 8.570729490520618 8.13992634617899 14.147696095802687
Cr 13.998648486026044 14.264325984975413 11.357165821352458
Cr 9.85554436651012 10.105577995747066 14.322545000713943
Cr 10.384446113921125 6.4869535090440875 10.674125251667714
Cr 11.536994114707374 10.182158135347036 12.544009046670809
Cr 9.216099712997993 8.672548194244714 12.033284008760047
Cr 10.052586656132805 7.214553039588548 7.757121581345058
Cr 11.462265388612032 8.326152024116075 10.737350293100203
Cr 11.369974079882908 12.273820802281412 10.738166073262407
Cr 8.051744237162836 12.940928545851596 13.537311464440378
Cr 12.79468365478987 10.26179431773367 10.1093874783696
Cr 8.266852257879298 9.382321952521204 7.95225771224715
Cr 6.898893951365603 8.342858658952672 11.617054268987154
Cr 7.143380994204513 10.1781454788072 13.253128875848361
Cr 7.469367518422622 10.394733328893555 10.446484702051471
Cr 11.335614384636076 7.817563796357106 13.283022089458862
Cr 11.008290295467996 12.474435599522426 13.23751000638961
Cr 13.215449381303575 13.162522127585607 9.365144202718787
Cr 10.063107653235198 10.353798023752883 10.193726182026083
Cr 9.62904907150169 9.101756595480483 5.967902790886247
Cr 11.808236616306592 6.983723215864184 6.257331472487781
Cr 10.637103376050296 14.071093203764068 8.85176457756322
