38
Energy = -298.28608096 eV
Cr 7.714388846985945 12.75194215715205 10.750024898630011
Cr 10.817058913010305 10.659537424611846 6.763936687038966
Cr 7.564379810238147 10.243526812495688 12.306262673008858
Cr 7.627353145550466 7.226951144240172 12.503820688062717
Cr 10.129604363927854 6.409281581892004 11.527272455818773
Cr 8.817667332916484 12.321445246118715 6.211985166093122
Cr 5.604571531341385 5.903613885600014 10.832574943642701
Cr 9.962711637107631 11.168827103531841 11.1023666675071
Cr 5.981213119765283 6.912681899505955 8.448728230734993
Cr 6.517853482793953 10.886504501180271 6.2499613251123876
Cr 7.96051866743244 6.492925228191096 10.14556856191466
Cr 11.80573450896017 11.31242750381885 8.816039643769436
Cr 6.010184266173677 9.607752369836632 7.998603328433267
Cr 9.628056001119083 8.308110769654723 7.1022257928453865
Cr 5.685420229717422 10.948623968406887 10.193065644025989
Cr 7.310993632226597 8.310244488075986 6.338053960451473
Cr 9.505118492957383 12.342531256914356 8.80072775590478
Cr 6.803218719498354 12.375654777011283 8.17716192141759
Cr 7.786598623540607 10.635776396913005 9.87248797015324
Cr 8.4664433860179 6.12812428369555 7.566629150813122
Cr 6.346150917366422 8.52091570970241 10.512690535008709
Cr 9.043677609163149 8.677478244815939 11.29961650147347
Cr 8.937756501208638 6.823868559956532 5.148251125214029
Cr 11.921449794664051 6.176160628485469 9.378508484038283
Cr 9.699304460797233 4.77847807475497 9.266696323185997
Cr 6.960226200640501 4.70831760241982 8.703716784925348
Cr 10.847519972527392 12.977480892619127 6.876799920876378
Cr 11.143275013734128 8.075133722415421 5.594929486167302
Cr 10.221539425240978 9.7950389722698 9.152651203657905
Cr 8.009279393097028 4.61582874484642 11.362122086083126
Cr 8.9985909233829 9.785091890986989 4.983193953929639
Cr 8.446687725395922 10.539666620328548 7.448245315439638
Cr 12.09038580951559 8.552360444471038 7.889736365790666
Cr 8.012244473861074 8.406089535652043 8.816584592965851
Cr 10.920298468127287 6.034646007630471 7.080124962013739
Cr 6.455295410046301 6.081781700390135 6.296057156806306
Cr 11.514974654034157 8.75366415715315 10.70867908215344
Cr 10.208460900669165 7.227722057008144 9.250105019644982
