36
Energy = -280.99197481 eV
Cr 9.531416830464108 11.049561425551795 5.898271095329746
Cr 11.410928903929362 10.625932947234622 6.7427596048158716
Cr 11.066481427515468 8.661166406257667 5.57342602508128
Cr 8.999163446979892 8.879590975899987 6.932484563913896
Cr 7.429036168541472 7.2337122098562 7.062036760715642
Cr 8.05045180457715 11.332417456734799 7.448714680041171
Cr 10.04848735751084 12.94254663126972 7.024779132712776
Cr 10.164552815687228 6.469062836198164 7.046162376153556
Cr 12.543586848251332 10.176761758800268 9.000994808020472
Cr 9.98995210906207 10.419022590342871 8.453880345922245
Cr 7.403494467649584 9.307808186658475 8.73684204201308
Cr 11.789465606263548 12.532984466741695 8.54558655985863
Cr 7.795021283472789 11.254836266221906 9.880485777002066
Cr 8.50319868097265 5.35594098964052 8.190689019268694
Cr 11.484610537932891 8.227299328294091 7.7303129541508016
Cr 9.374912985453904 13.073487551841652 9.152293193230134
Cr 9.194587469634369 7.7848269502509995 9.144389832949983
Cr 6.708587863961074 7.006510936786423 9.330723897326058
Cr 10.747343765244256 11.342707064524811 10.58133431970714
Cr 10.96499253169902 6.179433128276618 9.40141374222925
Cr 8.944362667763707 5.458918741113278 10.391048926305174
Cr 13.298847592675203 12.151696032257929 10.303008789556761
Cr 11.142050592590355 8.70737064959944 10.141217328423803
Cr 7.835878839926968 7.584380827731153 11.151870716180982
Cr 8.920930970153664 9.665835422841887 10.969069413725995
Cr 6.205711841537776 9.444514178657343 10.6101804062133
Cr 12.78599942352548 9.903158947830791 11.53987147129027
Cr 10.095284640438086 7.375871577606659 11.735531874916147
Cr 8.787709395480574 12.778866281316448 11.375738629424651
Cr 11.17186182823562 13.58721911237043 11.121501558789703
Cr 12.236557033346932 11.687333581278901 12.485484622253821
Cr 10.85636733129158 9.487610090435911 12.630572211706939
Cr 6.671299114901566 8.925756159276835 12.87008234662347
Cr 8.699317826957014 8.943737332312212 13.455410155841827
Cr 9.829981116701957 11.359200881803961 12.936572370824772
Cr 7.3534015391170655 11.11875473562751 12.441093106925631
