32
Energy = -247.5669134 eV
Cr 14.556047456840288 14.13101296590867 9.847721814668004
Cr 11.828756099575624 15.029414315866013 10.014656683888822
Cr 10.402514861999403 13.949013038575153 14.45979069156396
Cr 10.215053551795302 11.06605051644587 11.232457567156104
Cr 12.681056905450433 14.78158821764165 8.188722890958886
Cr 11.505552456243512 11.679359915136239 16.032923393838274
Cr 11.083192794559572 12.778685049433449 7.760107567263942
Cr 10.33937089811418 10.813200184570224 8.771583776193701
Cr 12.87847279090489 10.879036845097724 7.6891668127157855
Cr 9.038831807240399 12.996259301823075 12.423926419485595
Cr 10.556006740901982 8.662250814350118 10.443751667281884
Cr 9.700053929720788 13.211823856800008 9.917468935327427
Cr 11.274263812848362 13.37457865213123 11.990236126762921
Cr 9.475782647717079 9.300827229652201 12.869289114019885
Cr 12.400363260420109 10.048203694666638 9.957996908433843
Cr 12.565976470115224 11.368912754777437 11.94493961906711
Cr 14.475531779391618 11.407570599327403 12.980380111996036
Cr 14.639471272286112 11.53446330672023 10.354338275686457
Cr 12.333902310583143 12.534956865313312 9.620639043314997
Cr 9.18706325241057 10.144305925935903 15.465530063790997
Cr 12.975884840950712 10.242626568706747 14.136790010076824
Cr 14.069515709163587 9.314533699196412 11.65090982876718
Cr 13.704390888060923 13.717028739571692 11.756092535034337
Cr 9.002967825298308 12.6993679233656 15.233455014729632
Cr 11.77060007886604 9.188933199744737 12.493747112137802
Cr 13.970365444740292 12.504248774031028 7.977790702946572
Cr 10.830136498147322 11.390678261687084 13.80616632565349
Cr 12.796193296064862 12.965259355093055 13.930419119065204
Cr 14.912001709084684 10.042803427819706 8.937210204397005
Cr 8.206030870507623 11.112201930929537 13.193876700272828
Cr 10.876815227408292 9.106391823805668 15.149138808189688
Cr 8.129026056247001 10.807602559271162 10.630456657059142
