31
Energy = -217.67189378 eV
Cr 7.898619719001064 10.809265509053775 7.024474882172243
Cr 6.827224131605878 9.207734507323694 9.109732216946716
Cr 8.236792250229707 8.34753671764756 7.392536925788622
Cr 6.71835119043921 11.794383042014987 8.677981502307192
Cr 10.074249520584827 11.217899278000537 5.977136016740608
Cr 8.27640587091659 13.302601904024003 6.769981113998921
Cr 9.136113659923748 9.347204545649916 9.71167973795615
Cr 7.9268896091984 11.149412677833725 10.69732373903174
Cr 9.41789074174279 11.772882747473165 8.559629277457796
Cr 7.324990220143912 8.576919982139065 11.475170976071363
Cr 10.248883799939962 7.09037185519637 8.862636985875639
Cr 8.572604874935038 6.953556970148173 9.785058856046987
Cr 10.421480882096334 9.547201435454104 7.695383797785063
Cr 8.468367410741717 13.69365093640926 9.237304985642167
Cr 10.725141513145386 13.229165466256223 7.235897144292994
Cr 10.912757186693982 5.667491343319032 10.988269952782947
Cr 8.957694640580131 6.596886146019279 12.415716420666373
Cr 10.720906690216328 10.995515343750794 10.375023766114557
Cr 9.08437441390222 8.026631575070915 13.435745696633225
Cr 9.403840889223499 10.255383466135628 12.318420172605101
Cr 12.034022967688115 11.332956693374475 7.944309525363021
Cr 9.351044632073735 12.743317626599003 11.19336560668201
Cr 10.472262787788237 8.257087849639653 11.230107408709726
Cr 11.414048064490236 13.424901351234324 9.636125882761972
Cr 12.101704135535005 9.032063458869853 9.3763750261591
Cr 12.263711260428074 6.563712599805809 10.53276623383532
Cr 11.545835899953092 7.0159148904373065 13.220073787045155
Cr 11.61796855446273 9.640521814752328 13.196731230380847
Cr 13.266006701518116 11.346151337649601 10.090360875768273
Cr 12.073105845473759 11.96268389097215 12.054769049030448
Cr 12.720368185200261 9.290394053260556 11.92969602673429
