33
Energy = -257.42768078 eV
Cr 15.248057847514367 10.783540306235015 15.49333514623368
Cr 12.740277166712827 14.01074712944754 15.538670678283045
Cr 13.622907976580171 15.260915971064101 13.691774758050165
Cr 9.253101242775108 12.60734126725662 12.531285852188253
Cr 15.469006179101235 11.79464299187058 13.431197805385265
Cr 13.491078555165474 13.009101069826803 13.188643636587855
Cr 8.025593424558156 11.364145994720161 10.840361662903582
Cr 10.899839387193042 12.75754941630653 14.334155603049314
Cr 10.319165313632414 10.559919501235205 10.839028828926198
Cr 9.782560735054156 13.853764267995697 10.794458746098961
Cr 12.494346363166072 14.77230029772712 10.985144862524796
Cr 11.794176155841253 8.5616925918119 9.08483281311313
Cr 13.903444600419173 9.480735317372096 13.64063621048346
Cr 13.177705293392876 11.64672445543219 15.144019157283578
Cr 12.41437802608293 8.9423547500226 11.471473999321299
Cr 13.518362507120433 12.972242357245584 10.101127405970601
Cr 15.91330045406045 14.221765503862178 13.758328257146774
Cr 14.036016067757801 10.84023257297151 11.603664070421429
Cr 8.120270826970318 9.126237923190438 11.788780535595317
Cr 10.408927444584839 10.328903630858443 8.178240047870656
Cr 12.726826438957307 10.747065422668818 9.463743556117008
Cr 9.255610811340834 12.182698080501206 8.920466983674894
Cr 8.441215025811045 9.519251204023705 9.1235383858776
Cr 9.896673836804462 8.114180592250849 10.53481215488957
Cr 10.658003974627324 8.390925116123958 12.770895496353164
Cr 11.23160937437087 12.655616699710738 9.3076859335135
Cr 11.206950460062862 14.563587583067012 12.90256136203637
Cr 9.502220024188922 7.780632930698119 7.800396564729135
Cr 11.91089426176199 10.661307730849071 13.340196239189769
Cr 11.75329110304145 12.260209403821536 11.655976401477059
Cr 15.165039586201415 13.366989133454954 15.717884125175322
Cr 15.240131674611558 13.7644979979392 11.509953393208301
Cr 9.42746439369505 10.368289796823747 13.328004299141098
