48
Energy = -383.67613153 eV
Cr 10.575501157386709 10.234918690841479 4.540913461423815
Cr 8.093166198841477 8.72635333469022 4.394105757809515
Cr 5.9320745131594155 9.623764295597157 5.3413837011343865
Cr 10.36393583596468 7.480179842232888 5.133950353326457
Cr 5.895390330875511 7.070817419457658 5.317322629843711
Cr 8.137618717043283 11.01964803327989 5.894480912205224
Cr 8.346628151038743 6.738250900764801 5.685094769553528
Cr 12.046284189437026 9.100458928451324 6.0682748927899635
Cr 12.715910820717061 6.644914960525546 6.261436605289179
Cr 10.359751551095938 11.605559182886772 6.443880684184184
Cr 9.527568149200599 9.010967142829935 6.515706759352391
Cr 10.086281822539588 5.345769647576475 6.850157740255596
Cr 7.3411026583527805 8.543167037453802 7.030178140982671
Cr 4.612761941745717 8.774358075981246 7.247641277851216
Cr 6.098329934346146 11.025156980502954 7.593044644365594
Cr 5.781428115386374 6.7342468073398525 7.759233683281644
Cr 12.623371628137544 11.183970277560677 7.028286854122383
Cr 7.227049087849506 4.913792424430791 6.950226185738278
Cr 10.88867394812164 7.317901755862938 7.772982478453072
Cr 13.057153580444835 8.527466234205 8.2407924864757
Cr 10.984175905439105 9.89584343528716 8.277484902837413
Cr 8.410801099490852 10.89095105946635 8.344766332967536
Cr 8.377019743319044 6.602063302872475 8.325565213734388
Cr 12.105339203838577 5.95487718978425 9.153624440217612
Cr 9.271997270489717 4.873460327337894 9.439731711373359
Cr 4.298397093073199 10.344867287416063 9.716636539218207
Cr 6.414529892123314 9.125552917368903 9.011356600492853
Cr 9.101001381697122 8.488311727398633 9.175963950114564
Cr 10.600972740289057 12.27910044379624 8.792573756232386
Cr 4.78152171172016 7.509073465022993 9.734167244759021
Cr 11.797376868789808 8.335456545604812 10.210729213156961
Cr 10.028292025309751 6.606877385849185 10.29683696033912
Cr 10.15142537624996 10.31158591371329 10.421814961606358
Cr 8.487587784706854 12.318195716175174 10.544883188647649
Cr 6.24147473525717 11.623159756319609 9.878204536565157
Cr 12.6902683654184 10.697252351500493 9.947024685968511
Cr 6.610900508732253 5.350466332291946 9.727107077742204
Cr 7.3492588954845655 7.335529374785945 10.676987196796311
Cr 7.8808441128219675 9.91643585406661 10.843034747362685
Cr 11.098870673125797 11.919703285849906 11.553172818210165
Cr 5.501562638774632 9.141733767026112 11.480153492923801
Cr 9.609874188718234 8.365225433985454 12.022982731841362
Cr 9.218475860769459 10.734984834565521 12.821512448942773
Cr 5.565665384586355 6.706888352432298 12.236566874848423
Cr 6.36838182093367 11.267983672895488 12.221369902476603
Cr 11.730184728261541 9.514175262712936 12.344529855589352
Cr 8.491609305665463 6.013301995673864 12.161274899908769
Cr 7.44775361598111 8.580826299080147 12.896394959441333
