43
Energy = -333.56220026 eV
Cr 15.782708415563063 9.659630084182142 8.49144564941181
Cr 15.898977158011414 9.341711649494682 10.998436405010509
Cr 14.230748776421791 9.893972511081463 7.557542370733742
Cr 14.316183426939878 11.254915605136917 9.848578278968237
Cr 13.39800116964091 8.843934491547865 10.034981202364701
Cr 14.975912593095494 12.583884483016055 8.391256339113044
Cr 14.682884973132015 9.8399884378996 12.284312299225782
Cr 13.746477677578001 12.197121237214269 12.3662945648725
Cr 13.155064182741489 7.506623145959811 11.303353023917454
Cr 12.542555393054506 12.932801911121338 9.659406899937553
Cr 13.651891222055877 11.098460467569488 14.313256124278317
Cr 12.011879411872496 10.376284635008641 8.762930868644256
Cr 12.246598369090346 9.84061063359566 13.004339740776697
Cr 11.930585817250666 11.182571138879377 11.173257497148725
Cr 10.998208709366313 10.520251796982128 14.928023050153518
Cr 10.835516055614004 8.586198880821996 11.547613530703764
Cr 11.11294458120946 7.689025274729161 9.100909863285514
Cr 12.863293845475075 13.743264218899482 14.272999823669835
Cr 12.312673958885568 14.27402208830414 11.709678514653222
Cr 10.716549385304395 6.3141852382849795 11.038652219298038
Cr 13.376442455187034 14.711974187319331 8.701690884286606
Cr 11.297403148832826 12.304888443398513 13.54316898716764
Cr 10.761319853912818 14.868723719987242 12.559950582361978
Cr 8.881471934308426 7.682185544415637 9.607318236129005
Cr 9.554192643144429 8.878404961869164 13.545460407096604
Cr 10.64079403953054 14.754253172679276 9.653519694533985
Cr 9.988867705812607 12.79457760716391 11.02403544771561
Cr 9.619792336968219 10.835431001448745 12.448052878359734
Cr 12.960048548240351 12.178667513345635 7.392670867740886
Cr 10.018702343558212 10.025967298077987 9.878681710522041
Cr 10.48477296500713 12.204223488915535 8.684500014139305
Cr 8.807183518863384 11.77250279514824 14.626650473949157
Cr 8.416182634838814 7.368279700758512 11.896993370902225
Cr 9.005201545752017 13.336674210337735 13.613872206662775
Cr 11.383765385126038 14.080793508281914 7.5429473382049315
Cr 8.220390359981728 14.260546906083814 11.187001981614157
Cr 8.202520242574202 9.581662923925984 11.102892248827736
Cr 8.69439575023034 13.790520162361736 8.832363908278488
Cr 7.270386966605169 9.801819306427813 13.444461409107255
Cr 8.074440155138747 11.728872797030933 9.930461812906909
Cr 7.4527768679561 11.952982439975514 12.194773778901839
Cr 6.057509861339178 8.32272004881874 11.858389053003616
Cr 5.918909998463615 10.421265518256552 11.116860176243177
