41
Energy = -316.36512702 eV
Cr 15.254920244607346 9.137444355734193 9.086465876565292
Cr 14.624785266026272 11.270876815801794 10.676908401513305
Cr 14.646324116378066 11.604937697000832 13.327547138696993
Cr 13.5919651335099 7.942226120931694 12.853871857068963
Cr 15.172723192649908 9.417658149381525 11.666176146529258
Cr 13.94269179679722 10.379692712252098 8.413311174378622
Cr 11.901034052790736 11.74023642941761 7.161833563625447
Cr 13.367392719765327 13.130737168180385 9.33839413715302
Cr 11.932534745832506 14.095322276844316 10.998789936982005
Cr 12.054872794270498 11.434078263372182 9.951030493879513
Cr 12.878499528695649 8.918329300345674 10.387185247955367
Cr 10.96626155907217 13.221178732736934 8.64761521956283
Cr 12.818680818632926 9.494121665899117 14.37742685013971
Cr 12.70751764413169 10.51396286544917 12.026417572407315
Cr 12.005292855753122 12.103788296270505 14.351577109409579
Cr 11.55683132362421 9.137138814387978 8.543832991937318
Cr 13.589562151042962 12.937794961044231 12.349680919029542
Cr 11.67207622626736 8.172007725757874 12.27727799407671
Cr 10.28367016607376 9.983393662044667 10.748732579352616
Cr 9.871106230841928 10.735195337914407 8.264140961465227
Cr 9.737780284232924 12.591118151205272 6.299410330037821
Cr 8.480445713766349 11.430979135866322 12.578834683815963
Cr 9.05091139735681 9.911879068969707 15.103989636420696
Cr 10.738437536847615 10.27371050912155 15.888826055109712
Cr 9.869419013523286 14.780044436963776 9.92794255919726
Cr 7.4188174531843645 10.95669603136901 9.08765695476678
Cr 10.205436004572729 6.2732149758211015 13.464597508674021
Cr 10.90364858652363 12.410195736977068 11.989384766408188
Cr 10.484843250803124 14.698755783112924 7.132721187135842
Cr 8.91068688176376 8.623729907666602 8.855443172291398
Cr 9.114864371853292 12.15029368856264 10.317408199173085
Cr 10.729507202306415 7.713730172166492 14.561879914096446
Cr 10.05977651043399 7.587844037059323 10.628155784611865
Cr 8.014758418668478 9.593119929530015 10.875346273122465
Cr 9.207498765080867 14.073247531662153 12.175990911110791
Cr 9.762626300656974 12.393229376668106 14.345717708721672
Cr 8.600113242441175 13.065036913871793 7.988586755800889
Cr 10.706077895362084 10.190916646416861 13.318446226288042
Cr 7.581214002455741 13.644425113941123 10.620138628163222
Cr 8.261303300658515 15.343850664594886 8.406224080820644
Cr 9.016418029082509 8.617187566024112 12.678409220841914
