45
Energy = -354.73160509 eV
Cr 8.243661350897387 4.631739653203881 7.630215207781193
Cr 8.895418644241616 6.440522976046719 12.062860867176525
Cr 13.117985951507139 7.685235071010359 12.027294183377833
Cr 6.9149253917208595 5.431592661344862 10.495857574554616
Cr 6.904751470884594 10.013982597058423 6.783917838066264
Cr 4.880052880923225 9.39305354773603 10.401082834532266
Cr 11.637470405101821 10.000132671166787 11.7780504499508
Cr 7.696629023097229 12.453172039658526 7.064077328963326
Cr 8.611472299060942 8.316670392027737 7.182280924841514
Cr 6.970961514112477 11.408725143110455 4.62033019523515
Cr 12.58668863939441 10.172035216045263 7.5492475952975155
Cr 9.74232192807161 12.816047580638374 8.055503015143701
Cr 12.044244610595664 6.5429260204328115 9.59296195889107
Cr 5.309495574551563 7.605065127980868 9.577874026992577
Cr 10.88769221985907 7.763144390349432 11.242448141349888
Cr 10.974580127921111 8.790509693321491 8.800426962963918
Cr 9.034742660611686 10.831163787775822 5.816629551535793
Cr 9.10453060785372 9.026226667287553 12.761617059212135
Cr 7.023581740356691 10.447639771931168 11.429161878985774
Cr 9.983707324123285 6.502183412527419 7.667785285503043
Cr 4.45723665397974 9.473434862245188 7.7418269522478855
Cr 9.619478192039725 5.575292464999171 10.12102680968522
Cr 12.166787328221542 7.513076463786098 7.363079319194067
Cr 5.614984943240644 5.516965367662142 7.767973809744629
Cr 11.215116809726945 11.49113918312994 9.526252629915152
Cr 11.357399825499108 5.3848952054514205 12.093526612853566
Cr 8.393172160861845 12.161843040746113 9.74781222763752
Cr 7.415769303207043 6.749008770150855 8.774519115843816
Cr 7.71651645687553 6.395419126525618 6.133726348003019
Cr 5.1662226422852235 9.169200716354602 5.077972478047377
Cr 10.885396297599776 7.162837158641943 13.616207763390957
Cr 9.891012971176815 6.852258664621848 5.394227116246435
Cr 7.1970502200028035 8.087542202634069 11.278420940488214
Cr 5.851704461057104 11.424288072197776 8.959011445553013
Cr 7.106741291254214 9.564683894822265 9.053113566400102
Cr 10.664499684102108 8.860584519356484 6.201130373384437
Cr 12.913646728146727 9.189515194253609 9.988578163939145
Cr 11.345286623262641 11.576442656158424 6.647350462280112
Cr 9.306438441727662 10.36354520979711 8.070073181828038
Cr 5.299168447693666 11.415291504784848 6.451084724180729
Cr 9.8217311104375 11.730966700398694 11.632860997245738
Cr 8.924348045041432 7.807465748331904 9.767913334197505
Cr 8.16478947768275 8.740384324989915 4.837601331414747
Cr 5.971005716567245 7.920969527958172 7.009031549554018
Cr 9.326172176106533 9.957771372030775 10.56264623905263
