40
Energy = -313.96669339 eV
Cr 7.01277047410329 7.4061258093942 3.927271121126563
Cr 8.688900025822536 9.79309375317001 4.537654693864794
Cr 12.011176468124596 8.901005366766256 5.678341590012256
Cr 9.72077542149184 7.2789025426814655 5.318002284042523
Cr 10.221123639650502 11.577169206509195 6.04033547919698
Cr 7.3723349680457595 8.293915686458648 5.9035489444489375
Cr 5.072318337949966 7.168146939244671 6.160081778713095
Cr 7.704090801965416 11.09123244133954 6.520501777249216
Cr 7.470619143220494 5.821168131950393 6.372760349463026
Cr 9.842651865880427 9.344485673190386 6.511219637187032
Cr 5.795444524387197 9.523251217453057 7.366785439062395
Cr 8.603578178554518 13.217341455391665 7.609599354227885
Cr 11.515756322830777 7.5066696708106475 7.46078027294414
Cr 10.265389129044797 5.039250758136441 7.489222762170012
Cr 9.035836973462471 7.008486241860929 7.6192974328266665
Cr 11.852473764288508 10.180147285326209 7.880432452601543
Cr 11.16195206296262 12.357906375542116 8.885191416998737
Cr 6.371300473071417 7.134114305574061 8.188393496887047
Cr 9.524376192390042 11.233771786421775 8.377802074310512
Cr 8.003424550777737 9.207031712340076 8.250604584919602
Cr 6.071708409245063 9.181259434332212 10.02769926966501
Cr 4.245729279468024 7.837196122624103 8.950564511356827
Cr 10.183525462186973 8.81229344493518 9.081398709158286
Cr 8.038781542935322 5.413076349452789 9.085324276975257
Cr 10.511329292822401 6.279615693448509 9.75549164201641
Cr 10.474142239000784 4.092074659111545 10.265770294772947
Cr 12.130448403726486 8.208644582303933 10.125213382764237
Cr 6.977900701565085 11.388566049579929 8.941802457505467
Cr 8.231440907202884 7.595387421138207 10.026638427144933
Cr 11.006957719728675 10.656077339195297 10.46432930219675
Cr 4.605377777986012 9.021690197838813 11.621977419078457
Cr 8.532095762016676 10.19137196602152 10.62785873193578
Cr 11.605099813531782 6.265451093413358 11.894016402349079
Cr 9.025280631780712 12.539597166708772 10.467299002791448
Cr 6.110266775711429 6.743860157637272 10.616580475158528
Cr 10.197009970681755 8.298799340517172 11.632710751286787
Cr 8.902360486342259 6.1303877744244 11.68051121197552
Cr 6.663678931907353 11.081283816215842 11.683855153302915
Cr 7.622999310979181 8.576494788299994 12.150559070328573
Cr 9.502020369063196 10.48810334914562 12.687019671889507
