48
Energy = -382.07902706 eV
Cr 7.631933336247795 8.19806213433281 4.6382743359812055
Cr 5.720752102077579 9.995912256524731 5.903021982315426
Cr 6.298737805205363 6.336953053572333 5.598336261642202
Cr 9.714828827121632 11.836425091313847 5.159304072559706
Cr 9.20000819985552 6.496222872421613 5.451070456755675
Cr 7.898340738457122 10.480583242826741 5.94125292212186
Cr 10.07038993219828 9.30562916487893 4.606132310909425
Cr 11.689123898925022 5.714973177501964 6.439718584303041
Cr 10.66343646302844 10.534880306345945 6.875551369149475
Cr 7.201042100044162 4.713312004923766 6.199303152471274
Cr 6.6699488667750035 8.378196828653635 6.870285063959395
Cr 11.49316155697775 8.317577204588714 6.3086792264212805
Cr 5.576485642667573 5.996222156348104 8.053603276073687
Cr 8.606476690703632 12.518894520360567 7.422922937123971
Cr 7.066191634170584 4.208730867749688 8.73065323625383
Cr 4.389921033404957 8.56365722992402 7.846722063345868
Cr 7.91143278779069 6.479404115291141 7.84616139042349
Cr 8.370526922395541 10.201331982990176 8.377217502859832
Cr 10.541587183054443 11.842961804061213 8.650329218443424
Cr 10.165028552775347 7.003744008285471 7.943436468522143
Cr 9.346026133774252 4.544776784271255 7.598629221550306
Cr 9.026614653171094 8.619412712384598 6.802756185923076
Cr 12.743961478684458 7.722361816253727 8.129824638134455
Cr 12.723150810152342 10.160021736579283 7.998820491829873
Cr 11.770698425478058 5.162975156520366 8.238187817273014
Cr 6.198091240409353 10.758625210319893 8.145890052628763
Cr 8.764933431912567 8.056944906678057 10.041940513530024
Cr 10.752546230059215 9.044031725540512 8.976746021468276
Cr 8.07737830135314 12.470197128496569 9.797131532876179
Cr 6.410331633336077 8.230004171579122 9.237437483463735
Cr 9.38655305275616 5.38480863449062 9.829204674483808
Cr 10.371240088589955 13.096192068817452 10.682548621851833
Cr 12.844571053197319 8.565683721738502 10.411164103944868
Cr 12.166510233179682 10.886147344604174 10.19544678134442
Cr 11.20555681995873 6.687542833366912 10.205383438300505
Cr 7.17967949529634 5.890667115377297 10.185508245394407
Cr 9.56071147331643 10.607554385821777 10.479964427289758
Cr 4.922205587679016 7.08263228242443 10.191404205400508
Cr 8.997211443078575 7.076290079430557 11.927393425007116
Cr 7.109198920826577 10.243342633219664 10.631939965484193
Cr 4.744101848594679 9.637870377780684 10.498037268053064
Cr 5.928391594680687 12.2257376855218 10.609277671656905
Cr 10.963513849843224 8.834381599174261 11.56626891259742
Cr 8.229830454418487 12.072653072607416 12.187783743365655
Cr 6.6145834138807755 7.9465569410296 11.776983578994455
Cr 10.575059759026875 11.074113839381154 12.357680248945261
Cr 8.67460797921166 9.35773527814233 12.461300565135492
Cr 6.4986914616005516 10.102369876895468 12.638675473778397
