49
Energy = -384.99869569 eV
Cr 10.333829393308132 10.228959904076016 4.791215610190472
Cr 7.756345842632901 10.400123286288244 4.974279597482622
Cr 8.299321951445846 12.064599933960144 5.340550512613768
Cr 12.193006053543865 10.619796669597322 6.516744395433927
Cr 10.97169466781866 12.59232350359843 6.046107368214083
Cr 8.70771270095795 8.414158733332098 6.342335988292652
Cr 7.314852748733532 10.778669673622831 7.477812363710601
Cr 11.244229504296639 8.273381204606295 6.602634102548571
Cr 6.352195943761137 8.852010462762836 6.961130261750735
Cr 11.33808750269738 11.99161396536416 8.60289892599585
Cr 9.062855096921234 12.943165320983594 7.631983010187775
Cr 9.697131263219333 10.523778735348191 6.9626719813564835
Cr 13.338455359237122 12.060773851021139 7.821904698725847
Cr 13.188319798668305 9.406031407129497 8.487902046118647
Cr 7.796465780651039 6.428538699821545 7.479486935437209
Cr 10.018222308750957 7.1490517533031985 8.495231584447371
Cr 10.692152978200236 14.219591843273692 8.425267826426921
Cr 8.47952741862994 8.740281541286386 8.564899628916697
Cr 12.426094201765158 7.010717200797922 9.030444263914601
Cr 6.541475974657958 10.281046613720962 9.635692739690928
Cr 7.104132123745873 12.458597906552423 9.623002614440653
Cr 11.069622666184287 9.454991668099854 8.876720345262246
Cr 14.024269186166912 8.137936687665887 10.616476923188461
Cr 6.411763974671166 7.650227728104872 9.23163367785837
Cr 9.054911307949297 11.018009436876062 9.313869279716549
Cr 6.321688791639178 10.89260019847731 11.97613474175995
Cr 9.332224826907275 8.73957067092409 10.839702687158374
Cr 13.13120522008076 10.604868679914556 10.178907038328871
Cr 11.747191707887964 8.560967315055327 11.189337900091184
Cr 8.539614189815081 6.526962322426434 10.221445762167594
Cr 7.502127516094695 13.288432425475268 11.821083310838217
Cr 7.0699206854288725 8.51516874546266 11.585800419576971
Cr 10.96314398904601 6.4321057825900665 10.961989441240151
Cr 11.984716688518532 13.04495075937364 10.702007281075263
Cr 9.550085268865375 13.177126009574684 10.310495834798484
Cr 13.200832037914823 6.476501280608829 11.983444615861483
Cr 10.816019401488354 10.94308589493894 10.869593211961595
Cr 8.38156164642168 11.036261108340069 11.565005761445393
Cr 13.850069989088745 9.222918075408264 12.736688904958239
Cr 10.292427200603125 9.879760931339396 13.047535679541928
Cr 7.879816531042818 11.444374889811066 13.984981021210169
Cr 9.54608750817055 7.280098216425009 12.745026830279901
Cr 12.400268265900923 11.156381002173237 12.86968995230979
Cr 11.781770107727837 7.996407372407167 13.551271602495621
Cr 10.150799522901156 12.551671629354459 12.700466953597575
Cr 8.172106788885108 9.15735463142604 13.535924794489928
Cr 12.312396324563966 9.989557279418468 14.964447362946972
Cr 10.190884459029304 11.137486952367537 14.900159167829134
Cr 9.853998535068314 8.634643047220568 15.293595993821453
