46
Energy = -360.32730596 eV
Cr 11.794642086928961 9.884423197927271 8.746576919221305
Cr 9.644053765731124 9.66916204734954 7.417394930541936
Cr 8.099809921865194 7.754385983467386 8.555556045798852
Cr 13.40526016793559 9.743051444641058 10.491876302591663
Cr 10.845218675383096 7.368594758979701 8.144511092198657
Cr 11.419717546717223 6.225778017396343 6.298557847620649
Cr 8.146206636353256 8.230166832040121 13.438001937099617
Cr 9.813636943865736 12.39169266089386 11.655148475235578
Cr 8.493600034690232 10.101197409407275 11.467425093690366
Cr 12.293547387612994 8.972875847309867 12.98391275506263
Cr 9.661137005086879 6.288685035048809 10.250080398983995
Cr 7.734967238085696 7.551564060894233 11.509145037126492
Cr 5.0761325279350515 10.855697424510836 9.72115509322239
Cr 5.530819754460133 10.673142527782167 6.981766965317578
Cr 6.7087399260411456 12.249830866099881 8.47379742172164
Cr 9.755294707331188 8.783776233128275 9.912421651495798
Cr 9.864798586436303 10.362104328286872 13.451094694554978
Cr 9.427416965007465 9.699580374487295 4.751183711663845
Cr 10.138274998236586 8.180789105536014 12.385444106044478
Cr 12.003666840329428 7.873069057499401 10.5453597224618
Cr 11.643888560816793 9.016262117389456 6.342865226359159
Cr 11.669913349627043 5.6256728139586984 9.495889302221023
Cr 7.008747381508674 6.436745696975861 6.518690684281718
Cr 6.79616375885178 10.229064092784787 4.2761236443443655
Cr 11.881901817929268 11.4283242916229 12.783242914498837
Cr 10.57790070486714 7.527543402875909 4.45678519839328
Cr 9.184179763486798 7.715806504182666 6.389890968722972
Cr 6.45746808012031 10.031205126394736 12.313041352405484
Cr 7.731118179988558 7.78868033674948 4.18718243253044
Cr 6.323162370593524 5.644725200814548 4.316055792587798
Cr 8.930549153370384 5.666031211465041 4.961661383199231
Cr 9.089549922812214 5.56254911145595 8.009931595559568
Cr 8.000256747174344 12.088105624788541 13.134493422474359
Cr 7.541045352573478 10.128750737702298 8.823953040006383
Cr 13.136044668431769 7.873784564055592 8.425977285213305
Cr 5.530925117344002 7.998981162443783 5.328484395736616
Cr 7.221872579441481 9.278012075274024 6.405372476481854
Cr 9.52949842076751 11.425324050430506 9.338436960652206
Cr 11.167742364749502 10.357718890302744 11.213519544320878
Cr 6.923059175351258 6.153059382698522 9.759674183376987
Cr 8.287247492925584 11.510250916465555 6.6292456802162825
Cr 5.577345844082761 7.387324890781058 11.999633589057266
Cr 7.342176477702238 12.111232203446033 10.730869631460504
Cr 5.695241982460698 8.069718742126199 8.09061877518503
Cr 6.101291938813294 8.954219571586222 10.211863078583852
Cr 11.728482996807024 12.065055987174704 9.609803159109111
