47
Energy = -361.14099467 eV
Cr 8.042308979084769 7.886429519250012 5.363391985215977
Cr 10.86136009138488 8.108708376664838 5.549553327337716
Cr 11.566599962130763 10.56458861975785 5.87316756928844
Cr 9.877064869562405 5.779114379231035 6.103394965671647
Cr 9.269159275699414 9.905574446490226 6.67103578237387
Cr 13.033713980663316 9.082287815914812 6.893966164518132
Cr 10.002177084303508 12.5962125467839 6.513278182473727
Cr 12.435693893303057 11.499241584439197 7.897529499154281
Cr 7.278507788906273 5.869959213944234 7.480882506426761
Cr 9.202386890632624 7.494365984155161 7.382323552506704
Cr 11.808326325972153 6.570549069564247 7.605513066295872
Cr 7.051190467471648 8.708677808003054 7.935385866437987
Cr 11.254578072000614 9.028957438425332 7.991955776199213
Cr 7.978902154555607 11.162578660057912 7.173758875966779
Cr 13.392550677438873 9.668967989962859 9.506974753526631
Cr 10.3174121616258 11.407629882171719 8.468476541119278
Cr 11.346970787821048 13.809581274311512 8.796737200897102
Cr 9.674133545393378 5.114014479622321 8.52168665929487
Cr 8.793089719006916 9.428039535455321 9.2481646104965
Cr 12.852600839818555 8.098758986042668 9.77207647931182
Cr 8.774325705767371 13.548596785471316 8.561654416349128
Cr 7.83443184821766 6.910424122640632 9.53652491792956
Cr 10.290463184955968 7.466494727052555 9.60131151022029
Cr 7.637547143416926 11.512172777962482 9.573636135216711
Cr 7.775680899043875 13.580254042235103 11.267488778027982
Cr 7.846287327507215 4.235674567272844 9.423232155805204
Cr 7.090509636299362 8.999903713657181 10.804988781269339
Cr 7.310315305467497 13.834201225824426 13.918934448763341
Cr 11.50246528598956 5.609773423236832 10.045287782824028
Cr 9.270214579319981 15.133252019993773 10.045772013720656
Cr 10.834898756346178 9.838253072091737 10.631127207336688
Cr 11.55813508918511 7.56700029957627 11.933792367753172
Cr 12.229158212280332 11.865371622145743 10.313282617548387
Cr 9.110993529279057 8.009128059000856 11.59056622855151
Cr 6.82115927004749 11.599986612079158 12.459194623361897
Cr 12.780523913563242 9.65440439230172 12.039350236381981
Cr 9.747052615773537 7.027864214953388 13.79648976193994
Cr 9.895340015664825 12.542490739489875 10.601501419363185
Cr 9.227772339157484 5.625620801892581 11.22333731359617
Cr 8.746406117781895 10.708565861658563 11.741653347133754
Cr 9.287518636329631 15.354834011689709 12.758379968389647
Cr 10.456432864503228 9.396669412861971 13.399505762889078
Cr 11.05343630816731 14.272924598724542 11.424086573553245
Cr 11.390086385118446 11.593353509743586 12.621065685602318
Cr 8.023643262535677 9.1270060358975 13.411307539238019
Cr 9.34010338422598 12.874890932064941 13.227581370661044
Cr 9.177990808498423 11.37827079945238 14.351313663279676
