49
Energy = -383.72688298 eV
Cr 13.075854941145844 8.908818502731908 6.383090802123557
Cr 10.5679972828917 10.197598344551773 5.196824723185898
Cr 9.864026850744715 7.441114310412301 5.526186787988385
Cr 8.383871572216593 9.34055200439746 5.845761347217073
Cr 7.884717210687769 6.81719493978325 6.750380439895773
Cr 8.740738488264864 12.131512092923519 5.675585675740366
Cr 12.288007242163955 11.012160619341929 6.767945089759938
Cr 12.192206330599586 6.597608900178589 7.9595766169762445
Cr 10.286154389966706 12.804156998789967 6.288386056930886
Cr 8.041475860800244 5.112722062329562 9.031033940229209
Cr 5.890817209920274 8.431899052420817 7.606186113658411
Cr 6.988811849738908 11.024613182050505 7.669149231498652
Cr 10.783445218132098 8.722259481175156 7.150094790968282
Cr 9.63403578941836 10.7810313082738 7.593868045283785
Cr 8.321843558354503 8.875811233651637 8.29042508194963
Cr 12.877343813448501 8.897474194277118 8.609254088866285
Cr 6.052267245245135 5.846712873798407 7.4227712148365805
Cr 8.117891555667818 13.092192193002731 8.049865164368967
Cr 12.357172492902734 13.22170687928092 7.946739439263139
Cr 9.413474949840394 5.109343995655519 7.127209163929726
Cr 4.773883344649383 10.404824273796631 8.308417608245364
Cr 10.22052930323001 13.111317088515706 9.080239180358987
Cr 9.919047586947011 7.078797831698746 8.34792698426124
Cr 13.911234234604922 10.871030822667159 8.801908418521654
Cr 4.649320168645452 7.995705167014938 9.794563395135102
Cr 6.271297757560646 12.115700724774264 9.818353922020009
Cr 7.144068659645756 7.292449136054838 9.299927840900404
Cr 8.562585707171003 11.056978312485542 9.546792019661224
Cr 12.50427483373006 10.00149906116673 11.028411753643894
Cr 5.721926183909241 5.3676365411993725 10.238255099086112
Cr 8.811566852915018 13.193008837332119 10.922343101163596
Cr 10.485112724279924 5.141813386738275 9.834743250660404
Cr 12.091216230384655 12.578366126890195 10.802627055947653
Cr 6.319249197921938 9.691756117535443 9.94359353685808
Cr 9.11036020331353 6.953165077529193 10.804511750911432
Cr 10.490298617518913 9.057869159513224 9.784415895725857
Cr 8.360658218261374 9.227847851350527 11.105686240512291
Cr 11.759018971352209 7.171205065288474 10.37937643497106
Cr 11.364639746210866 11.043686022579 8.96594884994109
Cr 8.040617695017161 5.1617728576750945 11.579279508395128
Cr 10.142653517930448 11.280720098349976 11.34260097893334
Cr 6.468926523014944 7.297561787584113 11.547535700535079
Cr 7.410287661370867 11.439377087055115 11.774703722287569
Cr 10.715263793065008 6.390555011375283 12.375734232136622
Cr 11.664739996964668 10.856452633877929 13.022938391885258
Cr 10.41653551029222 8.759066720815648 12.287709039436137
Cr 6.146370523544605 9.480711217517799 12.329530392232298
Cr 8.302906777952266 7.633518430508677 13.118050300402357
Cr 8.871996764329367 10.391865539966162 13.336282738443582
