47
Energy = -374.91217651 eV
Cr 6.940383447420664 10.54389789717548 11.00358961840958
Cr 9.266890100884888 12.906461165246787 13.912795062262813
Cr 8.437346920422652 8.854260308973489 13.83684389760924
Cr 8.617933077635888 10.959259157862617 12.669732263825248
Cr 5.441400979185115 10.157045681183304 9.105938056611825
Cr 10.08328192066899 10.936258954657607 15.075181800801856
Cr 6.463852109516166 8.125611824257769 9.80367008299208
Cr 6.734043347157212 12.056150824797372 8.73089602335113
Cr 10.380075687634015 8.683907155270647 12.406701093301463
Cr 7.9929655571729 12.939162057629899 11.244566983114337
Cr 8.1655915482202 8.705606620206364 11.202190213150068
Cr 10.289314586928546 13.070883908868291 11.779320414698526
Cr 11.202593921927122 9.103996127040363 14.672942423620022
Cr 11.07224112594939 11.011211133078584 12.784400346448756
Cr 11.711533690801115 13.113883681448858 14.178843272326343
Cr 8.061074639450892 10.017860991086685 8.869592675314355
Cr 9.220713890802266 6.596969697965152 11.331484743436706
Cr 6.518657929216485 8.38364131678583 7.339529696899873
Cr 9.655081684183434 10.763998597365891 10.625243929240979
Cr 6.726075817626905 10.102613800817359 6.718999010768721
Cr 9.121633085820733 12.62625046866424 9.196920995003092
Cr 13.00530776950897 11.288392564092641 14.60723192406637
Cr 10.21549316384027 8.478238262357493 9.702786132881101
Cr 13.07555728096302 9.531231814415394 13.0478237136142
Cr 10.691701290267702 6.108417169862755 9.835470347498164
Cr 8.505882902585164 7.260444922033456 8.641852463903932
Cr 11.720486128094546 12.117688275654519 9.935425924124761
Cr 14.358965051863283 13.372708873760637 13.629085115661653
Cr 14.953370302089686 11.010180181444602 12.497498133177636
Cr 8.822728886368482 11.58477127470197 6.97275518266311
Cr 12.29392937049322 14.354504685489916 12.180188967441952
Cr 9.135679236689485 8.840393541888242 7.113843893327874
Cr 10.647170881810233 10.55164151545373 8.28213171248322
Cr 11.953044007901303 7.536468985099118 11.607553245831646
Cr 10.547471688550486 14.444864985481415 9.985243503872011
Cr 12.854456398394506 12.152924975090844 11.965105628623489
Cr 12.702526864935155 7.495459591545304 9.182111839936544
Cr 11.048211016600058 13.079431106644542 7.68335697300049
Cr 11.454161273892202 7.963830472945587 7.567811905766389
Cr 14.843540131936706 13.667553006821691 11.883038239327995
Cr 14.2487922714761 9.020780460321983 10.823752358238751
Cr 12.029859444307005 9.810942948833452 10.62653133048867
Cr 11.508978893799634 10.498053579204347 6.26726303249459
Cr 13.492937201352166 13.615834526481862 9.666331086505945
Cr 13.091771635305925 10.000137866989656 8.493801445804916
Cr 13.07608409773829 11.977486341606765 7.684103025498207
Cr 14.377761792400712 11.318193160573236 10.135347237365092
