43
Energy = -338.92047693 eV
Cr 11.500040117188291 13.292145698822605 8.188325192365955
Cr 12.418401746129362 11.113226665659585 7.9783213846984635
Cr 14.069656152347447 13.142524196996456 8.3544709363656
Cr 9.63288544592903 11.205058751405682 7.615984034810817
Cr 14.289666442156078 10.260533573760533 8.832929910145143
Cr 15.551848571634222 12.310491803607158 9.546258390636396
Cr 9.068787224455834 13.36282829787261 7.829295036025198
Cr 9.470728545143137 14.521084908108367 9.570934296141466
Cr 10.601755108645442 9.541703198521429 8.757708722693875
Cr 12.358569505850628 10.108021395289267 10.452451191284506
Cr 11.891472150276005 14.570509215197262 9.867705820332914
Cr 13.096932749482784 12.644487300198149 10.465769961520097
Cr 10.59391164301657 12.108929982777688 9.912030383776775
Cr 14.562532886690908 14.838950930268872 10.329293932063372
Cr 8.55451095793473 10.041660441097914 9.98458309099211
Cr 14.592768785245898 11.058176198960805 11.401200952809239
Cr 12.18427510533447 8.055448707336677 9.010265448023631
Cr 14.091488457617398 8.457074119479687 11.006328616639099
Cr 7.914579224148614 12.169177906934998 9.679229636616318
Cr 15.441671371635568 13.66786780189637 11.699699060880466
Cr 8.410453345894664 13.412356883766561 11.533155343876004
Cr 13.941752389080408 12.298269314909705 13.296034060382496
Cr 13.003670183358242 14.22837475035202 12.327508070971659
Cr 9.356503455730657 7.70939737149512 9.678180463398759
Cr 11.854594362531346 11.646412694678427 12.404532904231411
Cr 10.753394863378189 13.652263882829823 11.819236520976608
Cr 13.19088389414793 9.597164927124917 12.87691998396853
Cr 10.714652809025631 5.971206985933299 9.7984522753063
Cr 5.898076559381589 12.506612180741692 11.31936926753824
Cr 9.163503259818375 11.344751220196724 11.865560610787385
Cr 10.5587652070902 9.330012318519843 11.775861746987747
Cr 6.5717586141067565 10.442764493109625 11.533411226872868
Cr 11.95618845969455 7.5807530825208085 11.500442396511746
Cr 12.0796687662889 13.040442559719212 14.581387490516898
Cr 12.979975728212985 10.516253081210902 14.912379643638362
Cr 8.218206598617417 8.653640506971213 11.843346922887216
Cr 9.677475087573695 12.70172449466212 13.841766228872721
Cr 9.767399339248104 6.782514776192223 12.24225582977497
Cr 7.3559791746010905 12.507956017752178 13.468993052218588
Cr 10.729222693927433 10.423662597344304 14.039774401332755
Cr 11.694927941968556 8.125069713681308 13.949721241704117
Cr 8.360792739625218 10.173977672568991 13.623664957471387
Cr 9.441804235385217 8.102933404691722 14.107318476140705
