48
Energy = -372.65817239 eV
Cr 9.880227998480894 11.88671797970616 11.304450160199979
Cr 12.331287955671897 11.364626263868189 10.2368358986857
Cr 11.675823889319407 12.360553404876041 12.75069509003882
Cr 7.400230595432112 11.426321098449616 11.377527664889284
Cr 6.406870648565243 7.476040811099627 10.302242498519863
Cr 8.57342272447382 6.742812424677965 11.522963684158835
Cr 7.320076169004113 9.457203103523534 9.606211326956291
Cr 5.8943865757151395 12.537881151855226 6.415227022829338
Cr 5.203113325739484 6.5821322105285915 8.2242924453553
Cr 8.180024147883563 8.33103700883006 5.454198465772567
Cr 5.901074015248367 11.60851141188154 8.892793072130196
Cr 9.290601891811153 10.959264225368223 13.399281303785209
Cr 11.971704603820001 10.255455618726947 7.834310339990628
Cr 10.804616868552484 8.6346260710239 5.922318878162035
Cr 12.08200407569022 10.07326874757839 14.042391014777285
Cr 6.961784089325062 10.720144989622376 4.8205030339804535
Cr 7.184561181918613 7.786618943992516 7.775566136232656
Cr 8.48356644335208 12.139417112569346 6.739065834784094
Cr 5.0444977127506885 9.19509965816717 8.401531500656478
Cr 12.856118924548648 8.006103295378072 12.540741815860196
Cr 7.097469576160739 10.279615749562964 7.06856485969785
Cr 10.29781417685082 9.789714278897256 9.80757086311511
Cr 11.358730373254767 9.990627520954947 12.128721419434646
Cr 8.881260325208611 9.300887092278304 11.694372866182704
Cr 11.806893112703156 6.238080550530891 7.039343189072857
Cr 8.354277449371144 11.622949595690878 9.110976368064025
Cr 13.837909087177943 10.598482718788366 12.371524470843205
Cr 9.26615319787592 9.479967534709214 7.667131705021491
Cr 9.611707553763901 6.418666340037859 4.88154163282152
Cr 9.130023674908456 4.451327921403912 7.099891940209985
Cr 12.916064364720196 6.972237499957719 9.876898444870495
Cr 4.731887937834426 11.082336811049524 6.5507622105311185
Cr 10.124729669169486 8.157860003245665 13.410544086728066
Cr 6.589343649040484 4.321997882607302 7.566944803034108
Cr 11.123757253254347 11.232225356519159 6.573108318268344
Cr 9.511597606875487 6.711725633307561 7.1648036821941865
Cr 9.14674272090023 10.654394241275002 5.2212055286193255
Cr 7.705014921005383 5.852125266283514 8.939157401824353
Cr 12.893243921765782 9.45406286415382 10.265512757996314
Cr 6.90261611448593 8.882080246367641 12.436552936838531
Cr 11.034046515849806 7.580960272779933 11.190918955687001
Cr 7.186758119966513 6.164430345252787 6.16024251822357
Cr 11.383046731083592 8.027533150429695 8.492560794696368
Cr 5.458674072292543 10.179649294529355 10.98639338364636
Cr 10.444594413743229 5.8845650445780375 9.441734079122307
Cr 5.686085983774178 8.525640786783748 6.086266783683217
Cr 10.298319040092315 12.087373689642176 8.860983806297044
Cr 8.99860932512644 7.7380115022171605 9.565987731069148
