49
Energy = -384.54028375 eV
Cr 7.972488019038438 10.230008462836292 5.759365335746557
Cr 8.63200690630476 8.32919894008952 7.094472700021814
Cr 9.900636690362024 10.70988957923456 6.986543009245205
Cr 12.493438321140907 10.72338984574635 7.523136115094888
Cr 8.755739505170423 12.724060912913417 6.699561473334064
Cr 6.470963397226476 11.800262047683542 6.679826346596756
Cr 10.938919516678839 8.650888058396967 7.472247246043685
Cr 11.027648069657195 13.1166061017925 7.217359415800177
Cr 13.239459547877694 8.145852791830803 7.776526108909814
Cr 6.1687674715468255 9.329012727457927 7.4789588153455036
Cr 10.9480198317694 6.483599916631362 7.403663429859189
Cr 9.256950342504789 7.0364615550077385 9.076656210253777
Cr 14.503008919071478 9.988721626532183 8.664191298596032
Cr 6.685999486874741 13.212794209776247 8.639087019838199
Cr 8.820939412766114 13.671448401339807 8.787366689935562
Cr 8.02138401741144 10.890386074561878 8.33512636253541
Cr 12.734868867389578 12.513043760248108 9.251850526958801
Cr 6.852643113925324 8.540098899586999 8.965994121386236
Cr 9.430713731200973 9.451650215506687 9.424250129491595
Cr 12.039003388943987 9.971689207220086 9.581522382812054
Cr 10.398960653209972 11.961022951380365 9.1102012395296
Cr 5.975701029182685 11.168703672538108 9.59544690870101
Cr 13.217925056012087 6.291790816697489 9.09485400854862
Cr 11.529083066055053 7.608042797496593 9.721772110816017
Cr 14.149150502684396 10.823272395016792 10.836906594512806
Cr 8.14574702568253 12.067120176939651 10.642344741143141
Cr 14.0746562489835 8.177221061049135 10.3858901035028
Cr 7.391006882446221 14.486834462942529 10.789598779758155
Cr 6.058462269154847 13.334720617122965 11.249952489431896
Cr 10.10778134493155 8.348847982323772 11.516598729584686
Cr 10.142392138522858 13.547873032267937 11.278607913833289
Cr 12.377288125875126 6.667710475656918 11.681825442451458
Cr 10.280747123095518 10.82871852540059 11.576028604096447
Cr 7.805380908490146 9.857035837602789 11.034369389584178
Cr 6.3586048800141715 10.992236127735312 12.42773568276865
Cr 12.237262575295105 12.16307064208624 11.09148955512997
Cr 7.89808400634032 7.572153092525092 11.010867079595762
Cr 12.508844908160405 9.368726911404991 12.002521454516039
Cr 15.06526084667472 9.55094903638361 12.555995488915464
Cr 8.044213943922728 13.238723619618824 12.886482484687523
Cr 10.109724802969545 5.946435982353244 11.207490758915148
Cr 14.053768972080452 7.639557087277976 13.1097455872462
Cr 8.6442512830035 9.022320230852772 13.289231793517674
Cr 10.576686069927723 12.914983096133211 12.97569455286107
Cr 8.395171569164738 11.377841570082479 13.250123625447017
Cr 11.286224472817102 7.7453588592754326 13.566069604699768
Cr 12.902688533672952 11.06447001407403 13.342838116463218
Cr 10.661672499582936 10.06697002011921 13.763391487154678
Cr 13.083547744187461 9.022113610251566 14.56210897378485
