41
Energy = -324.2167838 eV
Cr 8.655152011199764 13.58806359296157 10.371391377521933
Cr 7.738916218007906 8.456317914598571 9.64108515180643
Cr 11.153384935603166 9.993506691319702 11.901885972673885
Cr 6.416719351719718 9.520985493206705 11.48665403522244
Cr 10.918637030389913 13.483962246673256 8.974518971118227
Cr 8.793364540948634 8.03971634909755 13.903610179024557
Cr 10.318858588235548 6.861673265242611 8.99529827097952
Cr 13.66096225897508 9.543199789117097 11.944713151333369
Cr 12.688583845176009 11.98934998371252 10.722148727838784
Cr 7.126588667074306 9.861232407991585 13.767808074719516
Cr 11.810913227663324 9.48333147353554 5.8920057037081435
Cr 14.531923620393407 10.543046060034042 9.457358573777476
Cr 8.013919761662242 11.168244967699568 10.09123722409644
Cr 12.311266922259739 9.826105874279461 9.750800853561856
Cr 11.925574823803409 7.659288641220099 10.622620976251378
Cr 8.996012252256337 12.601118288062194 7.847445208555622
Cr 9.900533277332674 10.364643954364576 14.178219308648094
Cr 12.380378866495015 11.757737125608626 12.998517601238692
Cr 14.14936502995146 7.958732625266664 9.665015488849614
Cr 11.082604221374341 13.777538154668687 11.639294033377132
Cr 12.039514434183289 8.333398581469108 7.937586419982822
Cr 10.969592278000063 10.820797319337789 7.671361853281778
Cr 8.42777255521759 10.306057483748244 7.937753416480279
Cr 12.949446193689203 12.093029084062612 8.418765596250827
Cr 9.27624992770619 7.183392563233007 11.19351270059477
Cr 8.720711146580204 14.109375112703612 13.194442461518019
Cr 9.54839366367409 10.980218784591827 5.642250750645901
Cr 10.975103611728038 7.9632817032921945 12.920157274189549
Cr 8.957512832413435 9.553222383909034 11.7116412561515
Cr 7.222740109321714 7.46928831717786 12.124966313196515
Cr 9.480728715802362 8.546768620708871 6.950574603113557
Cr 13.773179243601165 9.789225200504545 7.693557888454658
Cr 12.033130289831412 9.769189658063182 14.415193914213106
Cr 13.021587505301953 11.693754974703538 6.182260394756331
Cr 10.288040112027405 11.591967951172254 9.956600664922936
Cr 9.95048794718075 9.171659316951143 9.571491771188091
Cr 7.525731137188057 11.852790481123808 12.072297755571784
Cr 11.26244567760184 12.822146643675579 6.494018807897463
Cr 10.715211656838212 12.696889779622259 14.445230757688398
Cr 9.672707936295323 12.019811548558263 12.180398944695293
Cr 8.04000921810596 12.054575177807086 14.633917693532343
