49
Energy = -389.60185488 eV
Cr 11.97714424065349 6.919559967675589 10.05970272685753
Cr 14.279054164040238 9.529878874332473 12.207432800270364
Cr 12.126050784687477 8.2699637608637 11.84162351648259
Cr 12.2867565686598 10.073408173045898 13.793393764182218
Cr 13.631866048314212 8.877372457519861 9.645866395585433
Cr 10.847353991953634 8.047436075842455 13.683358023952442
Cr 10.534865391295613 6.025237690737278 11.917427853226528
Cr 14.199117521552994 11.25448753059401 14.454225992642849
Cr 13.570376043987755 12.73753286353572 16.452554108895686
Cr 12.232963361278824 7.291520234542484 7.8219498567654595
Cr 11.773491182335224 11.686587757148631 15.926987913100964
Cr 13.952334251355827 12.052857024987704 12.218266802365823
Cr 14.540447844640417 11.12554997258502 9.823529878352648
Cr 9.88317128030837 10.566721458361876 14.578064932523287
Cr 9.920631584158103 6.690574338354879 9.06339583044341
Cr 11.03941590819011 9.024488352317999 9.496813135860933
Cr 13.917872692971857 13.87156954248872 14.014714927595488
Cr 12.388671394654745 10.717270125517514 10.946939072109522
Cr 10.479531179806346 10.112815649880343 12.121331738924514
Cr 13.48728885867198 9.319405702409126 7.661290221540419
Cr 8.84132725320901 8.905976700222858 13.291916085038796
Cr 9.63191906921672 7.83810566290632 11.112613101105326
Cr 11.848835974804853 12.332420718335955 13.372650402689393
Cr 12.057172404222097 14.417939237455691 14.84748708945486
Cr 10.81172601641724 8.623247683072186 7.133434700294388
Cr 10.058689516041204 13.118637242599508 14.514894519975526
Cr 13.249547079378985 13.122862240399947 9.710241019621678
Cr 12.600490371182143 14.45827639870731 12.020909096977832
Cr 10.512399807740232 14.568717495095067 12.629250924613912
Cr 12.012055488621964 11.136592023415641 8.673614478159697
Cr 8.732220311066023 8.970182542093937 8.901077856423733
Cr 8.146817390263775 10.051798605271626 11.125953413467267
Cr 9.28750691415435 12.130931482644417 12.621596747114339
Cr 7.189190622331076 10.945590662232005 13.290399886127744
Cr 9.605515713286259 11.256914704627258 10.00063081142093
Cr 14.236230340024173 11.803896014857449 7.484175469566705
Cr 12.759512290917879 13.321333181747251 7.237276252332343
Cr 7.842244579998948 12.219124103083438 14.932932598051933
Cr 11.297849966890015 12.600773438505323 11.039214767918283
Cr 12.003387024498952 10.840987081416309 6.191594967827154
Cr 11.508425924868666 14.94311340528724 9.869396735016547
Cr 9.721364363453421 10.73678857683233 7.628010631109669
Cr 7.872086087643709 14.016907002546544 13.044246469881044
Cr 7.242975400292731 10.948780581777608 8.80780291241453
Cr 10.45273915985028 12.458269593471755 6.452350641353409
Cr 7.363624626715139 12.342048609751679 10.91911035334065
Cr 10.697379402508702 13.028713180968165 8.561638940671429
Cr 9.068326385302589 13.83877925900675 10.593675989430524
Cr 8.301199643844344 12.732314832689415 8.296673544136533
