44
Energy = -344.52397031 eV
Cr 6.171387256303231 10.480779043240902 9.266319013695373
Cr 6.504876464492762 12.848158725622612 10.789911146702606
Cr 6.91024020754918 8.43117739381757 11.023263242069998
Cr 7.391249172952655 7.449718994102858 9.27073685222398
Cr 7.827207100722353 12.154615423268668 9.12333221203457
Cr 5.95652288836926 10.736529314736812 11.901520234427796
Cr 8.255951246920663 9.646081818116622 8.906761392852095
Cr 10.04766720011208 11.256861463648018 7.537921523598489
Cr 8.853799130578398 8.88663665788307 6.920629977451751
Cr 8.426186506709229 6.1624696647727 11.16733051681393
Cr 8.236113956271527 7.138780688325478 12.906798757150618
Cr 7.48753394527149 12.183866646209145 13.192596863378037
Cr 9.381395137513376 8.559891873011253 11.01591528099996
Cr 8.9494694034141 13.121217718571536 11.459651930218463
Cr 10.977856108406431 7.747947394433908 6.958006296795538
Cr 8.009936273376457 10.794459511129235 11.088198837119126
Cr 9.958806274956864 13.244442258144739 9.036365851459088
Cr 7.708226315504653 9.533212064889891 13.40065841910251
Cr 9.602955581759645 7.0263085172519855 8.990021880160738
Cr 10.62012844187231 9.323312725096146 8.739167946337288
Cr 10.247289023547332 11.397293847899938 10.135716632694805
Cr 11.437886818028701 9.951249335681577 6.334832898075848
Cr 9.592483352233074 10.832189495550596 12.846617740918347
Cr 11.071569478988911 7.039603974749068 11.58923089206878
Cr 11.866053264186826 7.672414187508138 9.712655427494214
Cr 12.10048269646128 12.394115169542234 7.3467236992863025
Cr 11.59825274407735 9.669337844458344 11.382814475076893
Cr 12.561276746991789 10.462220898369008 8.877457773350235
Cr 9.865101583009912 13.341677019323901 13.462093256140344
Cr 10.356778458334572 8.780038163190298 13.425971939511188
Cr 12.274704217024798 13.016047874378291 9.676720343611091
Cr 11.586573507289218 12.32838238940934 12.17810004109945
Cr 13.846862837655285 10.89699531146237 6.772591512261275
Cr 13.142200524549844 8.559882218585553 7.828936404735345
Cr 11.266906495450769 11.333633342469975 14.531177916695135
Cr 11.086945375752578 14.47166882593271 11.26225384254318
Cr 12.91514321105503 10.103824017173968 12.856118122922828
Cr 13.709670615327823 8.738976184390824 10.607805992441111
Cr 13.868597899261788 11.279146337424505 11.025410579754007
Cr 14.244762848287909 12.618496947643337 8.938541886780959
Cr 12.590214731407714 13.827975747620808 13.8559068858539
Cr 15.102958004888295 10.201681502763426 8.815562048794945
Cr 13.748738963402579 13.526733971797874 11.409883830493307
Cr 13.766157963303092 12.198301584387176 13.745448561421458
