40
Energy = -316.78999012 eV
Cr 13.021654423749599 10.645182936265837 9.576093100874125
Cr 13.823828453020624 11.960743376530763 11.714115536149967
Cr 12.936647393576386 9.53775901008374 7.429965626447235
Cr 13.238972680576405 8.061096711615072 9.746274159495353
Cr 12.792455500710252 12.851062613471177 9.35367781012217
Cr 13.218337812679138 9.696845673765823 12.005720292832638
Cr 12.508736657796867 11.959409707548042 7.14728288651584
Cr 12.355138968789559 11.728949995105824 13.573818848714719
Cr 12.006232624087033 7.17826122076416 12.07268961064158
Cr 12.134105276009477 13.756174543772731 11.626978415236044
Cr 10.873418423351934 10.782633557657942 8.776771692021468
Cr 11.05392337076321 8.479182508548549 8.255081239234146
Cr 11.579290505900762 6.483084498955772 9.643751575166316
Cr 11.219426372461488 11.50812840193621 11.225833293901184
Cr 11.116940659017837 9.960895340704107 5.930784000209905
Cr 10.884112009817143 8.921212079989044 10.880081062519743
Cr 10.712291450550492 13.369251983260192 8.792277739242346
Cr 11.603722579613217 9.272152483209368 13.568183251215299
Cr 10.443867789722065 13.023619135418997 13.37619911386487
Cr 10.231840369822498 12.168891649584133 6.581931075476122
Cr 9.522387758139377 6.6837894090851275 10.913470761294244
Cr 9.57676646621895 6.156363085253787 8.197256870517288
Cr 9.61359527169264 8.047381798715127 13.280548783284537
Cr 9.799224000717794 10.652766000778357 12.787827782040958
Cr 9.454965679359567 8.065454759211056 6.452465115922312
Cr 8.907882608448634 8.545390011201144 9.047960547208358
Cr 8.928036978516245 10.307979595640017 7.53239958884017
Cr 7.562997492687813 6.336870080521779 9.67179388765443
Cr 8.528874145268807 12.414382374731705 8.877654534541145
Cr 9.481301450361046 13.038891029311628 11.235063130597919
Cr 8.56132647833932 10.599549741723445 10.45294155134834
Cr 8.158799994102235 8.495892355620793 11.579608759468634
Cr 7.280589586920463 7.008020932874931 7.354841809820971
Cr 7.227150687601585 9.88643798425018 13.189456017000447
Cr 6.87371514875714 9.265843335039945 7.25890469302684
Cr 7.78464220445808 12.146657630298533 12.753024886409532
Cr 6.487257106752513 11.190055436128203 8.594231196416452
Cr 6.590618203439571 8.572059559772534 9.612954149886363
Cr 6.845788468418835 12.801966651574833 10.704049953439617
Cr 6.17732868138798 10.586571500326256 11.007697883538569
