42
Energy = -331.52939341 eV
Cr 9.337096478942732 11.344855032470203 5.211594668047785
Cr 10.29165428491533 8.59960847583646 5.547276568093592
Cr 8.31529874821855 6.379990677901058 5.591619480981499
Cr 7.50260554296697 9.24204292185106 5.992801837938644
Cr 10.926637025141263 6.25547691280297 7.042422472130585
Cr 11.848221537075192 10.713375735824293 6.589225485155201
Cr 9.460083599057477 10.365790767238783 6.994656005003127
Cr 7.331686428497704 11.718260920915766 7.458241643493398
Cr 8.91293452158687 7.647876463421331 7.30734916927189
Cr 6.444616729335844 7.250364298658848 7.810458448250653
Cr 11.49630139217981 8.541964016931043 7.71869580384014
Cr 10.034068457992726 12.68035771148219 7.671767339722396
Cr 5.292591609980037 9.857761874330814 7.975557228275175
Cr 8.541308286034443 5.380927129427758 8.325443846999677
Cr 7.366116893350729 9.497567321422897 8.451896576025813
Cr 12.775893532799886 12.581667752001177 8.698651131425946
Cr 4.7455261481085085 12.680223621672292 8.444205882137043
Cr 13.379842782219788 9.686424023972878 8.767619499061205
Cr 11.391169581949088 11.045590786745256 8.988103350013551
Cr 12.817967730056385 6.940463619882103 9.014705067993068
Cr 10.318575056897991 6.899495603183167 9.414357039002999
Cr 11.077988901757882 5.022418951057408 9.363973809121962
Cr 6.02425634260276 11.296701529389006 9.75123685982391
Cr 7.777849463494345 7.208455495190553 9.760250303939797
Cr 5.453712580571525 8.689931252635425 9.99393703238392
Cr 8.720112656727633 11.523290769098283 9.321178365243632
Cr 13.854937447958413 8.380929752021016 11.360020716766519
Cr 3.9412415707941717 10.416109148630534 10.137006357458917
Cr 8.903996198313099 5.643179090220701 11.110203117535173
Cr 7.699774454319198 9.648237963004668 10.958986888202695
Cr 11.868869417007325 8.742553656137925 10.465281465420318
Cr 12.48555446229231 11.046531736915624 11.192412936354927
Cr 10.442156407463095 12.775474141694446 10.446144525570697
Cr 9.593343425813305 9.199212039836938 9.37167976750917
Cr 7.938369832171438 11.974876878426773 11.468611233306262
Cr 11.524647583046239 6.541396634853641 11.583903644355232
Cr 7.084551570835974 7.5603114925867 11.965012332913524
Cr 5.817363479284571 10.13033058770326 11.922292540798532
Cr 10.13607227983345 10.6341199090957 11.4954095768385
Cr 11.323745031064721 9.093368235095737 12.84238408491455
Cr 9.558480250826127 7.910312775635974 11.733717718333315
Cr 8.641755383755406 9.651147400035937 13.138683287585195
