46
Energy = -351.71133112 eV
Cr 8.118183784638111 8.558800079010966 5.719059005044273
Cr 10.310910708973626 9.666206024835974 6.275529813917655
Cr 10.602800873231011 7.316201285778336 5.711587844505529
Cr 7.533572615804604 10.939141521664318 6.449587295299587
Cr 12.705639063177179 9.546785419299365 6.22763216799536
Cr 5.962000240128657 6.697320302646536 6.170935648579583
Cr 5.570627690958084 9.738288869810994 5.901208263574586
Cr 7.745108555403613 6.109973963866986 6.824038866924528
Cr 9.22559654890346 7.889154444049626 7.862618724652212
Cr 8.607446130058646 10.061592039017912 8.19868652353285
Cr 12.106427653219228 11.815135616093094 7.481094103799936
Cr 11.207351589292903 9.794693551770125 8.508180391080977
Cr 6.565733559843593 8.503026612990308 7.5983914967103905
Cr 11.847007905688345 7.725805239684041 7.608129619672634
Cr 7.700491327380828 12.678534963756748 8.406225061525841
Cr 10.244432746979976 5.887796816659132 8.144032055540272
Cr 5.96785497910111 10.545349851845145 8.562094662298467
Cr 6.103346659779722 6.5293813452081935 9.005883552096765
Cr 12.347414304541863 11.833326460446974 10.010513723155738
Cr 10.844487176488371 13.983116775569401 8.759199934617175
Cr 9.899540043387512 11.98139380698666 6.769982308183939
Cr 4.20699007958406 8.382802592578372 8.098261032610186
Cr 13.592118474394717 9.71281610133222 8.600888185351646
Cr 9.927631776983931 12.067194364223354 9.145457359879885
Cr 8.392273335582988 5.980832231048229 9.603047785455882
Cr 12.078586628370653 9.685545105809286 10.905349034891607
Cr 5.345955724286551 8.815642514765372 10.061408006260471
Cr 10.862515243601797 5.634899465957303 10.748663525314798
Cr 12.613418167362479 7.708102981865197 9.929569266460978
Cr 14.455100031275103 10.079883449876473 10.63543295916422
Cr 7.519617457887927 10.94039928995435 10.334761739938465
Cr 10.109782650930565 7.988238625323429 9.935900302737124
Cr 6.716924880008338 7.101024273123874 11.602226930796824
Cr 13.324914332088069 11.018427079709328 12.717537484272992
Cr 9.76236984608106 10.308917148622049 10.738275257494447
Cr 7.7445639855167165 8.497109531623115 10.043568127795064
Cr 8.700778939387998 13.070439755004742 10.974443558645273
Cr 6.692401528720819 12.429713592714798 12.316285122348722
Cr 13.35793758940872 8.47363021931763 12.675421992867427
Cr 11.128355359212 7.505557166190711 12.182917249267813
Cr 8.685445069181494 6.656177229216114 11.856259970490758
Cr 6.435747861093793 9.77090146818419 12.233095304691236
Cr 8.627217027435087 11.289825018610635 13.032219669077195
Cr 11.033453319728256 9.928572904430307 13.101830605107144
Cr 10.757195861782689 12.069554290372272 11.950167013082991
Cr 8.656305677848238 9.026343613890505 12.325976458022293
