44
Energy = -348.58839376 eV
Cr 12.40702391898096 8.646292035470308 4.728553428352865
Cr 8.002140335158192 10.095263622218008 6.122706431055359
Cr 8.084982247838694 7.597401202060365 4.706935266657781
Cr 9.725598994500746 9.321039934589376 4.494749458992858
Cr 11.034384603786348 9.956006529827107 6.279243407293372
Cr 6.243893317151263 8.188069777674562 6.1500745024339905
Cr 5.302802401152095 10.42978418953827 7.290645035005172
Cr 9.371723572841098 11.844759858043275 5.817237924347193
Cr 7.762461928566671 5.76227376209582 6.239625770021805
Cr 11.395488010353322 7.1613752137800635 6.404977612537973
Cr 10.16344905963368 6.447066676911475 5.0964100087183715
Cr 7.5151044997096905 12.110702102933786 8.143801657420862
Cr 7.108221954541455 9.486088518782159 8.190569429447592
Cr 7.603431243132577 4.801213942837652 8.905884283073991
Cr 9.595327039438711 6.161122643744486 8.277966328378218
Cr 8.999599531970087 8.12861288240647 6.838192174790851
Cr 7.0961282952168325 7.038299286087787 8.248974956783472
Cr 13.109058304424837 8.746127806450335 7.436903439272952
Cr 11.112048429371278 8.50649239782867 8.544208963759576
Cr 10.359028234907528 12.463698904462763 7.7860400276958
Cr 5.3812845187338665 6.126255157025008 7.46943538571667
Cr 9.491704594833278 10.43994429472881 8.140074483382403
Cr 4.75994849601472 8.302139867749705 8.553979907545887
Cr 11.985997376684963 10.91711059750927 8.801585018429254
Cr 8.92235949239163 8.298149913986064 9.49486763600551
Cr 5.436812918251047 10.754742895731091 9.757459128520605
Cr 11.960284821239537 6.349438665245765 8.85225409195165
Cr 12.546358930063656 8.642168700255715 10.432327293100553
Cr 9.766709889238467 12.326557702782047 10.082390334983902
Cr 10.00759640723105 4.865120207958985 10.155811258284656
Cr 5.566714591241866 6.148584333155068 10.14746297297632
Cr 8.003836665680435 10.561666843764721 10.188459626942173
Cr 6.5111460537738175 8.479635442283627 10.277814314081967
Cr 10.488860725522619 9.946321572587575 10.638125759128297
Cr 8.00778155143132 6.262410282970571 10.567159241705268
Cr 10.595236637785963 7.211337496225209 10.730203008441753
Cr 4.510462658391313 8.248025959614377 11.624651790517243
Cr 7.274786833903798 12.31505633646557 10.990417106695107
Cr 11.93427592094775 11.269963000495524 11.731372105193822
Cr 8.541801660830789 8.648979658190909 11.94088341536021
Cr 6.531253054303096 10.046797842210045 12.239683943932173
Cr 9.109470179235652 10.938931034707936 12.453820147036405
Cr 10.798275933678804 8.680027045760406 12.630485849178415
Cr 5.9720492655022985 7.4258489604416 12.492481174438229
