49
Energy = -386.89392504 eV
Cr 15.704744295550718 13.634378762607412 10.184692310821871
Cr 12.884479829506502 10.637860938590666 10.1080745383178
Cr 14.516530785644953 12.18822620291348 8.720468457243292
Cr 12.96006043772315 14.454147772489485 9.449910035351145
Cr 10.777909295762328 14.809152656257522 9.854194091142991
Cr 11.783479432952904 12.474610739955411 8.72717133561034
Cr 15.185538870772199 16.0030832435526 9.951436520973175
Cr 14.12982266373066 15.071951391797926 11.705323743395219
Cr 16.260414421930218 11.472310697251414 10.809252591588223
Cr 12.474226440429474 16.62663493180587 11.263374660204239
Cr 14.358287580544125 10.167920114376896 11.884335160683493
Cr 10.436852711392056 17.207213089907455 12.771918745034405
Cr 11.066459513558295 12.531947328578184 10.787666740799878
Cr 11.487801113883933 14.684168204554998 11.849029439646174
Cr 16.622105741871327 10.55046816979002 13.385431255098045
Cr 13.333626578503546 12.72301862225442 10.884413413191714
Cr 12.63828243244717 11.165001122663726 12.682544661772118
Cr 17.58982800967525 12.63117800823232 12.433332290733684
Cr 12.391048860901677 8.71969833913285 11.96242916861766
Cr 10.961751387209159 10.120044673086303 11.653446850815717
Cr 16.54132143533747 14.660520839443928 12.234452686630817
Cr 15.052247363675587 12.60185255504326 12.601294492828684
Cr 13.101251457797515 13.619604722265898 13.463657208905957
Cr 14.881399699483357 16.92848049354577 13.049635558459068
Cr 12.688566833373152 16.12017008876072 13.73675442362885
Cr 14.945618525370806 10.82205444055872 14.482119920036792
Cr 11.31290748321281 9.654571585041523 14.3110492342884
Cr 10.532828034589162 12.610125638729565 13.244768594710967
Cr 9.678436209814803 14.175454858075007 16.356228388849566
Cr 9.851586585220568 15.289184162358815 13.761919137736342
Cr 15.105097980411744 14.965120091406236 14.141406842088138
Cr 12.497486475906879 18.170823855763558 14.229070277388493
Cr 16.58181142616807 12.935463975869258 14.43196582472294
Cr 13.172573764171993 9.070849762295072 14.143558542102939
Cr 14.20620305720216 12.950499504074555 15.549469357905908
Cr 14.417012960523731 17.049694376924883 15.553621880877412
Cr 12.300900395673223 11.541536880338597 15.126917401113221
Cr 17.50769866023349 15.021154655419528 14.907465434101848
Cr 15.93259235980224 11.749756419084527 16.799173972395828
Cr 11.377278303490838 13.945783443231912 15.092831698601332
Cr 13.253982530028948 15.184061669816101 15.92842184300016
Cr 15.686457053180796 14.650071776935507 16.447053268162126
Cr 17.711630106951887 13.04382346967495 16.805222458615816
Cr 10.922413697243028 16.56022159435182 15.65378320359775
Cr 13.809056060329008 10.267051810972937 16.64934402397719
Cr 12.968448063613568 12.901487054472458 17.371618692722215
Cr 12.383093582247708 17.452752791863137 16.99539168040861
Cr 11.0511990364395 12.001277127477021 16.803650386723245
Cr 11.46689736612356 14.684782258014074 17.560954465985457
