43
Energy = -340.52043284 eV
Cr 14.482449971238395 12.436758806374954 12.570305022428242
Cr 13.967698397350338 12.809293192776783 10.243240266740035
Cr 14.739335191288694 10.415720011560058 10.645354094982377
Cr 13.638954796999759 9.92246597933258 13.389025591094045
Cr 12.096269621739015 13.449734936201121 11.733450851306538
Cr 12.336687797919442 12.117961579150645 13.782046189804113
Cr 12.900323144154578 11.216535083136776 8.708101298837017
Cr 12.439137910911382 10.805144535877591 11.310633812509922
Cr 11.15219035106768 12.78865446556642 9.63467237361048
Cr 12.640614627830217 8.738354486523054 9.767477683207268
Cr 13.851956815189492 8.430062147814526 11.74384926911431
Cr 11.041517073970954 10.06474179137565 13.366984167068916
Cr 10.120528894039023 12.054421220901814 12.088023163132217
Cr 10.577827375326214 11.640469518354122 7.593086454208762
Cr 9.431619296845364 14.05358290718937 11.054953175569738
Cr 11.403078097322703 9.230056056655052 7.758490411166885
Cr 10.538366372093144 10.376065717339548 9.831109628263388
Cr 12.718671923205322 6.225507515150918 11.187962906212189
Cr 11.15266149307415 8.175638165136462 11.606666201024444
Cr 9.151679843397881 11.827761828762435 6.107478200972122
Cr 9.08977279881919 13.765761800077975 8.122178724920825
Cr 11.984080098082705 7.856980256937497 13.42467413414686
Cr 9.620430951351105 8.165515470257011 9.528828104570122
Cr 10.17958462385061 9.53898648435077 5.732814603725223
Cr 8.744663324053993 9.881974994658831 7.858432554360341
Cr 11.696262603970856 6.700494816013751 9.173618992217591
Cr 8.68218144366635 11.833540899265346 9.784953363505636
Cr 9.273878776404638 9.79646919919347 11.571037246754228
Cr 7.352160828859324 10.31586042957783 5.585354152225909
Cr 7.040572009012741 13.384997285226666 10.048013593122565
Cr 9.716739206393664 6.328036060504337 10.942050651113034
Cr 8.79635725410834 10.507392391441917 14.008428272362737
Cr 7.235112795045729 11.593239033749233 7.878364590355317
Cr 7.911716841705032 11.810540249458906 11.928102700960824
Cr 10.079663840146035 7.2437389314758045 7.3977129251284
Cr 9.249052306053931 7.954171329350077 13.206541105999802
Cr 7.993327025536395 8.090039461688527 6.251683437029617
Cr 7.651129655841111 7.378334055070311 8.719402390154535
Cr 7.610777952397219 9.737704887705144 9.896303440189845
Cr 6.107556556878762 9.643047252380562 8.02779179788352
Cr 5.944825333140567 11.447334325339346 10.028641274371541
Cr 7.626316898469878 7.5921434232669 11.356077927151853
Cr 6.895622889540604 9.50605648532384 12.462857527995093
