46
Energy = -359.57745748 eV
Cr 13.473948157612654 8.683069034292332 7.310288870064756
Cr 11.205039409947101 7.7170052649367245 8.088525758621246
Cr 13.159195301624964 8.395211404320795 9.4366599863899
Cr 11.586399003312588 6.3281153947302755 10.068668906724524
Cr 14.069148218071499 10.616161844547852 9.119391129242095
Cr 13.161953069791778 11.227065224645573 6.584635959761511
Cr 9.13967389455288 9.468792132849204 7.829904885346688
Cr 9.212979329370777 7.651717448392788 9.44750200527644
Cr 12.403634599761101 6.969234154450992 11.913997860387378
Cr 9.226583729587063 11.959749689147827 7.7927769086068785
Cr 13.829483547375373 9.232258455170744 11.615424572419293
Cr 11.631295674713252 10.235310118067762 7.97801420207568
Cr 7.3540160888704555 8.741998199112306 10.090144161469478
Cr 9.702753242498575 6.50770578744575 11.46708928796418
Cr 14.861089287708083 11.27574383990603 11.379413837985044
Cr 9.5414704668831 10.328538901401384 9.767463800468013
Cr 12.859431184244244 12.644661770257937 8.29346099033925
Cr 11.010550485521408 12.706526378851667 6.85658695205763
Cr 11.108661998143692 8.715178152774444 10.587839004448114
Cr 12.343453622442043 10.877236966570155 10.523905131244364
Cr 7.355928915391658 11.534771705961827 9.314636163508366
Cr 10.587498274841751 7.063757684297267 13.71891706809667
Cr 7.370057454334955 6.901749848353841 11.573985987320821
Cr 9.071796457419941 8.81521387693838 11.969442509949817
Cr 12.927014687753648 11.473185652871793 12.878799069435825
Cr 10.820247181747348 12.494835378513086 9.518698909516209
Cr 10.920503195703525 14.80708353209182 8.21179184910321
Cr 8.701738961282285 13.883172431752831 8.837591017149828
Cr 8.438879786537044 7.02741128661422 13.938759518465572
Cr 11.712810469283484 9.280482600473983 12.819682548024502
Cr 8.942027300099577 12.949993867565642 11.033063402906755
Cr 13.640626062695222 12.954673079307607 10.724852606796322
Cr 10.244613979293623 11.088949953528028 12.019420042670612
Cr 7.368996270462039 10.884163162052069 11.304215999708878
Cr 7.031592427487514 8.967388196150576 12.90270277016421
Cr 10.13682990678265 14.909067110030895 10.99924472038502
Cr 9.606027017302399 9.544631647878969 14.134529357291612
Cr 12.570186253785337 14.914414417402813 9.744911280112566
Cr 11.585370495304963 13.291504470621202 11.917850214043167
Cr 14.04773835374122 13.603761280247681 12.929289056789049
Cr 10.893027763387359 11.737528076570193 14.170539730736879
Cr 8.349129357053872 11.172947449117352 13.461230111868431
Cr 12.809200328715683 15.319484001953601 12.1471959962884
Cr 9.523069320645641 13.40738810122255 13.28256284923005
Cr 10.84925671027284 15.449722241939247 13.204393950519504
Cr 12.104258418891805 13.846157019147048 14.19949673123062
