45
Energy = -352.08634056 eV
Cr 7.589883614718159 10.720493692717989 7.526141673025171
Cr 7.37661681739526 10.197436295426856 9.573846734441796
Cr 9.42505961511073 9.087219674219195 8.037810717104776
Cr 7.9533074243345006 9.258740239399813 12.04777101377503
Cr 7.169969232043793 12.801574245409343 8.905658566570391
Cr 8.486389441451282 8.172756320597529 9.827781779757451
Cr 9.343430218015914 11.568191794466793 8.695259880070449
Cr 7.657013615570284 11.998229810014461 10.965620460831651
Cr 8.406172073375364 11.068724768657413 13.143713444249514
Cr 11.102901135346139 8.18151272148685 9.469681277930713
Cr 9.758117632403286 10.507935604585548 10.667780019435021
Cr 7.560213884647898 14.829127280177262 10.297411447916529
Cr 10.70540280833718 9.643775958398736 12.863407276279275
Cr 8.109394876839897 13.76059707800414 12.424123644643378
Cr 9.637693989776231 13.290535139570041 10.145975577422197
Cr 10.001616823568941 7.879157371980888 11.44874641092795
Cr 11.365049604022692 10.562694883732599 8.57432661980456
Cr 9.209754048957661 12.913309971119741 14.70588789399312
Cr 10.390278025127756 11.050679713126621 14.706045215850397
Cr 10.197160937136307 12.40947402511991 12.27420980058267
Cr 12.815882901201798 6.606926012273287 10.004564991069046
Cr 11.368488310355264 8.36831301118834 14.265042929717309
Cr 12.32406855470079 7.649446257133797 12.02878573831551
Cr 14.980562664024415 7.603586002026769 9.29632472343332
Cr 12.330989815980345 9.645125566345483 10.803797903264124
Cr 9.364060541081551 15.81506738086696 10.905148989465951
Cr 12.078155381955261 12.110922215967701 10.733592480747934
Cr 12.782454909805036 10.758582910960651 15.608014783362215
Cr 10.098530682821286 14.620163466845455 13.117795265445757
Cr 13.29130583680918 9.439395633909369 13.625094880555613
Cr 11.737954683182403 12.920899639415257 8.732694544971768
Cr 13.046398492379216 8.834863511488143 8.305989498254114
Cr 11.760787064275211 13.148309923146511 14.99787153387171
Cr 12.454585879246366 11.360251990828667 13.09825710767735
Cr 13.69689339815804 11.189630247723848 9.00275259600595
Cr 11.45969997243836 14.475931657049495 10.942429483706684
Cr 14.373946577020082 8.367196953353782 11.653152275488452
Cr 12.514820581661363 14.086624857396382 13.303543952311268
Cr 14.383751643276293 10.759668188824662 11.556494831069596
Cr 14.271592079778873 12.186081331859052 13.95051008555039
Cr 14.062628029903488 13.197271585574809 11.610206343376081
Cr 15.436143983566847 9.525181762279763 9.455741072529158
Cr 13.69357141651563 13.876016490105705 9.639350438397678
Cr 15.429569180412035 12.033225495553747 9.774521161656216
Cr 13.07657802875415 15.797997747152507 11.565969362626637
