40
Energy = -315.99172178 eV
Cr 12.930832885941136 8.6646050226296 10.435803976008703
Cr 11.389137846947282 12.547110829239868 8.308107063477609
Cr 6.965789797685034 12.557030885832624 10.330570543714966
Cr 12.694274282323322 14.893532243889537 11.593894611301405
Cr 13.155119601816356 10.718705069706314 14.105714108553121
Cr 8.995395022051017 9.288029394285996 10.596315177885186
Cr 7.0232976277811385 10.462581830147093 12.239084704557207
Cr 10.381339586858177 15.194721676451291 11.269063105058134
Cr 10.751565266651939 7.961501385815304 8.838526072103711
Cr 12.056960388662754 14.743486883392821 9.182448079253533
Cr 10.130397384439243 13.158490593457602 12.922042953836492
Cr 12.78032209052627 8.906558696360865 8.081861692599944
Cr 11.367243028698539 12.609100205824411 10.825235073216879
Cr 9.164445215807001 9.219364279526236 13.127573547052043
Cr 9.298501685716591 11.627086602538926 9.032383109379117
Cr 8.094275277414088 14.23180136489949 11.97783463334332
Cr 11.323080196766616 12.580694785094835 14.785473761592758
Cr 15.323006954832428 9.074968510878396 11.96862875951637
Cr 13.703372632302736 13.025192352487592 10.097732479727446
Cr 15.40666623128366 11.156641109053792 12.834627133228686
Cr 11.086634494769848 10.324787111173572 12.378781524525612
Cr 9.022971481230389 11.489529488775242 11.433829718482814
Cr 13.407508841224292 10.853993004791814 11.480998293485085
Cr 11.76598170572885 14.96653344410381 13.557301656684897
Cr 10.84935979356688 8.026109574234859 11.33184563576492
Cr 9.41625526303559 13.892400073509595 9.79086087924974
Cr 7.284280695712733 12.683553593332228 13.081942223790257
Cr 12.80443011460775 12.585000743627218 12.89803779059806
Cr 11.17016497349901 10.266133245938896 9.893929590025927
Cr 12.851732423569041 8.953863850698786 12.99015010997237
Cr 14.892158891966233 13.378724071828902 12.051715988152806
Cr 11.09736899002085 10.269599861115456 7.277110315393857
Cr 13.241219015193344 11.129708478145062 8.894682259694774
Cr 9.14609552106531 11.076396171159896 13.997124404403621
Cr 9.082218588946159 9.440215523548504 8.209163641993879
Cr 7.052062108113667 10.5982658093089 9.668021855930723
Cr 15.040293774568894 9.580267318557757 9.565771351205685
Cr 15.752354170762153 11.456381648479816 10.335591145623862
Cr 11.055596925170413 9.918553715105508 14.78579492066451
Cr 10.948908416726239 7.997959086326625 13.766272989071926
