44
Energy = -346.79592959 eV
Cr 7.5617124722961435 10.146743279868062 7.314730043400249
Cr 7.88760654239475 11.337802610721356 10.820540848239425
Cr 9.579839833898042 8.475525235860298 7.761987743141042
Cr 7.245217173143059 9.4056797379197 9.237430796832385
Cr 7.7471008617603685 13.035015711725979 13.016986018573553
Cr 9.641610308292188 10.411675534084436 6.048421505133721
Cr 7.3269157165664325 12.252323429629085 8.570096629586192
Cr 8.53128486303417 11.107705719269925 13.278370024204994
Cr 9.382593207365865 8.062434897437143 9.700110102994678
Cr 9.595875131027185 10.802704381791234 9.10165798514486
Cr 7.682673356350394 13.92173022527508 10.758429347981242
Cr 8.068325361524758 9.088864228991763 11.658966422740889
Cr 11.675675468697468 9.089450709547863 9.53568901948153
Cr 10.016876597117703 13.504294693307855 13.781254654449176
Cr 10.21582741349586 11.426808229665479 15.473116419784027
Cr 11.502748169837085 10.49591337954143 7.647891638648498
Cr 9.38188482804807 12.242769128085875 6.913729019235109
Cr 9.777638294450142 7.163379876362205 12.09711201155408
Cr 9.875575676308427 12.38330576268225 11.419803690425024
Cr 9.6373791280032 14.744806516829023 11.788300464145683
Cr 10.172874081487748 9.700703062631076 11.548746261463146
Cr 9.741287020357696 9.181600787477683 14.071189666972353
Cr 9.53925284933121 13.250606859551208 9.317469956239973
Cr 11.710761640757784 12.760711875080952 8.106044221228185
Cr 11.161392290935343 11.30240665035129 13.1538552156763
Cr 11.59621343742142 7.400795312719607 11.179705106626214
Cr 11.3424119553663 8.502374063352972 13.591309745524324
Cr 12.063159626776608 13.087765842180879 15.219370956114073
Cr 11.936257875901818 11.659859896769097 10.287651540847953
Cr 12.036492118321785 13.68291793020545 12.494268410052527
Cr 12.775756460676032 9.60886364032684 11.926480137431128
Cr 12.628591980682886 10.439280318629127 14.631279891981219
Cr 11.691381910024152 14.251221768895029 10.384167185662902
Cr 13.749088482934628 10.740946928819408 8.508193147495025
Cr 13.669837483640341 11.83972137252036 12.381390851306428
Cr 13.904184818250656 12.901700234855639 9.7644848364441
Cr 13.914639608611292 8.864365471167536 10.099433306258781
Cr 13.946722199218895 8.331605203399942 13.67840119450631
Cr 13.980202338195292 13.08792165317388 14.367095871136106
Cr 15.027093802138758 9.986389134334633 13.385169050713424
Cr 16.300884642640376 13.133127612571649 10.910318843491527
Cr 14.213110484617994 14.242643615562898 11.892175420530164
Cr 16.168947240004133 12.385464534989058 12.870371806711528
Cr 14.861948755785216 11.024926449526248 10.77365649757929
