43
Energy = -339.71614711 eV
Cr 13.833447173165355 10.495410922859056 7.836372951967548
Cr 13.855270277269137 12.81939637176393 6.650254707104912
Cr 14.08890011211987 8.686931218993605 6.47170124872144
Cr 12.271707620827842 10.665164086095468 6.130829195195655
Cr 12.716924724765052 14.621413100638287 8.509190845796972
Cr 13.235616765139932 12.29456918307267 9.425129715016851
Cr 13.125072316070698 9.816582838440768 10.361628926021325
Cr 13.656700359315336 8.193468447374254 8.471023726640492
Cr 12.71839812032231 13.662338124171892 11.158270244857539
Cr 11.490959045763791 10.002998142800775 8.690076022587688
Cr 11.800864837814348 8.317756875462674 6.7890578849343814
Cr 11.53011552896196 12.309270056108371 7.814727226289854
Cr 9.888463318531157 10.276870263793246 6.876479801469946
Cr 10.893323328310855 13.900215213471625 9.47254316646233
Cr 12.989741763860174 11.093095406577861 12.19891410904848
Cr 11.04144812394649 11.631450447670728 10.488103162615257
Cr 13.261464385098915 7.448789394593907 10.794954748469275
Cr 10.940463770616265 9.089282631550141 11.426199694596589
Cr 13.152161698478935 8.673591859629083 12.86658238601958
Cr 11.36811750411433 7.6860949178255265 9.392143549991669
Cr 10.90965307103121 12.491945842263883 12.809874192884491
Cr 10.345448174878781 14.461423744749576 11.745262380094283
Cr 11.321545481839635 7.764153610956423 14.020139055912283
Cr 11.300882838242927 6.594573465689986 11.9733774708427
Cr 9.372734423438182 11.910539166682012 8.370814238650299
Cr 9.378895415637553 8.185931438653357 7.999040235847079
Cr 9.119669016397054 9.971224750670952 9.714335613913246
Cr 9.057795773312655 12.765338805416057 10.881486277080734
Cr 8.837517196331204 7.3712886818033105 10.415329741645168
Cr 8.63180842687382 13.408028632047502 13.307868975984686
Cr 10.250097895867725 11.991196723115404 15.009320869893095
Cr 9.003518259442396 10.90616390752621 12.337525326067551
Cr 11.100998199766604 10.07707080395601 13.50422930799768
Cr 7.330366531484302 10.038126557556392 7.639426750610686
Cr 9.249280361768113 8.133335159662362 13.019130614917232
Cr 7.228362120569463 11.295963851765102 9.65229294505096
Cr 6.912607485734052 8.531145631287217 9.173527180663081
Cr 6.801256172002081 12.00957015205588 12.215873231605368
Cr 7.6847842581056405 9.19560550401787 11.620068243719908
Cr 7.919768939912657 12.057351770568285 14.706461975698934
Cr 9.041006375055604 9.714468451681585 14.551477190257028
Cr 5.5432615534484 10.151890445820785 10.78791805236306
Cr 6.6568296449581466 10.146221789753136 13.578285205085068
