48
Energy = -376.13133917 eV
Cr 7.773089927963903 12.030846966028617 10.198183488619211
Cr 11.947530757808584 9.89238725865763 8.124754736801911
Cr 8.73506585534441 4.573798669633712 9.485950753573249
Cr 5.972922126999256 8.66987948286553 8.87757978898606
Cr 8.98950100522191 7.000637434915786 10.161249308354673
Cr 11.572257463003755 11.851122371372433 12.47713349615529
Cr 10.300069759313722 10.23631900372972 6.34114530389728
Cr 10.687310294255683 14.093970339775131 6.3550010712973
Cr 8.149177106239422 5.688136549058773 11.859430411367374
Cr 9.101139699206943 8.379750989791772 12.08904350714595
Cr 7.721451010056059 7.638118682154432 13.647522741863447
Cr 10.805207994371402 14.818941107725099 8.985569719765712
Cr 13.783033950526786 9.244624039665363 9.479545481687907
Cr 9.221363983258115 7.650349875468599 5.956435841632012
Cr 13.80649084147469 10.377245895965364 11.351950986680372
Cr 12.292212023997372 7.398163479138172 8.434073896901952
Cr 11.49120652910728 8.197036134648016 6.230141840473818
Cr 8.379743606383778 14.485127272753815 10.347294171849802
Cr 10.887100202368941 8.760391987017957 10.269059354735603
Cr 9.66779086401303 10.7403572710641 11.42055099007561
Cr 7.150242695537123 11.356914765474663 8.529268724233894
Cr 11.75753912889231 9.291815308249022 12.339528885781199
Cr 10.269144637862807 6.214763098006944 7.792088368669097
Cr 10.941726747907845 5.870930838276023 10.274213936945875
Cr 10.702053371775404 6.888446181911693 12.353586663120256
Cr 12.006621709887842 11.05492190059362 10.227973383874659
Cr 13.087193050755246 7.557966548643187 10.9833157176038
Cr 5.559204183315592 8.52630338060159 13.116776792061208
Cr 8.891627272986279 13.46184872019855 8.204039956369137
Cr 12.191566645494131 11.592470777326273 6.005541501139518
Cr 8.122341955881652 9.413691816573326 7.123830334147209
Cr 10.305350335351129 13.06198301806673 10.47702224881799
Cr 13.870143622595524 11.620617820079817 8.523953169015561
Cr 9.725118431819443 9.934472358762132 13.706070085012062
Cr 6.36224661453319 5.860763302299891 9.7892326633941
Cr 8.847541592018105 12.592339809975973 12.435136957762456
Cr 8.236194746571092 9.482173679655821 9.770471436747606
Cr 11.301989979176446 12.353315005148023 8.05581458221364
Cr 9.063707479838984 11.988335962181758 6.576422973711835
Cr 9.853396775831346 8.498946979995992 8.264563800674521
Cr 7.702768117438195 6.98784061956749 8.245086286295628
Cr 7.246510080421351 10.088629365350512 12.18329097853593
Cr 12.933189444798728 13.996619043182035 7.860892988375234
Cr 5.824559776902729 10.292248377987649 10.662551385498473
Cr 5.740925853238729 6.261719321754087 12.439765928521403
Cr 9.714406867026506 10.98403162272598 8.898432137170499
Cr 6.7260947216135225 7.797496216190629 10.89537106208334
Cr 12.68724881778596 13.345509007962828 10.278459818532198
