45
Energy = -356.24815156 eV
Cr 11.018137249551776 13.705040507136413 9.767822070587984
Cr 13.27091739158993 14.631446700801868 9.629794889256868
Cr 13.233757079284258 12.195085763511123 9.162228507733511
Cr 9.091842072476581 15.218341256589998 11.151797465040335
Cr 11.428082006552149 15.290044025274577 11.685729381254843
Cr 8.957192421762764 14.049952145597176 9.05554709712109
Cr 10.921139031240054 11.919350106155017 8.075382363506955
Cr 8.427589730450524 12.345983503280102 7.045132598116414
Cr 15.076103455973493 12.710132216688052 10.591338052076809
Cr 14.065749767229928 10.12412967659582 9.667018667108369
Cr 9.037980198368507 14.731767821439426 13.44643951602723
Cr 11.604504440571404 11.191387091749611 10.612687657004408
Cr 12.047043055247569 9.665568384853344 8.678800278569483
Cr 12.849036863107546 13.366235017562689 11.580962956029385
Cr 10.080554545584539 12.874346020838674 11.891643323897952
Cr 7.557491381348724 13.521323816339615 11.301080561484728
Cr 9.625453503892686 10.219310810091676 7.465881092472536
Cr 9.063633995981212 11.78405312806242 9.746164618636655
Cr 6.639973376965304 12.025836673715393 9.072525840741463
Cr 11.33531182994048 14.037521976207154 13.720170929728914
Cr 7.09383708766657 10.862986378134476 6.806403732583392
Cr 16.333579306465072 10.21843712808354 10.670485312362484
Cr 10.450783543104048 8.003424296531346 8.314401875356133
Cr 16.10881861558539 8.485533611893354 9.598349395058204
Cr 14.065729508697501 11.060570992675364 11.873620590291965
Cr 13.663305187218409 12.796364505066359 13.6370297018727
Cr 7.8966991149347 9.670307678510694 8.925738492793508
Cr 12.988687320368264 7.667106916461042 9.675590980179804
Cr 7.55891036566987 10.854845432476413 11.405468061307227
Cr 9.850408288734386 9.250192194510477 10.069484151318
Cr 9.789700593924788 10.458140302440361 12.285250322625204
Cr 11.855921237114808 11.397398942840963 13.26476865037774
Cr 12.273431120245048 9.059814579500436 11.434509938326602
Cr 8.044177318545598 12.386105188834541 13.360059510386458
Cr 10.964598956781625 6.781891074848232 10.364004489097374
Cr 9.927662013266856 12.334907822670656 14.51189591602513
Cr 14.544095534498403 8.625664412580972 11.80194313278295
Cr 13.576102466420997 9.936540248753047 13.960097359626669
Cr 12.406385528849004 6.733981967751704 12.360268156348813
Cr 11.329779890263394 8.724138760808495 13.855589373370469
Cr 8.32262291576604 9.823981575337562 13.884430969505742
Cr 7.6473008476270525 8.779883464773917 11.61067961815841
Cr 10.8539164083236 10.056068363801627 15.136828909950463
Cr 9.865709457023353 7.981504524714925 12.046131211609888
Cr 13.731950001989489 7.557215899569416 13.819697332775004
