44
Energy = -350.04591226 eV
Cr 12.966305767398802 10.840023131328646 6.293474148849684
Cr 14.155395657257086 9.630312923854802 8.704308147175542
Cr 13.796285766115915 12.283568223681211 8.889480849514538
Cr 12.913718294866735 8.39274514299366 7.22689436843352
Cr 10.362068443263187 11.705239765211031 6.436083424306593
Cr 10.461074801320777 9.561662608936794 6.822505297392015
Cr 12.456530249523496 12.950178375524803 7.36559226404838
Cr 11.031259309942664 7.1536489019240594 7.696455757638962
Cr 8.232901274697488 10.094583009668924 7.220909645237871
Cr 11.85651419472785 10.591154047556847 8.484276132742178
Cr 8.581541882265716 7.472096446773984 7.898112368140276
Cr 13.351685178220007 10.880823803494726 10.736422815084103
Cr 13.326839124401682 6.708207644314141 9.200061959271393
Cr 14.129545362358792 8.738797098387773 11.339815406163659
Cr 12.148723926238475 8.586641770173319 9.907883157799784
Cr 11.655996113383367 12.667111811155152 9.999766476693987
Cr 9.63007130331434 11.360184788475168 8.813298237016673
Cr 8.192738120284984 12.687295753763744 6.9760422864467815
Cr 10.851795775968178 6.344648117399569 9.676783309735615
Cr 10.290272695169433 13.6539124678759 8.515026277981494
Cr 12.019431619726712 7.003483207329759 11.807959650109185
Cr 9.582728955548689 8.89370386305837 9.21084626637993
Cr 8.554456338057339 6.582953105237276 10.197682365965287
Cr 10.89053479168906 10.399713290097745 10.792871164509101
Cr 7.30114435752574 11.257542293230525 9.13699510001975
Cr 6.94390770590893 8.711275429299322 9.095062432109108
Cr 9.985117267076333 5.60651935993645 12.1447233118924
Cr 8.085610379154101 13.569364345177227 9.274723891091025
Cr 9.852620134897801 8.226325734922503 11.608517737519982
Cr 10.391157819225322 14.44097060651499 11.512827585815229
Cr 8.282705776477911 10.284558899978787 10.913634120610524
Cr 9.313067351141514 12.543375918857192 11.049635445675376
Cr 12.171774932506288 9.406245768468734 12.560695605285726
Cr 11.884176480604294 12.134532468328848 12.380639823115168
Cr 7.072332860462947 7.997101288729352 11.377925949529539
Cr 6.524362186527187 12.447521427982075 11.222138034391897
Cr 8.239876352960078 6.511600196241149 12.945364336462875
Cr 5.892721007206247 10.17252339639418 11.418928811724452
Cr 10.52792650282744 8.22914345231701 13.851399579787863
Cr 7.757223586443529 14.5347385012881 11.854515382903154
Cr 9.932035339064178 10.739891558623457 13.062088649321183
Cr 8.035524940461336 9.266511937765427 13.17323589558438
Cr 9.778023641737386 13.42000150963695 13.596364539136946
Cr 7.737783479816716 11.82715089425177 12.94466155055417
