42
Energy = -323.82203003 eV
Cr 10.710066534323968 16.59547335917091 14.745969012526787
Cr 12.225279840395727 14.519751452211048 15.762075296718399
Cr 13.835148315118175 15.895812733323538 17.067939943050533
Cr 15.243336356477858 17.4644705847914 18.702482843572792
Cr 17.014779643970822 16.16804009867593 19.86858870732087
Cr 16.503626994850194 16.47314150098578 17.086061602042168
Cr 18.634819835512673 16.923162272113952 16.271384715593804
Cr 17.872223913555633 17.56419291125342 13.946812120152435
Cr 15.955190399091457 16.55968904840956 9.887872327999194
Cr 16.150943058857926 16.644056162489555 12.24274708189772
Cr 13.483779524927849 16.88181949885558 12.284184248220336
Cr 9.79222383771815 14.193527185818942 14.912782452473115
Cr 13.485717572377855 15.59536929534669 19.913022464904788
Cr 15.514639553753018 14.517051176316567 18.713282077810458
Cr 18.263037796534398 14.843908157545506 18.26783322052524
Cr 17.7850185631786 14.534130371562744 16.068757014154816
Cr 19.930460073093432 15.529156724992784 14.809901458338757
Cr 19.32235460803517 13.754566224122067 12.871393234454835
Cr 16.23696633843387 14.127314615465039 9.80966144590694
Cr 14.208044357058709 15.20563273449516 11.009401833001267
Cr 11.937665347633128 15.188553539249128 13.653926896656913
Cr 14.235428869060039 15.37935299239602 13.88125091704816
Cr 11.45964611427733 14.878775753266366 11.454850690286484
Cr 10.401141437200174 13.388187314888002 17.343365805385293
Cr 13.219056915961678 13.249542409825949 12.636622308769558
Cr 13.76749351172027 13.162994862402167 19.83481158281253
Cr 11.918468028094544 14.697634791926198 18.58939660945252
Cr 13.571740851953798 13.078627748322315 17.479936828914006
Cr 15.487255041751833 14.343330918415852 15.841432993763567
Cr 14.479347554334014 12.258213326020325 11.02020106723908
Cr 12.707904266840904 13.554643812135797 9.854095203491005
Cr 17.497404070415854 15.202932458600678 13.960608614093328
Cr 16.238904385884023 12.840864411956145 17.43849966259139
Cr 11.087864075299054 12.799521638697774 13.451299195217922
Cr 15.887535595693697 13.826871177488334 12.654743967761338
Cr 19.012617376487615 13.127210551640815 14.97671489828494
Cr 11.85045999725624 12.158490999558305 15.775871790659291
Cr 10.400329302776553 15.968117686689805 16.85129067635689
Cr 11.92532172624689 17.294894988158017 18.289247900513026
Cr 17.797362184564836 12.427788922653711 11.433436010298701
Cr 17.80421588271718 15.025049118885528 11.133287301359205
Cr 19.321542473611405 16.334496595923724 12.379318105426432
