49
Energy = -388.85384399 eV
Cr 11.141953763082759 13.860070632026595 14.844837086102794
Cr 11.275399684890381 14.284763167213528 12.724395117749523
Cr 9.783742348976178 13.850331625124165 10.377137598145087
Cr 12.082610901430963 14.890538683242294 10.47803088785864
Cr 12.24205537628674 11.9301844718231 16.286689250186665
Cr 9.579248941497616 12.174815119127627 15.563081841531872
Cr 12.31053158186694 14.803636867451141 7.977470449280476
Cr 9.433012651916542 12.772920945300847 12.886424017644242
Cr 11.563938449237698 11.690632757373777 13.754268098264903
Cr 13.875838204011098 13.842068942372412 8.786378355994511
Cr 11.18477097992195 9.56515939003067 16.07533557673324
Cr 13.558011016990548 13.411228816818655 14.25781756001935
Cr 7.5020240422613025 11.413975530616232 13.647629447403185
Cr 13.596236807676231 13.532158117297634 11.364368937090388
Cr 7.33227511120057 13.035936167985422 9.362238638384271
Cr 11.555074039185413 12.26795176306261 11.311810586204103
Cr 11.292122902016263 12.91839544442936 8.769554813359171
Cr 7.469934790038468 13.11651423527582 11.57533497915466
Cr 13.686413255520375 10.63395136974175 15.113691259871944
Cr 13.173035015007859 14.112983943958957 6.179721607532526
Cr 9.2607404562446 12.034068434816508 7.906880492295745
Cr 9.631737279193425 10.234554965350954 14.426808027957092
Cr 10.919634028368524 13.455449231587458 6.275968842083282
Cr 9.737899183985746 10.518237888398001 12.149381522792023
Cr 7.163319723178714 10.687472703271796 8.654094404030735
Cr 7.643858526467989 9.076390955295164 13.12539621234791
Cr 13.814754976389565 11.491315694565088 12.745609231528068
Cr 9.279971891593002 11.469782401137586 10.217129612497368
Cr 12.925854049333939 12.040479598402667 7.313165009332299
Cr 9.295640508378892 9.417847887067216 8.336385684366205
Cr 6.849529438824914 10.828926466089996 11.115298622670805
Cr 11.960973694389406 9.233844620497939 13.76538811445981
Cr 10.94912772206318 10.993370852364583 6.70312864740922
Cr 13.62629325594959 11.432698397463279 9.860716584434538
Cr 14.13113584409456 8.882515540247695 13.20761426009097
Cr 12.329514212558195 10.03229900128145 11.605823588500401
Cr 11.425167253676511 10.604951610548396 9.181840750439138
Cr 9.73113641301233 8.015258517857493 12.935643452432878
Cr 6.690533793619141 8.500334406954803 8.94980051531903
Cr 8.146586136136833 8.994473845259634 10.781524250068786
Cr 14.734193530237775 9.658665409646257 10.86322019571928
Cr 12.141816458502023 7.312610516309005 12.09128836316898
Cr 13.28534901268836 9.898604597593037 8.014664266987438
Cr 11.292575128124518 8.526050708191867 7.575280710635103
Cr 13.032783047538956 8.626140528812686 9.711203567989077
Cr 9.161558332432937 7.2334220704946555 9.207122140663857
Cr 10.623142370541121 8.61110531518208 10.577551133549063
Cr 14.18424434034021 7.028988143443599 11.3765119809868
Cr 11.906139075575952 6.56536124805296 9.502783253189511
