40
Energy = -307.80352981 eV
Cr 15.71638789937666 13.766903941641509 9.785636199778427
Cr 12.975482576277773 13.077136259176505 9.837720598962527
Cr 11.086008742835647 14.749232900367828 9.722671660449967
Cr 13.826503403905232 15.26704347810072 9.807169279184546
Cr 10.008176719349752 13.137154707471913 9.90309241465175
Cr 15.673348395726629 11.22447900642863 10.965054801348217
Cr 12.855816506257352 10.852534064537146 11.519756338814384
Cr 14.414957881373752 13.240374224209054 11.733543098078089
Cr 12.67601126768896 15.213571919105348 11.590340571819326
Cr 10.000531355623258 11.237679857036897 11.661195724681772
Cr 13.943866448141033 8.49882825722159 11.91840571278785
Cr 17.147163692344797 13.293751957006563 11.729352579257782
Cr 15.442667895271695 15.518233161781012 11.768803150294362
Cr 9.980555871322093 14.814463267185538 12.18578845528177
Cr 11.620564427562398 9.062664765598955 12.196305586059456
Cr 8.366280664512995 13.301698910968053 11.925684971413956
Cr 16.231132497509765 14.81823543765413 13.786806301453296
Cr 11.609944478762076 13.060127377802324 11.885838870336505
Cr 13.313406160468196 12.13831866850766 13.797476287840794
Cr 18.363910436445167 13.77176403602251 14.37868947458888
Cr 9.52134302370625 12.836466774406428 13.867996790786332
Cr 14.604327663347167 13.200552803893718 15.46617268872907
Cr 11.53677022863215 16.23752847430857 13.983165431412022
Cr 11.18216621621869 11.195954405353973 13.768965007314513
Cr 16.000138604620734 12.454912990798412 13.509861126319743
Cr 13.899511835546459 14.799723616712173 13.901083431525581
Cr 11.867069185164876 13.88016127357851 14.652111350013174
Cr 12.848613950634164 9.507662367912461 14.268856327201755
Cr 14.718620768291236 10.425670049664443 12.990265341395155
Cr 13.753493776797741 17.14723162743037 12.879919074788186
Cr 15.24900823537608 17.069414631471513 14.083872526452017
Cr 9.45818290485301 14.929445850228685 14.669956361953085
Cr 13.249270587760657 16.264814102658256 15.59371157404514
Cr 15.048806571961881 10.817458231272136 15.58474778962965
Cr 10.4966025703696 10.194628620179556 15.569615989890874
Cr 12.594585751201352 11.478742335149766 15.955989941470854
Cr 15.657129496759483 15.2743710200764 16.046218137715456
Cr 17.172283668137425 12.988279142636088 15.71106554677606
Cr 13.010380786392123 14.14024045561299 16.820074732431777
Cr 10.618512440563542 12.85208061592049 16.316554340155218
