43
Energy = -342.62421194 eV
Cr 14.372673727195968 9.299788934775272 11.896351422205761
Cr 12.71147784077813 6.621595079301813 12.11873800926803
Cr 13.564417905243511 7.533841171795037 9.416910356471172
Cr 13.997099934883357 10.435973240624202 9.654388047966046
Cr 13.421302893580284 9.461015902088223 7.380595813305549
Cr 12.10780661052907 8.998258102845131 13.506386254082056
Cr 10.90267394458533 10.737641654224706 14.400919238402263
Cr 11.23977700798157 6.332772265424843 10.098071156129098
Cr 12.57928044585915 11.04612821164486 12.13248065676707
Cr 12.32486673091349 8.64387043362036 10.965865735394392
Cr 10.501679358196016 7.46199703843168 12.512588127954752
Cr 9.249795135690064 9.067262508099901 14.16695866503579
Cr 11.593159925547885 8.494601574212242 8.371738602955027
Cr 13.256429707431167 12.153663412482166 7.910034686715387
Cr 11.7167549948627 10.551372730305083 9.556629915077583
Cr 12.784115422269794 12.786998853405906 10.545167195857243
Cr 10.908486318079206 12.678879077529041 12.964662183525032
Cr 10.251747157003736 10.07538092134948 11.878045376648046
Cr 8.263675992133004 8.538695437829787 12.01575712385385
Cr 8.649218133533045 11.233586054406837 13.000288015909572
Cr 9.730867029129378 8.49794551870376 9.925916040304937
Cr 8.880506008344106 6.232292372674115 10.91076821532727
Cr 10.546281263240074 14.502520826975413 10.242850578061478
Cr 11.176702959681835 12.831020029478413 8.377923411853072
Cr 11.417069316149602 8.773979380078199 5.723462448546787
Cr 11.20754968209098 10.709836339803097 6.883493636055642
Cr 6.571512972779578 10.091672077477003 12.645660008357334
Cr 7.877913752559495 10.751829255488484 10.458720808040395
Cr 8.267564209013784 13.257356691704139 11.712494732678673
Cr 10.266161171217536 6.2953866925495205 8.228276694515246
Cr 10.289086097686267 12.19589215696331 10.829809882382706
Cr 9.551816600666683 10.540588365740136 8.550601254952507
Cr 6.24670505674095 12.252807926610286 12.21696241013733
Cr 9.554987251651887 8.511856751632575 7.083079606056787
Cr 8.035575987546025 7.0915337405788454 8.71948258950217
Cr 6.773660943451398 8.375908414358015 10.411686868600613
Cr 9.215539928339245 12.417199534850312 6.566615434412053
Cr 7.362967233931028 9.569913721770387 8.08117758050636
Cr 8.67676361711488 12.930752432734677 9.078204285171692
Cr 8.847768240793528 10.42851290874936 5.960702631824681
Cr 5.727605510646862 11.120569380565632 10.003027130839387
Cr 6.685597902658404 13.359808990321099 9.768261505287471
Cr 7.147499962381754 11.620531511524192 7.784852716116475
