46
Energy = -362.71210206 eV
Cr 10.93377400957951 9.000613333853849 5.822392857658404
Cr 6.817139623313354 12.521350386738753 9.732594972571116
Cr 5.214397215105905 8.64386139039695 9.12758963675735
Cr 6.075202371627458 6.172069639691596 9.159301617563262
Cr 7.91860143264375 5.513286693017065 11.11769377104924
Cr 10.760280648268251 8.890312857532756 13.560611722262829
Cr 4.635427915609772 11.27094789845956 8.684630978405933
Cr 9.615777155143512 11.291421960313256 12.848943776288866
Cr 10.320851295747996 6.46738202419676 5.22134497253066
Cr 10.50339652284929 5.600370085746208 7.295640637190384
Cr 12.369333697614756 8.941285237279748 11.230807145276753
Cr 9.36450077572063 7.2997605962896115 9.853521509706775
Cr 7.964131674941728 9.753960481144153 6.961783318517312
Cr 11.805817791163113 10.804155871632812 12.480924020200343
Cr 13.106041197917117 9.429504590627316 7.087860725698215
Cr 7.999764922385119 5.874483673608763 6.544910432726652
Cr 7.776960332829595 9.120792477646237 12.807217952247731
Cr 10.447656043733538 4.807662618204482 9.724906139269192
Cr 6.427373276415682 11.508649305899935 12.454993698610245
Cr 11.745528059994617 6.974764686440791 9.536862231597969
Cr 8.917433032803055 10.241259754670955 4.578282353200085
Cr 7.323339940616348 8.117015186701943 10.635520228571954
Cr 10.672244343462285 11.038676131973332 10.320283387792253
Cr 9.2974068724471 12.76069105719399 10.627385723373955
Cr 13.03388416718789 10.538555690500912 9.796663091773262
Cr 9.775257054550366 7.714656667784613 7.451332888405457
Cr 6.682426833135559 12.079586865161195 6.967773906605768
Cr 8.78572925468901 11.921944702097909 8.71817927197176
Cr 11.38129853521212 9.151792902849051 8.684676213176957
Cr 13.911299422218038 8.284665889064238 9.053164885287407
Cr 8.29961546763329 12.205369448264452 6.189838769709893
Cr 8.19169100658525 10.857697324530735 11.02842073910236
Cr 8.269786051534597 5.52645834863559 8.796128252984262
Cr 7.099240785158685 10.254385809229516 4.677744887455282
Cr 8.439534774791836 7.954193138166137 5.400911661723845
Cr 7.1400854960585125 7.838845090769968 7.963000377788468
Cr 12.274746456190565 7.154467203819824 7.165712768960002
Cr 9.051186618396525 9.473085205176234 9.090040560838869
Cr 10.304877085681577 10.48215163078432 7.027339792435272
Cr 6.71213628938236 10.280219046737882 9.048366524064136
Cr 5.695507405924956 10.255295248154946 11.39204880234034
Cr 9.060966935350027 6.996984751802932 12.59651278663637
Cr 10.805307630229391 6.60559163070458 11.898781322138179
Cr 9.950652959099864 9.109301564944204 11.410442873988243
Cr 6.172910074039682 7.922848605467091 5.771687143569736
Cr 5.369794598110257 9.76794034918596 6.875543723071069
