44
Energy = -344.11902242 eV
Cr 13.832625269960872 12.069605726838315 14.017789863999171
Cr 12.292086557838479 13.576129672694586 14.447731698490982
Cr 7.907439161795648 11.360197485705063 14.591801958103195
Cr 9.99810384609724 12.706481042480432 14.35953346347342
Cr 8.170454970649548 9.15374247749793 12.81626854108174
Cr 11.58657404204649 11.512312073938404 12.768505169467655
Cr 13.492966529409644 9.92263054818137 12.702855420525783
Cr 10.086008972743675 10.080197994664674 13.784320412206371
Cr 11.442730533501905 8.819893663721064 12.20999085270763
Cr 9.5156243250718 7.344007201970015 12.329167403539996
Cr 12.896766701530938 8.082943504694411 10.524388005566236
Cr 10.863232915518271 6.780909559633983 10.419161449767962
Cr 7.645175839211854 13.314443258071393 13.310412696778078
Cr 6.550466003356536 10.861308767969863 12.776842730380661
Cr 14.05988154960828 11.735316463486857 11.429760665634628
Cr 10.30927100071405 14.038394509433553 12.49053102799233
Cr 12.707862872637902 13.666917401370494 11.936891697058904
Cr 6.4245538506012245 8.278174822869758 11.8861125751667
Cr 8.827552597677732 11.672757368560163 12.203635081819572
Cr 10.575329621581751 12.43892239653679 10.784385997930665
Cr 8.288360171042427 7.711024800427505 10.563892987665094
Cr 12.359285312813025 10.465917061651234 10.488072732404815
Cr 9.783471536877208 9.675451885615859 10.851827058284567
Cr 11.053311871169043 14.884540597555624 10.151746733756275
Cr 7.171137427624521 10.142349484295075 10.593738628482596
Cr 12.418912026173565 6.302311940053231 8.507839881077826
Cr 14.719615301832308 9.829293108404697 10.080615159699928
Cr 6.623512202418022 12.780689234726598 11.282105031019139
Cr 9.771239344582897 7.127226773532547 8.566482673617621
Cr 11.545035206983721 8.711885232218838 8.677784328594758
Cr 8.512244155375088 14.048744121255751 10.845381320584835
Cr 12.492168145946959 13.009207335568494 9.583562125353158
Cr 11.263823571004846 6.955017264750933 6.747295604892353
Cr 9.729644348526891 13.430548759421763 8.686395016626468
Cr 8.888139550424592 9.429052326649842 8.528673297036056
Cr 10.82554202546085 11.090504920061015 8.835615967145129
Cr 8.337928882188008 11.718221038831473 9.64120261685605
Cr 14.125192661317888 8.05730801333799 8.628388887921172
Cr 10.011472651512685 8.900811138360625 6.558913506373505
Cr 13.455836238429665 10.746072083769652 8.359120549151418
Cr 12.879631568667223 8.7084926534124 6.911767378468557
Cr 11.940624827803282 12.68731553977385 7.459107976534376
Cr 9.26702453830215 11.43434488621177 7.085347722585772
Cr 11.431009114845406 10.617333894399955 6.408887339560722
