46
Energy = -365.89671722 eV
Cr 14.614878574700285 8.339543853688339 13.462465057309561
Cr 12.383188226139056 7.38366282991352 14.63181297246647
Cr 13.110202686710108 5.890668086126271 12.995656474100638
Cr 14.439000233972658 7.938020425997479 10.706959196802197
Cr 12.79599631123482 10.180283485947406 13.70768110467485
Cr 10.451757695101417 6.3283254047674005 12.5315724082907
Cr 14.016140290780832 10.190149809816036 11.549564522538747
Cr 10.62048447419865 8.61918731571621 13.443976298503825
Cr 12.505089238737185 8.100137284724035 12.137362289516261
Cr 11.881483413296774 6.478729065003116 10.535314103339923
Cr 12.561288011290396 8.948326335503845 9.634857911073023
Cr 12.533708718538103 11.604721558270693 9.770149184719868
Cr 14.587044045641974 10.375370006691506 9.278434948829881
Cr 12.5091274121605 12.242422987283192 12.306499659370562
Cr 8.41048942703067 8.027096045216595 12.382178842076293
Cr 9.06121595985627 6.312821592158685 10.177224337465752
Cr 10.966868798299258 11.019278483160214 14.135694183460394
Cr 10.965990000960284 7.885320089346464 8.374837189759884
Cr 8.924991023254316 10.822059634669088 12.882478892270607
Cr 12.297561097445117 10.35644685557219 7.648905558305002
Cr 10.12397181564894 8.286744975513571 10.688357600757122
Cr 14.423627993232936 12.612860527019974 10.952768246143751
Cr 10.601235813345362 13.17531400678283 12.814165522192184
Cr 11.278765911667048 10.324181615069522 11.50329301089409
Cr 8.55269438960891 10.435330403488873 10.907197636546817
Cr 6.425499113176341 9.626664329259157 12.488773270385785
Cr 13.10175058479391 14.520409999854328 12.478972318822764
Cr 10.432402501624798 10.319902780820588 9.056845516180049
Cr 8.35560621316906 13.126334724671121 12.298261129940803
Cr 10.163755006465754 12.305555668743969 10.580371646772184
Cr 8.581862891434072 8.93285374428326 8.689202281002881
Cr 7.30089002836288 8.178867599080741 10.423641839112317
Cr 6.350118380137275 11.52304404885843 12.010671220650856
Cr 14.05069601301224 14.934969053127265 10.068396029062269
Cr 13.565617594419013 13.119991633021197 8.39144052857232
Cr 11.780252603711066 13.983760218341528 10.306880361619084
Cr 7.598726062841673 12.871378682198202 10.100352129393832
Cr 6.339447595015492 10.413355971657126 9.695816810803203
Cr 11.07034877030414 15.657460029453485 12.337675151874683
Cr 8.356483895757664 11.56224902977376 8.51560275232675
Cr 12.603440825900439 16.70457238481738 10.760658889091829
Cr 10.81213121390139 12.712234118345789 8.10284495824768
Cr 9.356081827607401 14.852122230607986 10.9466299852747
Cr 11.94997809409117 15.308728795787358 8.285922175568343
Cr 9.473057387607732 14.081846745671847 8.725917803865338
Cr 10.636789394578171 16.34075107364534 9.620197083379807
