48
Energy = -379.5839544 eV
Cr 15.773534813524817 13.204192375540174 12.366069915045664
Cr 15.36686337543183 12.791298547684693 9.847554870266984
Cr 15.234690576383372 10.202721498775762 8.997868994766423
Cr 14.88007488428303 10.926411844276744 11.36476475912206
Cr 13.465141983283171 13.765024521314219 13.817653826086309
Cr 14.489840447265852 14.639450472358993 11.805653538495548
Cr 14.457570935959023 11.714012233490358 13.880601707051909
Cr 14.658613566069661 8.51507044574753 11.12703246771406
Cr 13.736874196881649 7.640153067134087 9.331054349908472
Cr 13.35094551785863 12.355836618867075 11.569359524516711
Cr 13.404652833459854 12.241940077411293 8.685728716201481
Cr 13.657102526295628 9.755218854158523 7.579516950711304
Cr 13.021377168751911 9.775212282710378 12.6793896813867
Cr 11.900266231648626 12.097575602558889 13.71221910003135
Cr 12.86770742219778 14.193466339864031 9.647509964922348
Cr 12.825690026828825 10.278809277114492 10.082810471791296
Cr 11.870346108704336 14.433118357464005 12.178932984583799
Cr 10.377516195362892 8.59490089975112 12.804686618407263
Cr 11.908852998643617 8.368236636486149 11.01963586432642
Cr 11.0245600921884 10.788633759230128 12.100864781178137
Cr 11.551931246065362 9.893836371174483 14.567693924991225
Cr 11.643192001792952 8.416307566079823 8.403586432839125
Cr 11.309472936697043 12.470516524334217 10.368652353564714
Cr 11.254277446828219 10.799412648903134 8.183118074440799
Cr 12.33476443382204 11.340366146292547 6.3141725950971805
Cr 8.604074166010262 8.665162820161608 14.407520129628464
Cr 10.04662835033712 9.858711394606937 10.152851959319863
Cr 10.142303679297706 7.153755909788008 10.103637871405907
Cr 10.005269853803963 13.319306686544367 12.767796176556134
Cr 11.262292957546851 9.151520189925101 6.283146818004651
Cr 8.651394459565042 7.0827610246706065 12.110867355506844
Cr 9.103315576125196 12.051050598635754 8.853504482926512
Cr 9.464853683383234 10.914926125262648 14.018551763699923
Cr 9.723487168736435 14.271603817730448 10.230023284743558
Cr 8.873048966685493 12.008687468887269 11.366941859384841
Cr 8.296272176711016 9.745353822481512 12.009989500736072
Cr 11.013874628853438 13.125910476735626 7.923321751896686
Cr 9.149610974735202 8.973552278344876 8.31604717827278
Cr 9.40855620163255 10.93075335909781 6.801472625754187
Cr 7.790587665227178 14.207964774674425 12.157012469375546
Cr 6.869156210402089 7.569449947769097 12.881038542560386
Cr 7.627688155692834 8.181924158642897 10.34120478578558
Cr 6.800405199879203 9.982622850799784 13.757482934063702
Cr 7.472547717886847 10.682474131532064 9.526420709557474
Cr 7.615630133954198 12.203869256744184 13.527055066606177
Cr 7.25582030499999 13.288273867710364 10.278623271786703
Cr 6.317648507456304 11.831365048313382 11.778247522293949
Cr 5.834716979114952 9.362876010152949 11.36840490587492
