46
Energy = -365.8148603 eV
Cr 9.63804709052172 11.232124633915143 3.8630532708742127
Cr 8.585296637458264 8.58438512831305 5.203536300684266
Cr 11.435136299633855 9.010096386844936 4.980777491516238
Cr 11.695876226130956 11.93323359543557 5.477485210762701
Cr 7.651735109236335 11.505933713503136 5.731483149078933
Cr 11.260622295495155 7.09163409566142 4.971301997795423
Cr 5.769939728711132 8.841382086368903 6.2701148399900015
Cr 7.385724747958495 7.066798450564757 7.041303085254348
Cr 9.94227494547544 10.645919533100578 6.112495012408049
Cr 12.771977799863684 8.117921537686625 7.182623242612854
Cr 9.169134332288927 5.9286519447921995 6.053751774361092
Cr 11.917733497745076 9.855524261957846 7.50767251552345
Cr 5.14960792170079 6.474280415453228 7.769481116240775
Cr 7.7805182550462275 9.70061804938856 7.152385785155062
Cr 8.43407745092336 12.204406775648454 7.908631051078969
Cr 5.888977438371684 11.109580102167856 8.00129780017598
Cr 9.998631508637509 8.042248099646029 7.052600372128925
Cr 11.465284294773674 6.165205759253442 7.550798182320674
Cr 9.634191805747095 13.117334829111579 5.602444272565181
Cr 9.353189137528359 5.876477026909073 8.544571461270854
Cr 6.110460625099263 8.577209327755554 8.780317170404894
Cr 7.373088096967491 4.672527037939774 7.707227063010668
Cr 9.806610738352575 10.15021220410368 8.659298582399192
Cr 10.613875549063076 12.311111770768882 7.9248430399554755
Cr 5.855897935749413 4.805400967910393 9.936869047508548
Cr 8.613181439719384 8.281490660649395 9.065973469692523
Cr 7.147411998141593 6.517858576293453 9.535280754213698
Cr 11.107903825736736 7.950636342500191 9.44769311644249
Cr 4.824868356343139 7.28186226244506 10.543399153361083
Cr 7.570373864679288 10.380864756919143 9.668752979013847
Cr 4.113114114376037 9.1044632453036 8.253090202986273
Cr 8.460987212885978 4.4039698367825375 10.386704588437256
Cr 11.028748424672047 5.601511978422274 10.235343154430534
Cr 5.255390689636891 10.052540498447085 10.604286094716672
Cr 6.7221902517693035 12.174305987741562 10.348011147683156
Cr 9.197621460075634 6.828753812546537 11.010776200130683
Cr 11.696586614803499 10.219310664780293 10.258545356142367
Cr 9.344734490367914 11.987008041785549 10.478336578323303
Cr 6.96369319197475 8.383271218919745 11.273804977023445
Cr 9.539296193596485 9.487817343153495 11.203774673199453
Cr 6.894115620682047 6.047216595920061 12.097526067331088
Cr 11.218765291467687 7.84048381817474 11.829270127486494
Cr 7.528046059454874 10.632681186159827 12.204186487154072
Cr 9.100502819007529 5.28114165718525 12.719131205720778
Cr 8.63371163471841 8.056725131648392 13.004648846262903
Cr 10.35187616856474 10.466897841174859 12.846131176325917
