44
Energy = -346.34005817 eV
Cr 14.700176383511103 12.288621906102524 14.056635235319549
Cr 12.731820264450942 13.093667704407219 15.419176798204797
Cr 14.29273572027217 10.634903591427625 12.71417216110889
Cr 12.310448231066879 11.029193501691726 14.269244173715624
Cr 15.278156849719057 13.15685063563404 11.80252265754169
Cr 10.375251962842038 11.482057137992035 15.567647072557895
Cr 12.794671280570318 12.896504803469306 12.658226325375841
Cr 12.21202467691162 9.007568321982884 12.963190321779148
Cr 10.74666802746256 13.45076760887065 13.937636358895135
Cr 14.10670908617112 11.860556703398963 10.277742368556893
Cr 10.104167704063627 9.232543454206992 14.02713391840903
Cr 8.524824486485592 12.86333451161524 14.113711969451211
Cr 12.08632649902492 11.101404110476942 11.457368651696637
Cr 15.56555712532001 14.012264746034372 9.535916912789336
Cr 10.204993875357937 11.305698489395274 12.873588334125984
Cr 13.10206608749878 14.234987779548236 10.403965872467632
Cr 12.84593727199289 7.385736592320184 11.384236183914345
Cr 10.54620072347813 7.093893704910846 12.692608780025228
Cr 8.218617982959707 10.286225471585253 14.217929497593573
Cr 13.409924155537922 9.328843830066424 10.486613105977243
Cr 10.869614359045649 13.420461214892349 11.379704075269608
Cr 10.585857377380478 9.125013763243487 11.048465833185691
Cr 14.076183445733665 13.04602739316572 8.147476926573352
Cr 8.365707540548247 7.972972098775516 12.475487621797965
Cr 10.688145178277816 6.48787734982125 10.463736184568122
Cr 13.78487919079576 10.267330971464524 8.118063139938167
Cr 11.842763351296984 10.532633098824125 8.89769033112925
Cr 11.859041089868116 12.951503739437529 9.128456692856464
Cr 11.735120463944975 8.248974160669004 9.235283011335772
Cr 9.71789329939915 14.005139892957317 9.722365088900178
Cr 9.856842751893724 11.353064071750337 10.170797120203131
Cr 8.57578292150723 12.959327053007994 12.020359236234702
Cr 6.566819989513228 11.694016464746149 13.367931568264519
Cr 8.20777489901787 10.29783520922951 11.746512403445896
Cr 8.829290366882086 8.106223525077594 10.064647318538217
Cr 12.414481200780902 11.616746214890737 6.903698698623966
Cr 12.104239605994906 9.127289620941443 6.884339299399387
Cr 9.849228048470659 11.94640663760913 7.7937394715400465
Cr 9.770358245544278 9.554862703231578 8.373357411408662
Cr 7.928073547993743 12.357537885196882 9.423157040093502
Cr 6.308888218259569 11.95560331069233 11.161580435376946
Cr 7.552428008409072 10.074201860885326 9.568837569750261
Cr 10.699190711002823 10.495682557167774 6.3878325962946665
Cr 8.278751365429057 10.914693450992807 7.453827877893076
