41
Energy = -321.41584932 eV
Cr 13.224134621134258 8.583150078039553 9.472284215006747
Cr 13.559208641142973 8.932563377137521 6.433316141325841
Cr 13.401561428722495 8.024655547729042 11.96730123110752
Cr 13.596727706542271 10.47847145781986 10.844976122008173
Cr 13.55034596314869 10.614015071384237 7.982169687871536
Cr 11.593360238048652 8.545754113174697 7.875427824475315
Cr 13.095080877119095 12.041239174050158 6.169460960333093
Cr 13.687990028071523 7.042788495689233 13.993603770786235
Cr 10.817487347761759 8.183399216249617 10.411672708488942
Cr 14.065095624187295 9.831137329624454 13.273688978925971
Cr 11.508713044175545 10.699211599044657 9.376037811530342
Cr 14.057820054292277 12.577457225635644 12.258229404302746
Cr 13.922702845255635 12.355052336632903 9.58102182078366
Cr 11.066908048793046 10.346765543195641 6.705276227271703
Cr 14.282311261944043 13.339914948301981 7.685150152820352
Cr 10.912659893683156 7.504159112473593 12.807513468226572
Cr 12.369674907992966 9.062169202018787 14.338287215638116
Cr 11.584582252876437 9.921079326745936 11.955724910171813
Cr 9.327588210553118 9.284572314900775 8.650668324424679
Cr 11.77435216202798 12.476197139453674 11.064398506873218
Cr 11.712234394776019 12.672135711578267 8.197036366912723
Cr 12.08984032807237 11.563383085458776 13.54191350410496
Cr 8.990907149684817 8.644163097594587 11.670811263191307
Cr 9.424756394799113 10.664311358748902 10.502401054229356
Cr 10.007964829724285 9.945143921204988 13.650340470882186
Cr 9.436063569136055 11.493046093242011 7.924143552203712
Cr 11.661961067241025 13.760803595605731 12.977178021641114
Cr 12.249656886618753 14.43323554211013 9.837032408562273
Cr 11.218236077489573 10.77477769367622 15.471580032103972
Cr 9.725817648105362 12.061359740198101 12.496007953997273
Cr 7.056454759025842 9.51880558418621 10.31578252609753
Cr 9.83341440546977 12.995952255667982 9.82945183065236
Cr 7.774291789387767 10.613838378506674 12.544049704910051
Cr 10.094976235918054 12.693674111972223 14.70739051272999
Cr 7.662135878448022 11.674595498955576 9.047050684238508
Cr 8.575901258520966 11.119050781471577 14.721824111872552
Cr 10.063441955849033 14.548395909125809 11.46881131622834
Cr 8.02746730023826 13.00615697104986 11.213817446737607
Cr 6.333255667571275 11.382093797233024 10.943973697629138
Cr 8.851212713636075 14.394976191846219 13.220418645160295
Cr 7.114874798007031 12.635463049172703 13.549238602806572
