49
Energy = -384.96728391 eV
Cr 7.778860044403273 9.672595594328051 5.408033128560773
Cr 10.047011536437664 10.315849831311937 5.173686555006882
Cr 11.393766556698548 11.800453767140095 6.91314630277569
Cr 9.724876709754918 7.787723263173854 5.546047277096274
Cr 6.436987188751827 11.265424861789924 6.673098198591575
Cr 12.008544961319725 9.089096693632067 6.491265312274617
Cr 8.662495906636535 12.0636831083526 6.347698364891941
Cr 11.452095721194649 6.502228145119379 7.334736780963292
Cr 7.293904293094435 7.354720117584449 5.8214048393903175
Cr 5.328451225499179 8.974790997076756 6.151243145834892
Cr 7.098198104233365 13.48046799441382 8.044905430846976
Cr 7.426357050734197 9.115465468095199 7.74135913117961
Cr 9.793131736289194 9.825187032181695 7.2142688615171355
Cr 10.52833293282216 5.0472171506625045 9.045658169519351
Cr 13.144703160416885 10.418115575232076 8.592416180521125
Cr 12.034471686506418 12.831536397030337 9.258472226793549
Cr 11.380793493379498 8.528467279352714 8.965172659553783
Cr 5.604099866812949 9.975637121993993 8.710784991618517
Cr 13.322594247237545 7.847754030781223 8.361478174592387
Cr 8.40495995651319 11.426574751644683 8.71601013018056
Cr 9.78505599467044 13.39771936395925 8.486232673869454
Cr 8.146572741416623 5.485856248748504 8.594465857330105
Cr 6.402407809925157 7.277008986458586 7.896464149138426
Cr 9.315121611654524 7.320291180930963 7.783487867375099
Cr 10.846357741749785 11.112174381276434 9.337246781535672
Cr 9.176736546278711 9.302331190524567 9.49949337410959
Cr 6.16067434565374 12.442180565423593 9.170564800109792
Cr 12.467553645032481 6.12698937003083 9.854113096520292
Cr 7.386577344454918 7.7238125378209235 9.946876361618594
Cr 6.825677072945047 10.030168545613318 10.289857597414718
Cr 9.923322635751433 7.053240013876872 10.186087800159095
Cr 8.297446581876356 5.715146791165163 11.039919462235504
Cr 8.258106618490235 13.670564260892311 10.460715079792545
Cr 13.229185529567793 8.670264584855648 10.687442660153975
Cr 10.705656658885905 4.78785540916929 11.401906495840452
Cr 10.552452490997327 13.081922874212966 11.038019694331343
Cr 12.606406405157383 11.323050561406502 11.217944127339909
Cr 8.986921191963896 11.27346552988909 11.19022429129822
Cr 10.79986413126937 9.528915754136314 11.373227202697873
Cr 8.459928472165519 8.532790806345618 11.852956757144211
Cr 6.900017723053069 12.120492493091621 11.64417546455919
Cr 11.651817279309434 7.330838124906404 11.833234062635162
Cr 9.473109949702232 6.640409467268628 12.83403585540652
Cr 8.984693768582797 13.257186378738748 13.037987340484598
Cr 12.524244382059289 9.360073717496682 13.32548611925022
Cr 11.051166938313695 11.487802258906296 12.984557691845652
Cr 8.864756704241424 10.501131181413369 13.32842541929646
Cr 10.31389400522598 8.777520451667115 13.816853485132606
Cr 7.844538547416758 8.150709035424512 14.182013816212946
