42
Energy = -333.58534058 eV
Cr 10.50198602915129 9.989891221097485 4.973343535894298
Cr 8.093109770243817 10.359427362963803 5.407804564875402
Cr 6.8444747370161485 6.504808132026911 4.521545396880175
Cr 8.452746112259907 8.109379918245292 5.621512399248978
Cr 5.69276868479163 8.747136836547416 5.86314709720348
Cr 10.412687607129353 11.775600622518734 6.492240370185757
Cr 10.693791283939056 7.772252915240088 5.904843615123546
Cr 12.473563809188636 9.465802009878054 6.665039339105456
Cr 8.954783400632916 5.575666647385873 6.127138741171058
Cr 9.885132197498525 9.605527489365075 7.516124931803097
Cr 5.475672147204256 10.813926820357024 7.614564416333449
Cr 4.3817290814801275 6.305024524575935 6.457955205498804
Cr 7.259809214582061 9.206978730576202 7.66482356237992
Cr 6.6469294657153295 4.263663381091099 6.830941317284129
Cr 7.878749664660336 11.469192647281504 7.493294282483831
Cr 6.666734780512645 6.597909023306077 6.8921902055564885
Cr 9.048118722363688 7.396997542554492 8.019123190669218
Cr 4.712214032459611 8.066811140247202 8.070841194049457
Cr 10.886175113630621 5.924490944024027 7.4979553239731604
Cr 11.266796838051242 8.114166380625361 8.563059016847433
Cr 12.122208156748982 10.863199714658682 8.137942422769315
Cr 5.377742321032867 5.606310234797938 8.9977886735293
Cr 9.805763929971723 11.916347469612447 8.91143947369371
Cr 8.170134303220722 5.312522464938106 8.761241370608603
Cr 8.384727295120204 9.754335527477425 9.545056261059582
Cr 10.439165366601694 5.70489152867434 9.811541838450571
Cr 9.18888783044759 7.44554672485328 10.496209064528326
Cr 7.167511098633881 12.035977128457231 9.384777609485306
Cr 10.843751377681034 9.812082900872788 10.158955084269252
Cr 5.6968321202300025 9.759972455403783 9.693458667197989
Cr 13.205934148634086 9.464612075966496 9.674711766183005
Cr 11.84013840484517 12.115621606677779 10.222756489634545
Cr 6.967302632419421 7.568352473729864 9.338802626357985
Cr 5.254963244737324 7.364802683317821 10.742591814370922
Cr 11.44809230882405 7.848003628364996 11.385424958995708
Cr 7.334674572228362 5.830140430917911 11.164515633353519
Cr 9.242392810311609 11.66203769791107 11.18421750297873
Cr 9.204177862738836 7.20369772008009 12.931183153882408
Cr 6.963001757906977 10.930006504055942 11.490632707475728
Cr 9.276099846987519 9.465009321931605 12.232051142181119
Cr 11.389734859130686 10.389048560515391 12.54319907688066
Cr 7.172994365221653 8.60703016306207 11.718218261732545
