48
Energy = -377.98600063 eV
Cr 8.641331286698477 9.212010981182262 5.839834467157299
Cr 6.318211898193269 9.663351195012305 5.408497746482986
Cr 10.664526820103147 7.5193294644105135 5.917909788616439
Cr 5.082263264058528 8.819313465923997 6.403626333674073
Cr 10.791153585765473 10.087969599696367 6.559967191743877
Cr 8.146516440193421 11.64005087035147 6.0367528910293045
Cr 7.419792756778205 7.144382139843343 6.306233165476624
Cr 14.913041014217614 9.261608937245935 8.370202991566533
Cr 6.052291989105448 11.289178870865971 7.393639614345421
Cr 7.030305687671768 9.108154219449723 7.998271292418778
Cr 12.848143707322514 11.036536737784965 8.165910058147267
Cr 12.581585954778056 8.463022885025344 7.6715173350279935
Cr 9.227471152227853 5.612810111806818 7.378360015468796
Cr 5.204619765918926 7.101818220852852 8.39852295694703
Cr 11.489653693885092 6.21232105094785 7.812163490097247
Cr 7.77529385121633 12.561066006270883 8.99421883131755
Cr 10.435787178167137 12.254909697234936 8.526461543468464
Cr 9.549696532225896 8.05571443889101 7.8656191917368945
Cr 8.737328692073651 10.711044655704757 8.046541949340153
Cr 4.555499234882147 9.901409763507 8.755222080842115
Cr 10.87708328719713 9.988175412997267 9.038466713516712
Cr 7.388757823747556 6.865184192788965 8.809458835146804
Cr 5.0332378724894715 12.396042313040185 9.833385799353161
Cr 13.045848367246993 9.468398478013327 10.049722413868084
Cr 14.518096254148801 11.434718936936777 10.268392218531236
Cr 11.228173132388408 7.713387329391476 9.768570639662661
Cr 9.355790860086202 6.052603934754533 9.674754757469112
Cr 6.912720935335193 10.787758596539463 9.75023299353242
Cr 11.615762685230399 5.848232907779778 10.632466066636447
Cr 8.759558989740013 8.785028708299082 10.130292105668428
Cr 5.905609288924073 8.581963754903953 10.22276615551439
Cr 7.113096170535436 12.592074897548668 11.609886418532575
Cr 13.680924576066563 7.013964597811589 9.359371849391168
Cr 14.865960035392334 8.86061013236024 10.94777778542159
Cr 11.983943349278825 11.833582350201365 10.643749326040274
Cr 9.242844128847569 11.378331374792776 10.630040310184564
Cr 4.866256789142551 11.16489972908499 11.125199645241757
Cr 10.944353226218848 9.54990688447825 11.430201601057002
Cr 12.754182973826495 7.712712791722099 11.89858630595797
Cr 9.88370280479431 13.499390044162828 10.9854530100071
Cr 7.379942893360715 7.2892741715533855 11.278022481130225
Cr 10.063283081098735 7.234070263502552 12.032405485897279
Cr 13.157174415912108 10.416703965072834 12.444737331860134
Cr 7.152822458179434 9.950079246174287 12.06128454804133
Cr 8.80680380941692 9.510955086839722 12.651222858772506
Cr 10.711578449866856 11.545297527400336 12.831108567362968
Cr 8.268258570989733 12.327483296172371 12.933167257689046
Cr 11.33965669100694 8.863104189621142 13.429742009560771
