40
Energy = -312.82162758 eV
Cr 8.931784541463442 13.314090916572944 12.623846529413314
Cr 12.12904366614976 11.386317044955968 14.028429418141364
Cr 9.93019899650169 12.364628366909916 14.538872210827048
Cr 6.975394008121016 11.967626809029852 12.745323153990206
Cr 8.642471663129717 10.872745576363698 13.624949832125756
Cr 11.719119012032625 13.757484567531524 13.167878292050018
Cr 7.621458857431038 13.357215327518691 10.378581215536714
Cr 10.872148238916303 9.757287123336038 14.100632426644745
Cr 9.805310043515089 12.924597865851505 9.953587667049636
Cr 10.541499166150947 11.758186737715892 12.244628195536519
Cr 11.08416770003588 14.408447995737411 11.375959463644653
Cr 13.505892972751283 9.297008831664098 13.267734824876495
Cr 14.154531406494076 11.93209956496613 12.695730255611686
Cr 8.296281789690637 11.209217404445647 11.126246370742724
Cr 8.884546615041867 7.865061491768913 13.232667978101635
Cr 12.102805469316616 9.933981520428564 11.759969922341643
Cr 13.736336118926031 14.269169249869174 11.590357660850971
Cr 5.892570188310522 11.277848633548878 10.215756445038926
Cr 7.094680772909891 9.22045300928392 11.6980580444959
Cr 9.76600120875288 9.385719300151496 11.905338627721118
Cr 14.47546815620916 10.102060303927603 10.857649518120724
Cr 14.359979704751531 12.221251685072243 9.845865073067495
Cr 13.23050966556664 14.541601520190147 9.815855987039397
Cr 12.448835550020187 12.31736163925867 10.96241700106217
Cr 11.440019197115802 7.4824479608892425 12.428020119807215
Cr 8.258590180062454 11.158145177938222 8.663742995883732
Cr 8.981120901956032 7.136370465685304 11.019071753042999
Cr 6.226047617168364 9.24701412529392 9.051480738161402
Cr 11.948320587068984 12.79895382382552 8.866820706291607
Cr 8.558969660083259 9.004161438241267 9.69052436927402
Cr 10.435088304686147 10.739220213981639 9.9197726074382
Cr 12.59529169530546 10.341170590594688 9.269075749082223
Cr 13.333032146642633 8.215523506690632 10.529433104243715
Cr 13.68297175247775 11.788572247790766 7.676325812026942
Cr 14.754961567188186 9.79223998347979 8.450757400391103
Cr 11.011490609556079 8.217372429879408 9.988992158972678
Cr 10.795734668784231 11.244626128601544 7.641567911716724
Cr 12.927699500639454 8.396733209541976 8.137703548793098
Cr 10.413444136310543 9.1277783702992 8.057765241446704
Cr 12.57223203765306 10.065826669578815 6.772109539198569
