49
Energy = -390.35986189 eV
Cr 9.05140760311362 6.973155726663354 13.517771700611016
Cr 11.834693202651463 6.604876556034216 13.07471141710868
Cr 7.755456316957828 6.795864779058706 11.0542720036235
Cr 10.059117159154265 5.874014375941025 11.253631472055368
Cr 7.5473320397240995 9.205331834606758 12.430672650355813
Cr 11.003383815069354 8.879596789045687 14.267954119596455
Cr 8.788159391237391 9.444305788570466 14.186101528097305
Cr 13.503011345577434 8.020915889622543 14.461293153024906
Cr 9.850514190612866 8.414621571679541 11.880473882077247
Cr 14.109504513824659 6.710784523699242 11.897553053265787
Cr 9.807943718134643 7.82140686610857 9.61886409813194
Cr 12.139258325612243 7.077746857104456 10.475787660447912
Cr 12.468152800960835 8.7234301396389 12.300443681929421
Cr 9.150422297661647 10.65429117388715 10.721855335798049
Cr 8.01681111397828 11.593503537920476 12.619934951699308
Cr 7.67579286304429 8.992553977279362 10.07016646442687
Cr 13.066436382841845 10.604868456636346 13.767360373441052
Cr 10.879016055112656 10.824196980313829 12.633332998651955
Cr 10.535359907181572 8.096301396827556 6.990332211979598
Cr 14.805890215809766 9.082713301252298 12.133373701116222
Cr 6.559157690107231 11.353663856357429 10.639933450278276
Cr 7.998107501178443 8.719741914942222 7.819172479470091
Cr 11.489876322442168 9.585738258502827 10.393919672335235
Cr 12.013700524111897 8.342689057090567 8.15766560077417
Cr 13.859031834772424 8.742070447615303 9.939289005971002
Cr 9.95699451895146 11.581787359009324 14.448274969011116
Cr 7.5109008442377405 11.114091616059453 8.477582392365909
Cr 10.00714469107433 10.00755939376552 8.425039586516657
Cr 5.994036080644412 13.466511061328111 9.717311777107806
Cr 8.75674761921508 10.985252036210289 6.453774038900192
Cr 13.359558308275844 11.056553970142197 11.401240408280696
Cr 6.994581707420606 13.80413572392816 12.030190239698086
Cr 11.126619549710707 12.15361892516864 10.312269329826021
Cr 12.224873792698075 12.868314617781488 12.302808411370993
Cr 9.649715396206945 13.104253983652516 12.144585763780695
Cr 14.172479722934263 9.588165676274128 7.477508551313814
Cr 12.646364057630194 10.826233721918094 8.766371417151591
Cr 11.743258365237933 10.929061812724171 6.783383630793877
Cr 8.466801515227981 13.04280605881676 10.151332082712914
Cr 15.08547212229613 10.747470333791016 9.788967733882338
Cr 7.40812187694266 13.269255059838276 7.6777599527813996
Cr 9.845241102634926 12.312756936167002 8.345335257580812
Cr 7.784806578942129 15.147702743980316 9.685187156325362
Cr 13.347314563781275 12.967626178390228 9.708922656274819
Cr 8.949624997566412 15.148192056845202 11.687927393735876
Cr 11.951383306268857 13.279903982823816 7.873099307327626
Cr 10.652312866534333 14.460017525143082 9.91142308635074
Cr 14.553603729825538 11.939585147425852 7.607406485622
Cr 9.33406374577305 14.508162252079453 7.945655044733387
