40
Energy = -316.22769743 eV
Cr 9.616948154072913 11.166282579796034 13.606831453468477
Cr 7.402007103455245 10.630523814433023 13.542110822480758
Cr 8.105795276257695 12.86519651640048 12.33124576191657
Cr 11.530735892800909 9.461207661360616 14.163186505700217
Cr 11.7835643107378 11.752168328895062 13.697230995519279
Cr 9.1421069890622 8.874276572351544 13.055094383112493
Cr 10.25379499935005 12.753471086523584 11.890292751292609
Cr 6.332352585944196 11.196673874619872 10.79227371784561
Cr 8.670743628214545 10.665266281003246 11.280259843105839
Cr 10.911549914578655 7.681111278186282 12.547603704500768
Cr 7.1556676286772 8.717008310371252 11.60591081082809
Cr 13.017767538623724 9.409307466642721 12.759888460595754
Cr 9.900019472035778 14.328861167369157 10.121098432699887
Cr 12.10763462266162 13.882496657687348 10.395645398044218
Cr 11.108458437571459 10.142432858345993 11.522869943475648
Cr 8.222970631274254 12.683801107184063 9.888778978618493
Cr 12.66036765209004 11.709561023521653 11.708887111744804
Cr 8.533936830749218 6.6482182083430645 12.206649345681008
Cr 10.672046573378223 11.836691144940309 9.773829161013479
Cr 9.556359649608819 8.399948280464947 10.45380732855178
Cr 7.689315417764461 6.539158543555036 10.208196752672324
Cr 7.047176000296733 9.224488009780504 9.508031483691608
Cr 9.180273536530033 10.350865863348455 8.747246675428656
Cr 12.053723414842345 13.352774863932705 8.191958219171166
Cr 7.134415695849396 11.508259896336678 8.304971680738138
Cr 9.47640888745495 12.852176195232815 7.733077243382722
Cr 13.078547814230406 11.500593966848774 9.430489427356507
Cr 13.789714837860378 9.564284187540363 10.26970097038181
Cr 7.342274341491717 9.321177831236023 6.954925974296161
Cr 12.219119026077609 7.75165444009033 10.679568503567143
Cr 10.281333153496123 6.140567615100077 10.211891911050635
Cr 8.659940093868054 7.715948850302364 8.43480600845237
Cr 11.301958042354723 11.232212869265755 7.3366446038885815
Cr 11.51840450748766 9.421335934925482 9.049719053505301
Cr 8.709983659456231 11.24624684869523 6.289657194104334
Cr 10.058705853618461 9.169533175458188 6.780895112070341
Cr 13.484298268704558 10.355265703086442 7.546881411314437
Cr 13.247229132167643 7.607118275732217 8.361864918638371
Cr 10.932531020535734 7.274193107715431 8.243289343252119
Cr 12.34345261974911 8.816790056895604 6.496710188436067
