47
Energy = -371.13512426 eV
Cr 12.288741484410957 11.460525994688632 6.655239050204484
Cr 11.303184934849734 13.441696257507314 7.934330368282224
Cr 9.688423373129401 12.17206810887449 7.06238493802826
Cr 13.78084294723864 10.514280102103584 8.986102966822498
Cr 9.313891988499632 9.920200853802458 8.11632756068962
Cr 12.152384705697038 8.730296540176818 7.640397564624268
Cr 9.097478356781739 14.586260829119235 8.290599200870219
Cr 8.283893299782497 14.318716988323517 10.476997921520224
Cr 11.38352869575096 10.859176530161164 8.631646134374764
Cr 12.530966709031997 12.625278943977085 10.062343239399238
Cr 10.87290424768183 14.849200684592233 10.111640703935615
Cr 7.191240808893228 12.143288995612512 10.77006882729489
Cr 7.854912594906907 12.159543671023526 8.590007617704181
Cr 11.633628493691218 6.409216369145127 8.658807807935473
Cr 6.988170729329923 9.782288736192696 9.285328018385242
Cr 9.872693979729199 14.131556868183493 12.38856319526613
Cr 9.773146073692004 12.639099804711877 9.876903358993836
Cr 11.168868536812415 12.274632689285449 11.827392601453882
Cr 12.400742143986735 14.95263319542199 11.361840367707828
Cr 13.215816778247127 14.800648370318738 8.704845087635354
Cr 9.898533239834547 7.705208770923018 6.934741125303374
Cr 7.599197883680959 9.707077785028389 12.129485179016429
Cr 8.217558518553169 7.591827619531431 7.821986727836378
Cr 13.901342482488115 12.675425875225788 8.064246068431048
Cr 10.35028086217177 8.473199223084988 9.443222717320213
Cr 8.534626176578545 12.208106416763288 12.463929325232394
Cr 9.142832323183407 10.550951285792427 10.432655219539086
Cr 12.224169861052998 13.684338053973153 13.734668180710825
Cr 11.790895663765525 9.98950577073754 10.9063112934475
Cr 15.042522174590363 12.94277324673153 10.245824639198467
Cr 7.474083911579484 7.233755366012268 12.4369598014546
Cr 10.149077557339353 10.413699068014912 12.832611926312222
Cr 8.506591240754865 9.66384708058197 14.329481362615587
Cr 8.302316868887212 8.027362219576082 10.131445352361274
Cr 13.676906567748727 13.206156119447341 12.571396528449085
Cr 10.151719889598535 12.182370366170437 14.541926214411511
Cr 12.533109469615948 10.955148939764957 13.522074505809234
Cr 13.788928079794461 11.01564433096602 11.380422487890407
Cr 9.849714816644815 5.931987900564643 9.185706022570123
Cr 13.058568327315232 8.371867363656618 10.029551998922898
Cr 9.83668728332699 8.422903932818562 12.121950512830875
Cr 10.917709363615336 9.070241655411365 14.708984161767379
Cr 9.12410887479164 7.101875469626818 14.321594610919696
Cr 8.838183988378297 6.0859774632165236 11.773618878510195
Cr 12.44768818767836 8.804672086655255 12.883252682815158
Cr 11.523942564265814 7.0749115675252385 11.226459060336463
Cr 10.845289872053058 6.626332168949148 13.687396224957892
