47
Energy = -360.66877937 eV
Cr 11.336879728492972 9.689025722398696 4.985740018545828
Cr 8.296759455832852 8.907911582401148 5.4795571165426065
Cr 9.301950149079413 11.371760373849709 6.253469577712755
Cr 11.79749495264597 11.299352044330956 6.705308322216459
Cr 12.536965952299695 8.398373374962182 6.741391153253207
Cr 10.600693340606906 6.942790608311936 6.203317215054457
Cr 9.867786040151252 11.25022367024643 8.51766612680415
Cr 7.611586538883056 10.033719311076398 7.735893924528232
Cr 8.46561891986399 7.591026381074736 7.925061297966163
Cr 12.391547231709874 11.909402321741007 9.012500761588315
Cr 9.986019162015356 9.148252208988225 6.92663004291378
Cr 13.861211803041671 10.218063041607108 7.47263922003759
Cr 5.704370940425833 11.108538776432713 9.108669393041964
Cr 11.552680350558488 9.551537976200734 8.686633007649716
Cr 10.47225091296471 13.46951228953426 7.855215569034398
Cr 14.075984386968125 12.872560153803333 10.295920960365423
Cr 10.823917280998359 7.209704968600828 8.580134701679382
Cr 13.354080179440292 7.798515463848676 9.11293202465322
Cr 6.6925239316091485 8.663285912753162 9.688676761048919
Cr 7.889811676235198 12.526436543551632 8.274053572412361
Cr 8.536789445367225 6.6142188412137815 10.257243673704178
Cr 9.24786083343486 8.971027138465884 9.629953814390221
Cr 12.54428806174662 13.814723754262076 7.961110576705381
Cr 10.66748935221297 11.105898494828368 10.693534684150238
Cr 11.57446378725236 13.828473714414875 10.491462396206026
Cr 13.536788603333378 10.154234052571715 9.98741688365191
Cr 7.045240579032691 13.352605663214128 10.761630951143083
Cr 11.603665649143098 6.188620285557826 10.53160157747474
Cr 9.239200390709742 13.228867070772345 10.2074404132229
Cr 9.41327191358688 7.174257304789333 11.59298009783268
Cr 7.862992447513258 10.932035585865608 10.207240891797865
Cr 7.349841648072448 8.66180033646036 11.585402020235275
Cr 11.579399665002327 8.500675446339022 10.867353928225416
Cr 6.4622470300139545 10.915396163851518 11.825761004104022
Cr 13.528565702384933 9.065115795558759 12.01289850933639
Cr 12.843880371991121 11.720966140156385 11.807292344400505
Cr 10.721076903719373 12.662323248747182 12.527515011596893
Cr 9.416516195156763 9.797730011869783 12.06796402104522
Cr 11.565688106983334 7.3759588260758715 13.069100971939168
Cr 8.367584085924106 11.917562247076757 12.320592202878476
Cr 7.466862345774454 9.98394691603085 13.840085753626354
Cr 9.441345120904103 8.543010322035204 13.864392950473588
Cr 11.689078934277306 10.030571651109556 13.099295679560191
Cr 9.876875153315668 11.11770688851358 14.328992575229154
Cr 11.514420564160861 9.173612207539904 15.199501711789797
Cr 7.88181955136772 12.152881134573603 14.609570964713738
Cr 8.984960291783576 9.638133700379528 15.673599291504312
