47
Energy = -374.25435746 eV
Cr 6.77884287159518 13.170565269685223 9.503746723249058
Cr 8.966254974777035 13.172977654084447 8.421018543715308
Cr 8.009953976724507 14.475599608278563 10.64143452913834
Cr 7.689501837760947 10.772050649142322 8.850295257625946
Cr 6.83687756414369 12.615700072172523 12.383299323806044
Cr 6.285730118725187 10.840467304458585 10.801839816178788
Cr 10.248453578454393 14.019120176092212 10.078132228467288
Cr 12.435862398493395 15.493225297954858 9.475005031027582
Cr 8.640068443047861 12.086213986832195 10.964787346407205
Cr 9.715323289862706 10.237995030862436 7.564352694241891
Cr 11.81723395175034 13.013897619188995 8.617133728797775
Cr 11.469749448271289 15.222718692947725 11.611642278838874
Cr 9.344484139056064 13.829184422293729 12.968295534470402
Cr 6.618903245352117 8.336402629466303 10.233170831545344
Cr 8.838432234453627 11.48636384435149 13.517601613536783
Cr 13.88775852023851 14.456901577055678 8.541957470854113
Cr 10.343455973111485 11.33234547453392 9.521226935344856
Cr 12.36477756952815 10.778167109277682 7.814680215747406
Cr 14.352726856481755 15.136630868613205 11.351803885161205
Cr 13.039512173937487 13.201384906790182 10.742605345138623
Cr 11.493796438816029 8.393836739056663 7.390716733460795
Cr 7.565746273111392 9.930498752115305 12.395269389436143
Cr 8.808227022224827 8.124750875835055 8.34802946191822
Cr 14.26995172883024 11.874980669783712 8.751724785940931
Cr 11.192224645470748 9.08798505951066 9.51026224986342
Cr 10.912600648922911 12.590889574796167 11.99350654638725
Cr 8.724188164066774 9.355458283523804 10.440775476876313
Cr 12.743714873386555 13.65042294821197 13.338712123016528
Cr 12.461763718651383 11.095706885260093 10.375847650804918
Cr 15.490896314273941 13.351710211170673 10.156219474184637
Cr 8.359481753118892 7.402956837445835 12.333436903420614
Cr 10.696223469001968 10.16966474580518 11.908667778532484
Cr 9.696687051901723 9.09969661257462 13.790025530630288
Cr 8.441816164361487 6.604105352409591 10.449022554013627
Cr 14.88170278262275 13.144935665873943 12.811634235680353
Cr 11.096492931492666 11.560380893997232 14.211575228969267
Cr 12.985795699598874 11.288624002309142 12.92772725532804
Cr 14.694943052859914 11.034045284125236 11.288381964016398
Cr 10.613581613640042 6.462346824509774 9.07434877354543
Cr 13.671543364004705 9.220617563881952 9.137850997741102
Cr 10.613443907395142 7.772057196247648 11.559256832371796
Cr 12.226174996061511 9.149736130314379 13.598251983137889
Cr 10.884339624686124 6.946163063545666 13.820458169569838
Cr 10.489605113362138 5.363616998921381 11.613983509963685
Cr 13.019136350652028 8.890626933786239 11.50946956240758
Cr 12.403989389059506 6.9059989289715 9.98469135064272
Cr 12.846924016279333 6.7647350635849275 12.605094007207928
