49
Energy = -391.31987968 eV
Cr 10.40269114319809 10.73199336751516 5.423809061737811
Cr 8.005198346788228 9.412430493498912 4.7345363594909635
Cr 9.980877401309511 8.108125358954057 5.207868529568586
Cr 7.404164527216671 7.4189183586162555 6.243980614540029
Cr 9.384703861959562 5.960228503461872 6.191734642483047
Cr 7.8515643667831965 11.898043890681542 5.922830917731636
Cr 11.228555919599078 9.396907293270337 7.352422685316165
Cr 6.09795202393766 9.747325451544098 6.744242714767221
Cr 12.115388501815206 7.260804160489084 6.6872054344218
Cr 10.205972450551211 13.055133371179652 6.281946943436837
Cr 8.583983212508839 9.596470441649785 6.776794948002929
Cr 7.081941236472095 8.28324220699117 8.733995453199306
Cr 9.648976864270363 7.680159658659895 7.801557858418471
Cr 7.956271884554617 5.663389854545816 8.262619014791921
Cr 5.940722500683393 12.367541474032727 7.592214408164289
Cr 13.165196051286962 9.266293929287308 8.785923006983028
Cr 10.683614346219148 5.160937151206288 8.013296638297748
Cr 8.241468867917618 13.54782569228416 8.18683161253518
Cr 7.455155255309009 11.078417730246032 8.379598421584392
Cr 12.274557521844212 11.564052752792378 7.256666871783999
Cr 11.93966213583771 7.018132672138408 8.85922559865291
Cr 10.926033676200413 13.386361453405838 9.055568885904364
Cr 9.765288133051094 11.595493001695338 7.70317863324502
Cr 9.236240503776976 9.678369945963672 9.262997351566174
Cr 11.436002181444321 11.057946714341169 9.545983540922764
Cr 11.244082408448168 5.389064002853539 10.683341695692691
Cr 13.450685126452822 12.086740146247394 9.882379183322108
Cr 5.351841499241683 10.045372339253 9.362573731112837
Cr 9.295051904668398 6.817956629912221 9.77592558154954
Cr 9.068489524099697 12.264381284249437 10.108462027264187
Cr 6.541085990287529 12.599073407765122 10.169407099972457
Cr 5.729256124446898 8.409364950664282 11.213286608097805
Cr 9.220792564785464 4.248775050407678 9.88526181812572
Cr 7.300198747731655 10.39293811996009 10.728831701365898
Cr 13.067170160998117 7.381566464900045 11.101713379231958
Cr 6.7163308700089495 6.544900256408514 10.382356547177476
Cr 8.301095770099149 8.255036564238633 11.284567739926874
Cr 10.981185297482222 8.688818828019269 10.232447011953022
Cr 11.072317367749802 12.142143324157452 11.680029592971975
Cr 12.945994620096043 10.003676021187358 11.415632199281598
Cr 5.512822800249592 10.639172720150867 12.18590610809163
Cr 10.673268198973659 7.204049793261294 12.098586287621668
Cr 8.853573566125732 5.824581305431154 11.984067918457372
Cr 8.265225113886958 11.882793644722357 12.358831186165395
Cr 6.776499770921674 7.435378180694719 13.059965911034432
Cr 9.76748946513805 10.213239494486247 11.730832744858633
Cr 11.911846718458841 9.391631027382484 12.814965495048241
Cr 7.443753003472236 9.630690731076427 13.188718052245722
Cr 9.457917917569688 8.534268230048236 13.625037677812372
