44
Energy = -346.27964467 eV
Cr 9.962032106062 11.205582534389626 7.056822778550551
Cr 9.584599803576282 14.000513860219344 9.890851412791523
Cr 14.649801273436315 6.486102375398321 9.808135164255155
Cr 10.645910161767887 11.58591620939435 9.332098061111918
Cr 9.633406569211001 12.498790955908225 13.611737192309048
Cr 9.607080582974831 9.395974184828459 10.24972090694152
Cr 13.533278135067778 10.337298568077456 12.714695604872805
Cr 8.375277386714734 10.206235635187474 8.556387016377178
Cr 14.340471299953911 9.022035548331965 9.00849727938235
Cr 10.798396724860961 10.651513225515128 12.226388306373435
Cr 7.125835275087396 8.451692879299767 10.354351756406444
Cr 12.209071123859527 12.75254885167336 7.324020412947848
Cr 8.323007686811266 12.592203056974745 8.712066616176346
Cr 11.641774340630086 11.087572362006004 14.784155088454083
Cr 14.347880866347069 13.471047227913756 9.828272671982754
Cr 10.637807396446041 13.264960557104205 11.725849464656418
Cr 12.347551199585293 12.583972459874703 13.556082164907385
Cr 13.290399983651636 11.499141937219308 9.117835974277396
Cr 6.972864023793222 13.470454611932368 10.089457552660258
Cr 6.352867258130597 12.39422743776048 12.324736259150258
Cr 12.402013901276353 7.124603482401852 11.17044568310087
Cr 8.028955685406322 13.752526494690695 12.169904869336786
Cr 12.900916898688466 7.613709284532067 8.821487488089016
Cr 12.07368922206596 9.418221408685195 10.357887743487955
Cr 12.288902767199666 8.830736460246067 13.243736059275644
Cr 14.211722624739842 8.22209408869776 11.218031254530496
Cr 14.88972806757854 10.806465469093576 10.646212138607329
Cr 10.383636200470121 13.734701786287781 7.50180914325276
Cr 8.67457442256292 11.6411514892332 11.163543888433402
Cr 10.708404613694308 8.916388461186925 8.06414880927564
Cr 6.771453993156212 10.91842537953783 10.403558733668705
Cr 8.610052136511012 6.995093336138702 11.053666928092424
Cr 12.711534214700265 14.533599434240626 11.842509834821799
Cr 6.059385123875185 9.717538141562327 12.606031172239216
Cr 10.250996444643278 8.046745581585416 12.14305188015496
Cr 8.223567845254182 9.297953736381086 12.295356741567042
Cr 8.541639325437583 7.85350387195762 8.416534675070864
Cr 12.624704247714744 12.015474269878846 11.152066405051496
Cr 14.54808081246962 12.807465309847684 12.133613953602321
Cr 12.31229039871595 10.089923551659778 7.566422687492259
Cr 12.08741539611608 13.86844712730358 9.632083364049603
Cr 10.457431539118838 7.126245090059657 9.632089376251624
Cr 9.626940277660754 9.757436824314688 14.229438754527521
Cr 7.67220903698382 11.393323835475709 13.703765125442665
