42
Energy = -333.85887446 eV
Cr 6.742648356749885 6.450302602444596 11.220583023324693
Cr 6.631742729244438 9.216316185163008 12.206172937080563
Cr 7.68780619834183 7.320149518440159 13.250148257557694
Cr 6.198919559879407 8.883862115492606 9.49103314865031
Cr 8.223399572587786 6.7899002953940135 8.816799834343742
Cr 8.964600658352223 5.601699427503807 11.347116994612673
Cr 6.141876783627004 11.332794370183763 10.592696794228742
Cr 7.695319280741239 12.004925860884477 12.404993783526237
Cr 8.432720072604745 8.117460447008623 10.788725474453674
Cr 7.904352341647933 9.080099514830458 8.227350241845366
Cr 8.828826979172488 9.908251918588117 12.895933064628492
Cr 10.156935457686762 5.680813802608662 8.561179739517971
Cr 9.876788064153748 7.6294886960400365 12.933123034239124
Cr 9.047706132428004 7.502792572322794 6.502959759599315
Cr 9.525148008116648 10.976128186411197 8.696794392473668
Cr 10.491976741995185 8.418204415814596 8.749824420809695
Cr 8.222845180997986 10.388149066442606 10.337377398367371
Cr 8.284304638813307 12.957928946307979 9.968725268251061
Cr 10.947189281604068 6.8080515835791315 10.528240172888296
Cr 6.933577706077516 11.260331752183847 8.132338296511724
Cr 10.239251162346916 11.627112327191908 11.254820574412664
Cr 9.930498201205184 12.503451355124882 13.702634973880008
Cr 11.101564299020952 10.062200342275853 13.54472264618736
Cr 12.262230775771272 8.388943570612978 12.220940831192353
Cr 12.667905180283269 6.833537431111744 8.732846016919728
Cr 11.195350655977247 6.965529157447135 6.816063817975804
Cr 8.37166728409565 10.766269347667599 6.190628159954185
Cr 8.310693276931364 13.134457599379061 7.658961093799954
Cr 10.487176272916855 13.310317366810644 9.107574261023064
Cr 10.544564539486538 9.398539934298839 10.898847037595756
Cr 11.912099623061975 10.936011253631497 9.193756497388307
Cr 10.222235592646825 9.58493256575613 6.708148614824375
Cr 9.779043904120337 13.976307942153184 11.827902909793336
Cr 12.976441181526287 8.723045041810705 9.966432899986915
Cr 12.094701065483745 12.39574834338045 13.077707169967304
Cr 10.149928132120012 12.339712717642612 6.716238771797679
Cr 12.83044977891092 10.791503610657998 11.5432878174528
Cr 12.777109531263278 9.101142566737 7.41888761356111
Cr 12.450452806727252 13.250972756039525 7.832386346628246
Cr 14.093794558239756 11.20296044450615 8.820937543695651
Cr 12.099828229262972 13.208982391957997 10.641413726772683
Cr 12.436157830279196 11.18339432949933 6.5616610214646105
