44
Energy = -347.00731996 eV
Cr 11.344952162498494 11.872095535373216 6.601530223571271
Cr 12.48445384071279 9.781245151627935 6.99315920704933
Cr 12.902036305265607 11.93739483961546 8.475749432698
Cr 11.213880456501325 15.473110540509232 10.852927805728141
Cr 9.65865739005271 10.201020175353053 6.331194727058768
Cr 9.266471098042787 12.390029216102654 7.884613550490475
Cr 13.063020755556698 9.503320749684436 9.545344094452465
Cr 12.791778885855278 13.707216000783093 10.464703676198344
Cr 11.054662186007823 13.119195872830346 9.120620700541577
Cr 14.276069992369711 11.350209430829649 10.745792569655364
Cr 10.720480733584317 8.155736883879333 6.47768155527537
Cr 10.641601370453388 10.264242330280092 8.628622035871457
Cr 9.260435065318156 14.21475650612218 10.11811289088249
Cr 12.782038737322615 14.847734875678116 12.720528340565206
Cr 11.994462387161736 7.55694321495451 8.549177410271627
Cr 11.741224081208081 11.232700520471733 10.637916659936257
Cr 8.025456834370035 10.340830076287657 7.978848236364171
Cr 9.00910871191109 11.802412639584619 10.147134749008263
Cr 10.827348528496676 13.136496990205186 11.844148307527165
Cr 7.989540547980898 8.059299887320698 6.435298333565597
Cr 9.976443337633647 5.98037655876883 7.267892546176547
Cr 13.499384638950577 12.249327749989053 12.376863216043457
Cr 10.009582830658093 14.855799199190288 12.88950976131817
Cr 8.005158630976336 6.392104980755861 8.248728979758948
Cr 11.917282395613002 13.683273709623402 14.28314382003558
Cr 10.858058026800721 8.543947276686739 10.72367813408234
Cr 10.470629634927821 6.2076986110755055 9.636026744038766
Cr 13.003550297655888 9.63804228166962 12.107869921432473
Cr 6.898405143678376 11.03423137939652 10.345136444334363
Cr 8.356780573774792 12.762721443120274 12.265235703534746
Cr 10.152989118213592 10.506703881796854 12.061159816329738
Cr 9.42371668389553 8.267409262494445 8.441009120451445
Cr 12.61162387616677 7.253273423210454 11.05767816576261
Cr 11.562609346788053 11.352040972949546 13.614847709384016
Cr 8.608263340869327 9.416871257174572 10.40867682611796
Cr 6.786139522888963 8.468314262884032 9.019351598151127
Cr 9.564316617971924 12.296590104960353 14.054700276926704
Cr 11.581500995227188 8.608440854331556 13.386330551653607
Cr 10.873811806637905 6.47914983827897 12.148420950910166
Cr 6.843768642004534 8.528692438738027 11.949079374680482
Cr 7.789664643779025 10.571514319012685 12.490207144728727
Cr 8.567420877338876 6.983225444458926 10.570191682681635
Cr 9.393782122007417 9.801625109155928 14.338243015252763
Cr 9.218293927444352 8.080560614035715 12.59821795637339
