41
Energy = -317.29148266 eV
Cr 10.439720033193936 14.867123210497953 11.954664809415576
Cr 8.380303795816356 12.749062200166033 12.297138810393367
Cr 12.653636039332266 14.929318089532956 13.139363193884437
Cr 10.49426423377144 13.053279231220579 13.479314780448762
Cr 12.849830809455186 13.131818004190528 14.553305706583627
Cr 8.370364697265522 14.664069521840485 10.741842353386406
Cr 8.276262498661241 10.764449916812769 10.808237939394292
Cr 10.110335067470674 10.668473787142355 9.334806624073462
Cr 10.4487588623578 10.977854043316832 12.274551194145793
Cr 12.213614911856054 14.74352988019916 10.32510016076946
Cr 10.70543000677686 11.069914144904592 15.013745631883314
Cr 8.58625109551722 10.163966230760563 13.36059736603326
Cr 15.065943187317506 14.095731749393073 14.038103145947122
Cr 8.178095443636543 12.675022199971512 9.412401405145854
Cr 10.273173859142933 12.781607500099117 10.700760718694378
Cr 14.478688358062143 14.599515648661013 11.770303013823256
Cr 12.431215565442777 12.901001144867474 11.892619586313849
Cr 7.880954937979545 10.782026434039937 7.996316698820061
Cr 10.903370492579288 9.327686360963936 14.44806115998056
Cr 10.090460854606437 14.719083803149664 9.172566860714097
Cr 8.017269729774643 8.868116503328928 9.260228638452395
Cr 10.044518759196555 12.588984256410114 7.97276161149077
Cr 12.246694396159407 10.645709364874106 10.703121104101925
Cr 12.166893466028506 12.64015344779525 9.084676527240566
Cr 7.741275689901234 7.9628934105930265 11.514603344885332
Cr 14.83948550216102 12.030373410878095 12.774614307774169
Cr 14.19509497867708 12.609626092530714 10.412856089780606
Cr 9.817314726592857 8.699225631358662 11.452997229674056
Cr 12.613197989412855 11.109513747155312 13.438006680346579
Cr 9.979982802042324 7.299928608615895 13.168856255045723
Cr 9.961371683921636 10.49239481096733 6.583483403734626
Cr 9.939435163863953 8.858123973340213 7.4319975723482194
Cr 12.109251385173485 10.463253820434444 7.9297443567045764
Cr 11.825992272022173 8.512537478020871 9.479053494964525
Cr 9.690599750060843 7.2965455976690885 9.434649834262627
Cr 14.134258724464516 10.347753398569868 9.41660479612542
Cr 13.901269761875781 8.362722286237709 10.66919193744538
Cr 9.414992626450918 6.051773197742259 11.386727195107225
Cr 14.803213182056888 10.348281411876249 11.986810500603344
Cr 11.74191673107911 6.801320422338133 11.181258532846051
Cr 12.37077583638787 8.86213217445194 12.36569801588135
