48
Energy = -371.3781749 eV
Cr 10.14194496616142 7.140007108184689 5.256910089140608
Cr 11.858225595969301 8.678714251160514 5.251772098202399
Cr 12.101455328413179 6.055454277980878 6.008138027870231
Cr 10.063762900249479 10.019304698561967 6.3888498659519675
Cr 8.10358757961937 8.277650519920897 6.435525289351763
Cr 5.405384303486071 8.395508947314909 6.627676082769351
Cr 9.6026959538703 5.4117785696865415 7.042747048954632
Cr 12.989613396369734 8.097404314963045 7.209821158137378
Cr 8.529843135073737 12.964862752530552 6.832587252357469
Cr 4.9104071147757375 10.629972523543492 7.096226646638686
Cr 11.025203854635047 12.831231739315443 6.8793609458478935
Cr 10.64696416031792 7.7637347188160595 7.522150139107757
Cr 8.29569444420392 6.985669680929594 8.568166748075196
Cr 7.387721120785492 10.891682961122541 7.291628361280571
Cr 8.966752121029312 9.225222545606929 8.596390653532671
Cr 11.635568967258825 5.739439224038505 8.307910653835211
Cr 12.217577584052531 10.670921401684543 6.912598124553695
Cr 3.9424505949706106 8.44272547672043 8.550941383351713
Cr 7.790704433596544 4.841954658759656 8.694648480814106
Cr 5.844958741136457 6.408743899981863 8.228702185062586
Cr 6.152916005819442 12.70129937398183 8.36344204178509
Cr 9.926971124265606 11.469430861418324 8.393891566304973
Cr 6.547910256265471 8.928742031858311 8.606251193357688
Cr 10.5040581820715 14.055103939984013 8.842054373854776
Cr 11.445664735853187 9.73345730492432 8.79792630760687
Cr 12.418521374706122 12.07109108174145 9.235271334716408
Cr 7.747916520507601 10.98956822456325 9.825642214667507
Cr 9.751229418634072 5.132650471244368 9.804833540074798
Cr 8.230036999167638 13.121702267041073 9.381441679122476
Cr 5.315553587558612 10.679173245149727 9.53455265195203
Cr 6.166423699413402 12.498606213064894 11.172265211948812
Cr 10.250468775252195 7.366440929480176 10.042978080242221
Cr 10.03316253282331 9.875245094314751 10.761192175913864
Cr 5.615744356815025 7.703040107879539 10.289904085008377
Cr 8.137386942371313 8.481439456769639 10.761166848589518
Cr 7.313155452081746 6.057708979904815 10.721559363406215
Cr 12.444647968587718 7.8654181718980105 9.89472085396837
Cr 12.64259170167778 10.31782920112913 11.0419947844572
Cr 10.58204835444336 12.194020408566214 10.530955933906311
Cr 6.2864740283804155 9.771477454128817 11.81267300066927
Cr 9.562653310095715 6.74258056661959 12.208968055066341
Cr 8.365962954921606 11.166464355289248 11.932706155876954
Cr 9.026337911270856 9.253116657546267 13.18416023587777
Cr 11.046942413023999 8.457974344749864 12.347233236505804
Cr 7.394438202546438 7.6177428665452585 12.682371124851608
Cr 13.213106355903028 9.47443274881195 13.575639105989763
Cr 13.671649147280831 8.326793849228386 12.318878354066088
Cr 11.266187274501592 10.996141403557322 12.753251137591564
