46
Energy = -364.07462329 eV
Cr 10.109253180359909 7.053210252780104 7.923695687447648
Cr 9.717630193386935 7.3904476764044365 10.29346755603627
Cr 12.044157705418204 7.049954089754618 9.609640283795859
Cr 7.362945123952324 7.197321720356031 8.632789568059986
Cr 12.43244122886636 8.466050810890136 7.377451040075332
Cr 10.99809350590746 6.776000747843106 12.247186983875142
Cr 9.238410251420436 8.655735707125338 6.853095878648109
Cr 8.593535616325614 6.397081540554236 12.40899414163924
Cr 13.350420522107948 8.709022258023678 9.664246750833973
Cr 7.166011286046888 7.540475155261902 11.19440844430103
Cr 13.097231972570503 7.323887877469166 12.033504480008013
Cr 11.48553155163793 9.08283021315424 11.073282156580706
Cr 6.908697866558404 9.830451503441495 7.596329524788628
Cr 8.42014051825248 8.937062393877687 9.380529678994414
Cr 10.968406489042163 9.367746837279737 8.761187858136974
Cr 5.911456944039317 8.801157694065056 9.584395937803686
Cr 7.566632698353715 8.86102723276808 13.570701733273348
Cr 12.92862410668659 10.662013390104965 7.844623924126493
Cr 11.111295295988883 10.594967326424719 6.431516667426426
Cr 9.57404300986235 7.96400858784073 14.264815359916103
Cr 11.662452731944706 9.008299721364235 13.597113039560927
Cr 9.382348178882795 9.004269616366502 12.038146363717967
Cr 13.511075033231029 10.163109969781974 12.269467575914547
Cr 9.655567954176192 10.315824338961129 14.580979262202733
Cr 9.012610767886132 10.952411703732592 7.7502932269089015
Cr 14.705269810381346 10.796687089779233 9.889927084669376
Cr 12.17790209755966 11.1299572102388 10.20988455493606
Cr 9.487357159504425 10.876305205524618 10.462797410029129
Cr 12.62039907345078 13.089189719951149 7.133213734409039
Cr 10.094899049594128 12.88497604804127 6.250135100840442
Cr 7.047014828992856 10.04600674644759 11.254638138485483
Cr 12.43216079210028 11.727670651110305 14.122342185802687
Cr 11.067379004693173 11.101608109939455 12.676371806880475
Cr 14.114872282038396 12.802807749990663 9.209022302288668
Cr 10.890581281787641 12.06328882622207 8.558899071122173
Cr 13.156457028024919 12.571027624323241 11.70674756630313
Cr 8.390746304859785 11.247384922952264 12.849374549429413
Cr 7.13872163348687 11.3221125778166 9.496608550962945
Cr 7.831135405727274 12.726985821186899 7.390923352700188
Cr 9.73698485449614 12.98167763298135 13.77812764837168
Cr 11.88864875642415 13.851189422072013 9.647624316522256
Cr 10.202426680135485 14.512097311012461 7.720135799985836
Cr 7.848902186606781 12.743112971441018 11.326120007201292
Cr 11.85139244880285 13.675150465134898 12.982602323603366
Cr 10.508925387195047 12.942379176599921 11.231496442007137
Cr 8.988401727707569 13.209811178551702 9.306941374696924
