47
Energy = -367.28647954 eV
Cr 7.049223689732277 12.764945613237064 7.941252133914654
Cr 8.553742201625708 11.33798033802151 6.023909994783904
Cr 8.42871148966517 8.72324871219024 6.805602424421235
Cr 11.32061566131159 12.104947579319726 6.127726952978057
Cr 10.421611514529495 9.917749770751922 5.453532712686501
Cr 6.223267793531963 9.97303607542548 7.383988032490298
Cr 11.104484043177784 7.827183939777019 7.285366766066558
Cr 9.094839844344001 14.096292610456558 6.084532240001062
Cr 8.803043543003609 6.624472556273621 7.516670290539781
Cr 11.30669539207168 14.360700130455918 7.565247880618641
Cr 8.046237774828045 10.590803729884184 8.376837778838574
Cr 12.131678487976034 11.976479835202282 8.628752438888936
Cr 7.07014681304659 8.20424463716913 9.25188062987274
Cr 6.823054679101772 5.69922525261691 8.406885075711442
Cr 10.42578525774161 10.139690663506459 7.470137230110811
Cr 9.446897655975977 4.458983907909016 8.113357888181975
Cr 6.729857390162277 7.705018011844999 6.758725785644418
Cr 10.985009957992915 6.496429736597434 8.608869354513205
Cr 12.957286952256123 10.019311671582107 7.469102718568768
Cr 9.641035628075786 12.623808098153802 7.9263771301054105
Cr 8.136724031883851 3.723795178308351 10.390375524487588
Cr 8.6711206135518 14.816885018047923 8.56174118281241
Cr 5.050431297896279 8.07199754054977 9.227903830483157
Cr 9.99473549694545 11.120987543047942 9.768226523919527
Cr 6.672068216224876 6.333783013250695 11.112919760653913
Cr 9.466683211723337 8.45732675488674 9.386328738543765
Cr 8.592125696862192 6.002980327873452 9.980361885868032
Cr 11.685631089658743 9.362590999081194 9.504013365199242
Cr 13.208833043453694 7.7413605453401235 9.174736172300033
Cr 10.53963445454619 4.3031758767540955 10.15640089701994
Cr 10.601461499785726 13.535818836071059 10.075065851550892
Cr 14.093776523773357 10.144245802968358 9.7939759227264
Cr 6.207494290150963 10.932766073581426 9.985757260382602
Cr 8.128097639468988 10.109485444249938 10.829032603600883
Cr 8.073582211341428 12.74014714862424 10.118118899684408
Cr 11.050107178397676 7.114562859645288 11.037860938321439
Cr 12.195025640163498 11.352418374251554 11.032063164254204
Cr 10.380327113551644 9.56782871165489 11.673696716975607
Cr 8.494377055464689 7.777869694444698 11.832227424920125
Cr 6.327543675755508 8.915662620423415 11.79807523180807
Cr 9.502312652619038 5.548527486933992 12.06402470449548
Cr 9.44770932830176 11.93487115313443 12.113999529365906
Cr 12.783065211074346 8.74055490900072 11.720151892293165
Cr 6.973855185521044 11.515822113556196 12.49544068480566
Cr 8.474145993974483 9.654518711545704 13.381810573993166
Cr 10.565738825751643 7.677168490991303 13.282116310373855
Cr 11.179633961790765 10.217762811188914 13.364285860006143
