45
Energy = -353.32738934 eV
Cr 12.108665364210033 10.357722737273983 7.263828890961305
Cr 13.730492787958688 11.068625480197262 8.591067153687453
Cr 13.822979038048535 8.42527342226543 8.557715799774533
Cr 10.122422959218769 9.22189201821984 5.785733935114232
Cr 12.558316979359534 13.912362692880556 9.659942634738117
Cr 11.571419686229637 7.8956389904931905 7.386866462614291
Cr 11.42451861825533 12.613168217257966 7.557264380992139
Cr 9.492220623792914 10.992698316228621 6.612130532050389
Cr 10.443911828945343 14.057275455994239 9.474360872170832
Cr 7.74973508012626 8.909864932541597 7.074449509570961
Cr 11.554081428605492 16.01967420456393 10.798401231496992
Cr 14.466285354812507 9.89724636512087 10.784369104618131
Cr 11.747972518961475 11.566761344726142 9.58746031067633
Cr 12.13665784860064 9.167640190131287 9.731809437470996
Cr 8.898842069763882 7.258190145560483 7.319020757660367
Cr 12.822855563696148 6.74216580069196 9.685669048477514
Cr 9.728338586950116 15.768735179303931 11.370775980908903
Cr 13.453702938840783 11.973491968558701 11.339243170282948
Cr 7.658677922355092 10.810425531275799 8.835632693357347
Cr 13.023061928281876 14.182297969645543 12.087684830839823
Cr 10.019356766865615 9.334838728308725 8.561180248396383
Cr 10.773077887665009 12.785500437541225 11.406639757566655
Cr 10.096459925467054 7.37370394058813 9.776324218084456
Cr 12.031627050094352 10.184890906769915 12.006555387445195
Cr 11.401162639901147 14.766204264272389 13.256257160530092
Cr 8.23416943066826 13.604349131452686 10.576460553970309
Cr 13.865842533581901 8.246488841443316 11.600645864600166
Cr 9.476725081608862 11.93664116315224 9.128990046944176
Cr 7.840825035435565 8.231628207865187 9.504784224391848
Cr 9.779147555737834 9.838454883326031 10.977464223654218
Cr 12.408569036856676 12.196951639704182 13.664548804773757
Cr 14.075597842032693 10.302571917073282 13.354538329504996
Cr 11.599950529870371 7.558904125862101 11.483268713552423
Cr 10.007047909760542 11.22864681915622 13.233605416394392
Cr 11.89122560060699 10.516338416322057 14.79330497130529
Cr 6.7875079123161655 9.447602025820252 10.967557709608458
Cr 9.15561942587803 13.668489131725513 12.788087818683167
Cr 10.347510477897595 12.964889855960614 14.84442832978236
Cr 8.1450788385501 11.579738238115402 11.523774703282
Cr 8.870335259370448 7.861615174716505 11.938769480597127
Cr 12.991086272143626 8.668201128804055 13.871393998055309
Cr 10.519772687275434 8.704099648436761 13.356221293913595
Cr 7.976621949213766 9.639348319487764 13.088154984069458
Cr 9.37227388857535 10.286199273316134 14.976400311571426
Cr 7.791720537643964 12.20602401987905 13.790687913890686
