42
Energy = -330.14071466 eV
Cr 11.040249196787817 7.504855527283225 12.627531009573506
Cr 13.383253851254423 8.500474019592131 12.595534828728768
Cr 15.67589092035562 9.335936810286626 12.369720301550473
Cr 9.490193416445367 8.489975304998296 13.43101285505769
Cr 7.331572819795988 8.227966524905526 11.993616600191517
Cr 12.186236526560805 8.542721303201882 10.522777264220219
Cr 11.95255097058995 9.632212395320662 14.076567262563804
Cr 14.553362146415267 9.29123097691117 10.03269798847304
Cr 14.349356038715698 10.803872394677974 14.156854841610878
Cr 9.883411088414551 10.797856841392033 14.324385122897784
Cr 9.330001321430435 8.368388517900494 10.654354547275558
Cr 12.733984356937853 9.724248935584933 7.948247353237725
Cr 10.547540774628116 9.262429946095812 8.993146634156009
Cr 8.130041349260646 10.30527876717804 12.053248640565336
Cr 10.702408865390849 10.20397843837661 6.386821818451568
Cr 10.733418718297434 10.086160496904647 11.76773411479703
Cr 15.86790911436906 11.167482985534239 11.690181625843392
Cr 12.154055434631411 11.708065919671565 15.717392684815962
Cr 5.702217122039845 9.777964821989604 10.870370529014332
Cr 13.416980127370445 10.670075582224523 11.846321943323154
Cr 12.073017085314657 11.960109848999881 13.228498621961915
Cr 7.847724629923269 9.271419100315766 9.443969285312967
Cr 14.621016484295287 12.745912123374287 13.211087981943844
Cr 13.194621497336685 13.328820503948629 15.213984409469845
Cr 8.939748610003457 10.187688378582228 7.323289906070521
Cr 12.359973040207398 10.934313178540375 9.742606732561676
Cr 14.620480370369561 11.436727182545386 9.422470649733464
Cr 9.658112159935405 12.286247214610473 12.673635030872003
Cr 6.563965416771828 11.524100759531315 10.359705404699497
Cr 10.514766930264164 13.741819993104713 14.37246883381057
Cr 11.049143095510278 12.788593865415416 10.918017996501414
Cr 13.17282275967246 11.668867063275357 7.355168686328167
Cr 9.343143431481987 11.223392958024737 9.938479637350264
Cr 13.684106802593071 13.01619954189159 11.093733172793488
Cr 12.262266614840113 14.186757387208651 12.79452124836404
Cr 10.706220753756329 11.962321301366416 8.217122936905948
Cr 12.520964557404964 13.224670932644573 8.972964573787868
Cr 9.845446061935924 14.8159764081701 11.850165164134543
Cr 8.313480285611481 13.239864471155101 10.879000392138671
Cr 9.888876337611256 13.97430674770385 9.242040475536488
Cr 11.741000510191169 15.256582873537171 10.447311224855824
Cr 9.004136741285322 15.785250283512756 10.09018458015215
