54
Energy = -429.23789726 eV
Cr 15.693101545325275 13.904901013189923 10.041298296906888
Cr 15.403587393567872 11.589739473088391 10.824770187210133
Cr 15.109905714704293 13.5736037088287 12.680779767212803
Cr 14.380395298832884 11.811134839884433 14.64516094426451
Cr 14.546489327754113 10.11304832862198 12.906911527135962
Cr 14.762209485267046 15.756017329690854 10.986614009859444
Cr 14.297271551271868 12.01619061860937 8.560123200816514
Cr 13.702374441986827 10.137136676746158 10.247663939449806
Cr 13.7501779480869 8.118932803634719 11.340742306266193
Cr 13.944052249154456 15.022223302693982 8.518245924827545
Cr 13.388258419107087 13.470790176800683 10.584050622101824
Cr 13.507311890038576 8.065868302741418 8.628018830674774
Cr 13.197902738871045 11.936321977621795 12.242460614959555
Cr 13.00881808719694 8.415608497955462 13.578639654061062
Cr 13.466370620890624 15.235367462609805 12.56680984232824
Cr 12.771139365577895 13.369051821722483 14.022420019944756
Cr 12.352761916222052 10.645084617903144 14.434745299121605
Cr 12.0422269640687 6.391441318915432 10.250572444477609
Cr 12.781507705297875 12.91416756789808 7.891276710354364
Cr 12.241778374650233 10.429502672785206 7.974523729443786
Cr 11.923598885230838 9.931757927215484 11.978169385551587
Cr 12.147833539854327 15.779545997755813 10.405396440080922
Cr 11.64253080691034 11.746417768323017 10.085254480674196
Cr 11.336248785156792 7.422293972534948 12.399844426408997
Cr 11.4433797383247 8.900895583361917 10.02798761917705
Cr 11.485909720811653 12.382014612303626 15.562495663119163
Cr 11.4165762974262 13.90022286471624 11.836627325795725
Cr 11.30245653853586 14.501178043494244 9.26710512890953
Cr 9.659944365915194 12.754383831702029 10.385101854970248
Cr 9.861127366115982 10.397819841685257 9.076609832700532
Cr 11.3053224031813 8.93503890316152 7.359320842321471
Cr 8.939500958913879 7.1294295481058 13.507156706907663
Cr 10.20871530230971 9.371785244453257 13.492889360929244
Cr 9.654407749858223 10.803258030022976 15.251343959527066
Cr 10.627394478083671 12.048789431946417 12.974357030072495
Cr 10.906158772915873 6.711596480889482 8.794225795190082
Cr 9.616780121958513 8.138631873801575 11.070640183565049
Cr 10.545347240562792 14.53824526591954 14.102161426545258
Cr 8.648021079519399 14.414278066880348 8.704946488226652
Cr 9.516938461656865 5.7222991451395435 11.057419339262465
Cr 7.810809500534544 9.484948023838465 12.890381017896162
Cr 10.33199465732033 12.514433355838976 7.841971549415945
Cr 9.586621783359828 15.339047232760326 11.12566894739554
Cr 9.187316383710826 13.475735491674362 14.85998962371356
Cr 9.444479405478608 10.569057081256302 11.255694112538663
Cr 8.936365437003857 8.393399801165407 8.344310789799666
Cr 8.362275327797827 11.553082220938458 13.440962691606071
Cr 7.301022455974632 7.255912580258369 11.630312970995933
Cr 8.242211189709376 6.8333275657504 9.174699738072508
Cr 8.73877704239673 13.870698164391099 12.259583468370879
Cr 7.518228045992601 9.334773830249418 10.243302296747167
Cr 7.377984287632765 14.080092705479624 10.006719381850786
Cr 7.987228481482327 11.647120651904038 9.075965284150813
Cr 7.304277947367788 11.801418449559993 11.3314947103113
