55
Energy = -431.92859844 eV
Cr 14.432676786872946 11.878538765654133 8.966749679531926
Cr 16.232685369819947 14.458911804262183 8.514285006960343
Cr 14.877462319513253 13.752024045459406 10.146141781646723
Cr 18.509594025834183 14.228795100484835 9.639011981293038
Cr 10.906122077851439 14.36997477380668 8.703191971536949
Cr 12.36313642905911 12.579395038293296 9.814135217194462
Cr 12.995537926176741 15.151026240357423 10.324006103492964
Cr 14.385604208413486 11.932678914390575 11.61886665575357
Cr 15.260427977281077 16.45568239988237 9.966407555797527
Cr 16.811965964372 12.39091865300501 10.530602524766156
Cr 16.9746070178719 15.106339525340491 11.003693753107898
Cr 12.503935365060089 16.750501521436057 11.79646651446118
Cr 19.305572925904436 15.458697542580577 12.031281641909155
Cr 15.264199520509019 10.169245660517054 10.184161031584209
Cr 12.81945964415612 10.183988520873326 10.599496272348132
Cr 13.396951050525443 14.371584923171978 12.425903810982005
Cr 14.972646083890677 16.078197664424394 12.253940160900514
Cr 10.534508199426213 14.662132269676915 10.755336581807729
Cr 15.81681560560488 13.582259726003832 12.60175646670585
Cr 17.461304099393047 16.93435295698236 12.137671514485843
Cr 10.698973419896307 10.299496722553116 12.228978113640876
Cr 11.878094618258448 12.552168190648825 11.88806597309678
Cr 15.888831018727856 11.116332839914687 12.964650719593797
Cr 11.323012475406028 11.943735034240964 14.238910925297363
Cr 9.474741216491742 12.712387938379575 12.76513036219605
Cr 18.33606259172238 13.268909846779373 12.370771801963755
Cr 11.160530798354518 14.749836959857173 13.119456566287615
Cr 13.858891153987036 12.498302088722586 14.092006081929101
Cr 10.644524938540505 16.26775282740508 14.352006880451992
Cr 13.136367125522092 10.304392757779024 12.958286622209165
Cr 9.35619516516691 10.35002997675011 14.436911479826927
Cr 11.602129117490783 8.705849057987674 12.980973911534289
Cr 16.374261918163818 12.576556583194568 14.72073785374243
Cr 17.288605506466553 15.118545064197393 13.65977269694384
Cr 15.821314418683885 16.927132274579296 14.56031455250852
Cr 18.84574928953576 16.240985543707783 14.618421216713736
Cr 11.517302861189087 9.840812869108754 15.142423326589748
Cr 10.037656529505233 13.841250611196948 15.354759023380929
Cr 14.857518430613215 14.70254927991982 14.51312329626068
Cr 13.909904232199217 10.780506898350332 15.382920010326913
Cr 12.43953013636453 14.309711197776164 15.120427451992482
Cr 13.106634212714159 16.315259157955747 14.33537392358514
Cr 16.61439003734209 14.760860754880378 16.136141044978448
Cr 14.234070709005548 15.744690617912424 16.72813540045171
Cr 11.953405731726596 12.149108500883035 16.39026007053044
Cr 9.835956219596392 13.361710649751338 17.183750417963488
Cr 14.360298015131695 13.305704127823049 16.56662589330968
Cr 13.327837325009666 11.774554984714895 18.11895276330145
Cr 11.535104986495977 15.98291196621981 16.657027409226203
Cr 12.319457745966048 14.229597557915156 17.799451792909363
Cr 11.285905792254951 12.572645611756217 19.114185293308285
Cr 13.914069603045409 14.88343002696664 19.08928640501964
Cr 10.368068626606432 15.455282437502973 18.963467408136292
Cr 12.70009153235876 16.663809888491333 18.61666093322123
Cr 11.753303433725605 14.781946638376825 20.40252968210656
