5
Energy = -33.82284196 eV
Cr 6.497410414902111 7.452320675311007 7.3344550710610665
Cr 7.354065364714497 9.497003791672055 8.260552482008416
Cr 8.676670406761623 6.536898663990736 7.771989628172655
Cr 9.23454205475468 8.73317013248181 6.977263597977791
Cr 8.321444309142272 7.864739236544389 9.73987172077996
