55
Energy = -394.15979297 eV
Cr 7.489340836783018 9.975586891636231 12.542744302221497
Cr 11.934058652806279 14.957299505443011 13.42343390562067
Cr 17.81978653366191 15.726477760620515 11.507295739763096
Cr 9.829203358280015 13.45773167000055 14.661304832949954
Cr 10.11598475693781 15.900320854157693 9.838214272860753
Cr 7.7819537020174545 14.620722161413383 13.14965042683671
Cr 18.152934767736685 11.434320500140943 7.277113606211044
Cr 12.87040027070663 10.621030481006214 14.671226561557821
Cr 10.511456276264681 11.22547916511204 15.645625564903048
Cr 17.71271078419239 9.352466809221909 7.805217274319119
Cr 8.678466678252093 10.486663006779782 7.958935031665754
Cr 8.507905443069191 10.84028048453508 16.999855181773235
Cr 7.758019599510745 11.624844413509566 10.006163543881183
Cr 17.677355365396288 8.225586305928038 10.585952219692084
Cr 11.304600311109734 8.791322113710756 15.748079145500379
Cr 9.588479640728666 11.417530433660428 11.320285682447398
Cr 14.801555605657244 12.420346992530346 14.1299848936857
Cr 7.693575444400215 12.698587218340373 12.525115270895228
Cr 9.122063356141291 9.006004039124171 12.253681514752984
Cr 9.214701883733607 11.059258780085276 13.892895772360601
Cr 13.895045939131135 9.210660258240729 15.83901947540782
Cr 16.402195193421743 11.408134282645278 9.03259867004514
Cr 8.655386093896313 8.927295997549747 15.014903260390025
Cr 8.941013043416095 15.673354040506586 8.443809759375283
Cr 9.070997746095903 13.0539570706161 8.654976147559285
Cr 12.36641604469345 13.147677178506955 14.809185632998632
Cr 11.652838434210025 12.253449136595128 12.9179310877511
Cr 16.00381800487609 7.232261403344926 6.83298519337128
Cr 16.59337980039559 9.567198923607444 11.261192162178123
Cr 9.524781428197661 9.359316610301226 17.37466363301315
Cr 15.418991372096327 9.84242788161826 13.605591656490825
Cr 11.098077042169079 9.83180366486239 13.421667503449243
Cr 7.860408252387727 12.600988198118321 15.045460248511072
Cr 17.24923592056243 11.393904839929379 13.295568672145254
Cr 15.983774979241547 11.925462563256922 11.634698253556287
Cr 18.29499635093323 10.941944904734015 9.945608315198655
Cr 17.955275524046325 12.981304943229258 10.977443239501355
Cr 17.674011730936694 17.504687692022024 12.125610475648207
Cr 10.876585019350134 13.2030481652921 10.121850871321955
Cr 15.03678882112658 14.796368098115625 15.643215510025541
Cr 16.8354733925196 15.814843538734591 14.085824742041922
Cr 14.558568282171835 14.281887067357358 13.360808532088523
Cr 10.187188565413635 10.697177665490152 9.06834633889475
Cr 15.821343833522862 9.202082706411318 8.7840210677549
Cr 8.112101883203643 9.038972813451132 9.833470830847245
Cr 16.648055996915758 13.408643933147104 15.356852310977851
Cr 9.839096875302271 15.931399189712364 14.726662993528706
Cr 7.884111246567709 15.216527255672993 15.428633932961445
Cr 7.13371415042345 17.045602084086507 13.624362960709965
Cr 8.312125595492232 18.108047104956295 14.379470938263813
Cr 15.587681035930213 8.8710554939635 6.081479521211192
Cr 10.144623615923626 14.048699000725843 12.12086309707369
Cr 8.260743591312448 14.354448563460098 10.576182645151393
Cr 17.072283911203645 13.824325564407038 13.107773134990637
Cr 9.399358726765481 16.37422328961399 12.43953315290574
