52
Energy = -411.55935032 eV
Cr 10.930663577615872 10.446360001762008 5.225895774853146
Cr 9.144998234795539 8.980659578821346 6.2041689658070975
Cr 8.740327936470708 11.451018827521803 6.841350413527692
Cr 13.275536850821396 10.750366635701178 6.778591038370357
Cr 11.085143722105222 12.28885702126346 6.830452735811394
Cr 11.860135252203058 8.66840814566138 6.351829856404138
Cr 9.443918714259366 7.8900033353715155 7.649316665892634
Cr 9.107934101816284 13.738778807476166 7.860881128987819
Cr 14.290256304722297 11.641472840506891 9.054438577258772
Cr 10.901630206966464 10.210705211181791 7.890877571883544
Cr 8.272930527552385 10.020791182007763 8.499056548556192
Cr 7.480530440551025 12.17833588217378 9.289334327013306
Cr 12.438940840828502 12.532969497069192 8.734027869945516
Cr 13.056164614109107 9.277543431921151 8.813355991173678
Cr 11.889213906094456 7.510621404414508 8.490955878303879
Cr 10.529939816182655 14.354011757178501 8.861062234651271
Cr 10.311865589792069 8.969536021351894 9.876542792211406
Cr 10.28168215678227 6.682734012097999 10.434615514300354
Cr 7.807039465087466 8.189921894057056 9.767125331679045
Cr 10.053035584408358 11.765955267167937 9.403881489932557
Cr 6.465438460453981 10.185938872207329 10.628650151060201
Cr 12.572690567431247 5.914020769646876 10.255887729837328
Cr 7.998970477781236 14.792183452384766 10.00112635527586
Cr 13.835429072397664 12.455888195855348 11.134776184412077
Cr 12.058027506951584 10.771875793278989 10.408540227966737
Cr 14.576995084152966 9.909468152529339 10.619115628967222
Cr 9.327336587822796 13.175306794118534 11.031155775913406
Cr 14.337389682635857 7.34536439912036 9.807128847889198
Cr 11.759359093913774 13.446967465424727 10.907838106143856
Cr 9.909026127055194 15.699792804734658 11.074114995582283
Cr 8.623128219418037 10.522324229122242 11.152936098913147
Cr 7.094430985038871 8.497581198500795 12.443491006032131
Cr 6.321226221756173 15.030401914207495 11.634432379031631
Cr 12.505384208945312 8.242053490839192 11.148529073031927
Cr 10.756762312407 11.505835801673319 12.207201151124947
Cr 7.0359202117484285 12.715723251410262 11.621222821456595
Cr 10.834248342751714 9.169442352796684 12.21696975902274
Cr 10.953971226166237 6.438121484167786 12.514957099071417
Cr 8.506695863291812 14.719399791203717 12.771303079105294
Cr 14.79586550155029 8.092143705774086 12.048910660989367
Cr 13.455124895787666 6.198927420746413 12.46193959584788
Cr 13.225726190331281 10.432985429701745 12.538955411070834
Cr 8.79329868239926 7.8449089374038055 12.079423602239128
Cr 6.47253430888248 10.896602457141402 13.005505007100366
Cr 10.781473689866024 14.054456794053975 13.045248769226536
Cr 12.711712897853705 12.517008958934575 13.398755967527828
Cr 8.686816585323633 12.325283787432635 13.359662030854274
Cr 12.594546228910595 8.142638805888717 13.783455694659255
Cr 8.921254773726563 10.0463946702309 13.634295777295353
Cr 10.17733999755215 7.832025271335894 14.315857789508588
Cr 11.558955268157217 10.239649557793852 14.384070967317758
Cr 10.605523409919169 12.444723761176485 14.661272075505442
