52
Energy = -413.53121516 eV
Cr 9.324424156758038 9.753652398591369 14.038893912185916
Cr 10.598757292964219 7.571498642623222 8.758102530881844
Cr 11.984479166698398 9.561568884065753 9.891537236476296
Cr 11.009437532938508 11.980069499473494 13.67473672248114
Cr 12.902266715997404 5.544043108180043 11.420678425954431
Cr 11.717083700476808 9.428482764901197 13.616873355450101
Cr 12.961624148146502 11.329996679696912 8.557882762579483
Cr 7.160389675689986 7.9046300968827765 11.35926111866389
Cr 8.32129612254851 12.266622290294462 8.415784820731387
Cr 8.561559872075371 12.102695053934996 12.814617719513622
Cr 6.432889993528291 14.019848030197204 8.622058385701198
Cr 14.041837896989314 8.84357539850937 8.725404354060188
Cr 10.85540623324676 7.166040153121144 14.00724394927888
Cr 6.0539353251366474 11.897096069559058 9.572500077855159
Cr 7.568228058209605 13.213740376890351 6.116460597673311
Cr 7.895503026393053 7.774239792723941 8.83738166852261
Cr 12.932261226259593 11.828116346808747 13.675565356562723
Cr 11.409895100387798 11.697837163852599 6.695271658618577
Cr 7.888791483945252 10.071220509081911 12.626153143269432
Cr 9.240848162583648 9.151229346374691 10.319676021113693
Cr 6.379440543919904 12.203416453300248 11.708790325817047
Cr 6.33012769371919 11.975968477393435 6.868888523366782
Cr 12.136463542898388 14.118813272044143 12.794581500144435
Cr 8.41200955972616 11.3079268583201 10.44565407935021
Cr 12.432739320590077 4.9971396453564685 13.682125705332439
Cr 9.675981249267066 9.857677624627097 8.091048757081369
Cr 14.375237418966716 10.686497216525039 10.20956008835599
Cr 14.017060031017534 8.053984190626327 10.851790333452223
Cr 10.467114438114548 10.309553102726806 11.803780538168702
Cr 10.571598044043988 11.612868414031157 9.220871982151907
Cr 11.985099446840506 9.233425251589512 7.285165400700031
Cr 12.937470333017428 7.4064123480965165 12.987695139605222
Cr 12.31290093945906 13.497051290103323 8.687379916763053
Cr 7.914169919926067 13.765727466873665 10.552726284913964
Cr 7.478564329974642 10.055100743981518 8.245095282070258
Cr 8.829624436635404 10.984426388490196 6.213210674782523
Cr 10.905635212789713 5.319458254711107 10.289085862536202
Cr 10.188890684956117 13.180417751158041 6.956414887739711
Cr 14.316522721118027 13.257578817608703 10.134590557333926
Cr 12.42548017850559 6.99034849699933 9.087945065850597
Cr 14.443431403679519 12.87901558244367 11.993258204628646
Cr 13.08510969596249 9.911602652821543 11.999701740625179
Cr 8.464068364292448 14.734144817281068 7.991818365772819
Cr 9.16227669588817 6.547585852667975 10.585222975368007
Cr 10.130771905353809 13.955180435249334 9.459865691994658
Cr 10.185383663552678 12.973807253406905 11.480181669326747
Cr 9.416956599368334 8.069109303072512 12.672960316806101
Cr 6.550932993663222 9.542934699384466 10.50048952836402
Cr 12.089949676091422 14.782930677698994 10.977314999555082
Cr 10.54181241550135 5.5703028165674775 12.668249055457785
Cr 11.469707393715595 7.728231686776866 11.416831143502082
Cr 12.19093750319521 12.069542799029719 11.076004832232812
