5
Energy = -30.64636839 eV
Cr 12.498812879990714 9.88568211815674 12.278453419303275
Cr 9.191417877310673 10.192584359517308 9.03842839537492
Cr 10.132635306241538 9.866928919508128 6.447322597621074
Cr 7.888284038938982 10.533534607859833 11.466149122279324
Cr 10.816300407768797 10.187537783848338 11.42542005827562
