51
Energy = -404.41332114 eV
Cr 9.098920455138588 9.169992874238007 5.201847987328603
Cr 11.675474199362947 8.417860836529638 6.336418132876733
Cr 11.199872269209754 11.083204182142625 5.817496876211596
Cr 6.976813000567889 7.818380557378394 6.087896535256529
Cr 13.45749978403404 10.273525145856562 6.517407657049535
Cr 7.007172889115277 9.934663598039528 6.9838189076173
Cr 6.14378504845603 11.998001490784352 7.898838544998728
Cr 9.251473034035328 7.297207247252473 6.649209883092852
Cr 9.713111930893351 9.87279775099781 7.215292649291259
Cr 8.547644358668999 11.808855484232602 6.348961133054112
Cr 11.912326179591103 6.399621370252495 7.87246745495708
Cr 10.58348191758935 13.461754454764456 6.580252068609143
Cr 13.286335589789891 8.205095370419095 8.842347490606207
Cr 8.10137055523048 8.449274615791332 8.569549325385829
Cr 8.192897650865387 11.277253166927165 8.903581855648781
Cr 12.891170926064444 12.678374165530643 7.217028694166533
Cr 14.608417537585595 10.931500273288075 8.345385679406439
Cr 10.695182901343404 8.065638722549743 8.590553518223198
Cr 5.389867619599451 8.369724988576978 8.288856669032805
Cr 6.08304455084727 10.212333004637019 9.59462362902422
Cr 10.47534346921138 11.952073476146213 8.299034843165895
Cr 6.849760130568021 6.409822507446349 7.88293295075519
Cr 12.117371724131836 10.22019176255275 8.335734084464203
Cr 8.524399187947372 13.768698265734143 8.345870137091456
Cr 9.255666008353172 6.032346396711461 9.070883555954724
Cr 11.316363358127559 14.402448363420906 8.80482408142148
Cr 7.546393998878889 4.668039440147946 9.520156788911576
Cr 9.821779978113655 13.08425581515649 10.165131847055372
Cr 7.081271631047392 6.94253708085249 10.470583920599895
Cr 9.913447142880273 10.154092192639382 9.861339903831936
Cr 7.686226577961721 9.308421447962177 11.026236081674979
Cr 5.099301684892213 5.986860289963562 9.589374275197045
Cr 13.254039757430661 7.828119230143303 11.767776221994586
Cr 7.266000193861139 12.69313440764517 10.49079568448209
Cr 5.054217851715153 8.418353865308069 11.017825598531408
Cr 9.09315202555242 5.6891806614660165 11.515385840247053
Cr 11.748378165903622 8.999898124132157 10.766952887526006
Cr 13.51999436395453 10.439503696638603 10.70713542299809
Cr 12.59180109456053 12.372522588994126 9.635367864782134
Cr 8.341020636591058 11.493040755332322 11.602645792386841
Cr 11.587277173104132 6.423535068745798 10.355664891026352
Cr 11.087919625035289 11.487602144478002 11.539352511625712
Cr 5.900345424891545 10.907646555569729 11.934439982785127
Cr 6.435663672842002 5.845652524120444 12.314890956791928
Cr 9.56107650719117 7.850228460026962 10.714127144343584
Cr 5.934385181160834 8.379102765814173 12.622904321715563
Cr 12.377983468328953 9.633814765229381 13.168085868622253
Cr 10.862242095854759 7.401732953378686 12.847586888135636
Cr 7.8829565208761245 9.758304791778624 13.624939455260412
Cr 9.965860921951755 9.602008159185113 12.548022475808798
Cr 8.345907664026756 7.435181778025533 12.90557266391026
