51
Energy = -400.57764413 eV
Cr 14.09523266904143 8.854492886914615 9.365536034995754
Cr 16.745147765568017 9.187815039164498 10.242959387324154
Cr 12.700917927525419 13.243463926972359 8.16268547970394
Cr 12.834602064965193 10.516819541531948 8.062843986446035
Cr 16.15091405985406 10.73817390318734 9.294618297270231
Cr 11.161041579888707 9.036670847269306 6.576146458343628
Cr 15.261474334877326 13.299870785340968 8.831935412103965
Cr 10.909623295921413 11.460238843239175 6.83668064130501
Cr 12.05427628750105 7.976346257043492 8.835328931485293
Cr 14.55984727121322 7.934827344054754 11.464039985791429
Cr 13.833498164945057 11.614938926122782 9.652602500146498
Cr 10.815773876639005 13.80162978789826 8.086235064135277
Cr 14.753976233013558 10.183554297040653 11.513092756191414
Cr 9.64841701104752 7.91501877471743 7.966588759477844
Cr 11.282585903168126 11.820907287370652 9.87131098216991
Cr 15.39247533971388 12.44457739484648 11.487538733620125
Cr 8.777000604239952 10.113951037643382 7.339555654283191
Cr 10.665449682431225 9.94083547031312 8.961873273598513
Cr 12.198008486038926 7.286532402117293 11.028247078908686
Cr 14.110014410569327 14.18601283869472 10.841482139045198
Cr 9.049163176997627 11.94836330484044 8.604118084358939
Cr 9.991788953151984 8.278667677446453 10.520336839790502
Cr 12.400904502157491 9.623032683069397 11.053257668916894
Cr 11.646450282028418 14.095569105659662 10.471914334208225
Cr 12.798269830674293 12.205643802991414 11.811888802388358
Cr 8.053933591561185 9.544251079358856 9.612406816976724
Cr 10.963046102018495 8.149283844060632 13.04810995233667
Cr 9.271942504292328 10.938768306095076 10.939926100221228
Cr 13.194987852266285 8.709997530686168 13.275070761632852
Cr 11.073356107677665 10.361041829323744 12.9929199904526
Cr 13.995883765501858 13.83765249767078 13.401420387323506
Cr 12.228846624606234 14.6518827481247 12.785661276310716
Cr 13.790486671219593 11.046002974193252 13.37119406437955
Cr 8.737387425565863 8.966024678907422 12.398282161321156
Cr 7.174579874760731 11.796207269898686 9.555314955279679
Cr 9.292064352764525 13.606243975462652 10.295952436001084
Cr 10.885052006613192 15.893844039560701 10.729735637373215
Cr 10.471038772193344 12.746931146061964 12.496353520808647
Cr 9.251109008053955 9.285666102440667 14.946477565225909
Cr 6.780851058568478 10.295835627184228 11.740714519550643
Cr 8.587942473983437 11.235308550575017 13.407825559651261
Cr 11.949846568565714 10.078527933057591 15.046585681839815
Cr 12.226019089277871 12.503825206203098 14.30519503765843
Cr 7.748151553599642 12.696281213524 11.733168721528072
Cr 10.018208992075785 11.639422349055808 15.177768571441083
Cr 10.64077051239559 14.060012792824118 14.728227909291682
Cr 9.611280743798586 14.757949184218397 12.311606831275773
Cr 6.858600014340998 10.09389355647531 14.294327260056663
Cr 8.248103455909376 13.445459597607321 14.306459321919212
Cr 7.8254162953735875 11.649765549500849 15.816239582811372
Cr 6.270817970313932 12.259199261237411 13.639922608420456
