52
Energy = -411.30553839 eV
Cr 12.862541118923957 14.165246271443205 14.257106357775081
Cr 13.972539388521987 12.952011455051716 12.234654600075316
Cr 11.092561449682115 15.534910673045994 13.560758154926805
Cr 10.743486196180438 14.899396635488289 15.941849598063168
Cr 11.507061592987233 15.135143999708085 8.855373721839255
Cr 10.609368727963151 16.075794104366025 10.964880957190285
Cr 14.502210101906693 10.328914229714233 11.781504103362987
Cr 14.841964313240906 12.364802992128142 9.933998453401708
Cr 12.271942757385746 14.584370258805375 11.562882947472508
Cr 13.462524627168019 13.491844983475453 9.561639241378584
Cr 13.18294862071357 11.414217923576564 13.934979860731962
Cr 13.167676934357726 11.049710297215084 8.471135094166119
Cr 15.461527406511715 10.011139831884963 9.409333686937915
Cr 11.30493529689012 12.84511282741607 13.019537958139267
Cr 15.132243240199168 8.10836652745119 11.384820304879238
Cr 12.24573160442548 11.696867332242187 11.070790246505336
Cr 11.534608417675312 12.949885499747177 7.705489671695005
Cr 9.381369909646367 14.541511684960176 7.946028363370262
Cr 9.612947775863988 13.805618123020261 15.041997209576135
Cr 12.015258080099542 12.752319394485985 15.658012074480384
Cr 9.558714194612842 14.229307372369655 12.376926054837625
Cr 8.633134338640462 15.092212163654205 9.943652985184576
Cr 14.130181016152113 9.076211608729638 13.797648461795953
Cr 13.840688383087482 8.726988726874266 7.692552346073117
Cr 10.617236630111385 13.417819193399794 10.254303491109297
Cr 12.991798250005195 9.470544779720802 10.202845342426365
Cr 7.88206193990976 13.089189073791802 10.990219306367932
Cr 12.040748691137782 7.961766365814279 14.60136281501266
Cr 11.679221366127166 9.97263515925661 12.823948457849188
Cr 8.864125231002246 12.585946216151045 8.959109721552405
Cr 12.245131400216193 10.134568724918754 15.614009934201768
Cr 13.918276248561014 7.5016408484705375 9.120003494587207
Cr 12.054749046967538 10.450143455656146 6.634160219948808
Cr 10.827547513431076 10.903075920091593 9.103393115443971
Cr 10.453970424337893 11.302314609090738 14.565838982030042
Cr 10.63106689885402 9.131799189937771 10.811002038369141
Cr 8.468215978185691 12.023044571213324 13.470875714476648
Cr 9.569625505277017 11.46427212223993 11.465268338073718
Cr 9.518089155424647 11.249682118971887 6.8765397153077705
Cr 12.876359250644782 7.899069601076196 12.008081996334306
Cr 10.492465960149246 7.555233530322608 12.755486249015634
Cr 6.915813484400382 11.203193066891442 9.383786752286134
Cr 11.529047291048961 8.618725757294415 8.301189745465072
Cr 9.10091556974347 9.474184894912046 13.149294745174096
Cr 6.908810253533698 10.97609656920908 11.87871729241467
Cr 9.93350029493361 8.953458858713475 15.049153058434603
Cr 8.729562432061067 9.913897004985609 9.056823939667332
Cr 11.55571849631935 7.029618619980748 10.20125478251646
Cr 9.599775023230643 9.41793421795061 6.810740614223933
Cr 9.283611520308638 7.592998991168797 8.823188088693328
Cr 8.17235099858786 9.129438548117632 11.020933634014876
Cr 9.183056254799139 6.833749595068623 10.989492670578224
