5
Energy = -30.57605847 eV
Cr 12.744520368078863 9.898904431908626 11.760482240175719
Cr 15.130470008950867 8.494237679288082 12.358559454473358
Cr 7.3744411472818525 13.829847536217216 9.31638872000999
Cr 9.266845671679622 12.23763648966982 10.445490280371482
Cr 10.654445921381617 11.216123337148353 11.051573412811514
