52
Energy = -414.86352179 eV
Cr 14.626120472667385 10.261937896952642 8.882899802440672
Cr 13.285706971739412 8.765812746511182 7.221650417239871
Cr 13.807975360448978 7.82915101791348 9.501989581102837
Cr 13.681165839879384 11.636593748307908 7.708992754693082
Cr 11.50500962618433 10.953140216969961 6.194030734421775
Cr 14.32593535931309 12.572484785057263 11.823015961278141
Cr 13.594655583081188 10.131193346712458 10.938585385980613
Cr 11.600429409877759 7.265633244789432 8.711287845597088
Cr 14.079844489849547 7.642036571194613 11.48320792193665
Cr 12.925058999631982 11.975417211630994 9.845674108776128
Cr 14.13949379183208 10.656685931758936 13.48187276105801
Cr 11.964994935465416 9.925208311782441 8.574364464593092
Cr 10.504453018441065 8.574157885816685 7.070292929151113
Cr 12.028436265603773 6.090852384863861 10.58228991144835
Cr 12.295129771223444 12.680795446423469 14.111021442703379
Cr 9.006780496108302 10.583245746468949 6.043849394658745
Cr 11.37022417821912 12.70926831676207 7.918071733070067
Cr 9.564768514647438 13.040559920158497 6.450849065776144
Cr 12.707122638847137 13.84738282800707 11.909921511730618
Cr 9.706099823907797 10.991771242015083 8.238193408626394
Cr 11.982804946975802 11.294183177774855 12.270550983886094
Cr 11.72165556840665 8.646789722586572 10.904247320087068
Cr 13.1077628098248 9.057427544586803 13.344054080804062
Cr 13.022116855470205 14.2289530842369 9.333141660963824
Cr 9.558194250575067 8.719707652407019 9.401126841897485
Cr 11.785652695990116 6.876642922321125 12.886419313433056
Cr 11.334471839877493 7.851701289258061 15.030827991337814
Cr 9.272348431299985 6.5328885320073695 8.708409058695866
Cr 9.700305541589742 7.234495001236907 11.351171730733485
Cr 10.434117052454624 14.795229964800228 8.40015177304739
Cr 10.698195341864018 9.187069143911168 12.931834680027
Cr 10.751357512348275 13.063866238543294 10.454145500569691
Cr 10.475459482946812 10.609564789260514 10.663394989874101
Cr 11.146093257008994 15.368979834640351 10.465708850597222
Cr 7.817894100522087 9.074971056407986 7.638452162914331
Cr 7.209870123730163 11.848808426115866 7.452634932998433
Cr 9.147508654401275 7.538596148877388 13.677079275376755
Cr 11.32020124207746 10.396640976396641 14.712172660363025
Cr 10.26971365274009 13.77328820244953 12.721037390334914
Cr 8.7726959310003 13.166442153923779 8.838772508099265
Cr 9.775211524213658 11.591715630465501 13.21813311870379
Cr 8.529096599438459 9.600919138276055 11.908247284012688
Cr 8.992621886945665 9.424953527552173 14.729515846417994
Cr 7.336222544033543 8.371074239409637 10.354199997704287
Cr 8.414767379094174 12.272477923077258 11.355823393716449
Cr 8.784550204867903 14.827876225852547 10.735075497515883
Cr 7.712481079357836 10.67035364435063 9.5414876531103
Cr 6.913486592804386 8.674376254821318 13.323535693464835
Cr 6.7473848574696556 13.011589620634197 9.981543285705323
Cr 7.526158963038859 11.09776952413381 13.73620081765162
Cr 7.80159903050734 13.545770529784951 12.997615710622778
Cr 6.419415922574446 10.785736221168738 11.536658260650583
