51
Energy = -406.26653106 eV
Cr 9.003846603190611 10.199371639378999 6.581363277448513
Cr 10.17175379697649 11.663340943034457 6.098556600357293
Cr 11.717215435021703 9.740844461602077 6.7832080183547845
Cr 8.046082270201307 12.107229241967378 7.795529137451474
Cr 8.219800028098396 10.431527690896745 9.516552969713954
Cr 9.817921313082556 8.941433759327415 8.521145331202048
Cr 10.396237146282727 13.831884174874869 7.863025893247024
Cr 10.440476428220812 11.356476715969052 8.41285669287878
Cr 6.611730718778187 11.847619768484526 10.28132548027431
Cr 12.537376871647757 12.228065185208466 7.081427564588234
Cr 8.876956180231431 13.083934466367255 9.738165645774112
Cr 12.802402813877986 7.570446966465162 7.900506396183764
Cr 10.14118636529578 8.118490736668337 10.927924992688668
Cr 12.625227642400048 7.005123515445294 10.543342096651717
Cr 10.471740580242516 10.61221215486976 10.64191524393658
Cr 13.566900380427736 9.899596511113124 7.299114043620621
Cr 7.476872825387554 14.185890771300498 11.500409726742697
Cr 8.010357751187472 9.504748906779051 11.697071114917744
Cr 10.977380819769834 13.06865354573014 10.438283001763992
Cr 10.095181082912575 15.545795827056013 9.856209321324135
Cr 11.929683652966533 9.183468723216373 9.361957569527714
Cr 12.134386053679599 14.332107965083955 8.443078477227377
Cr 6.772837482545406 11.657658250647804 12.739238361983666
Cr 12.82609473360472 11.724616002638973 9.103572379734347
Cr 8.713623833234726 11.90675689518422 11.810497205900198
Cr 14.08945286452672 9.585425029564739 9.930196259430904
Cr 9.64191607772124 14.334374097417175 12.07395341696745
Cr 12.635981681390282 11.280855613389498 11.422736990977873
Cr 8.32595738950837 13.481522555515175 13.976254656921082
Cr 11.645908689288104 15.569136631402124 10.926641846459514
Cr 13.604139745822446 13.525885166370951 10.309129317775822
Cr 8.645036596161129 10.78610557940808 14.223666612787879
Cr 12.413585313252492 9.018201848720068 12.05311870364992
Cr 10.17911093471888 9.821598864599956 12.941335923417267
Cr 10.64661245173477 12.22043412976517 13.125797876909457
Cr 15.109657403338856 11.661131878596638 10.7106199356575
Cr 10.72292257188473 7.230278879841623 12.504529172397916
Cr 10.814398520832402 14.896928685628854 13.880269784796559
Cr 14.508007915721619 7.847767882802862 11.71333439786873
Cr 12.40350275669323 13.636096065785043 12.542556177772452
Cr 14.393486159645493 12.734557075727821 12.87111857043051
Cr 9.601038045723554 13.068976149020129 15.33869509965932
Cr 10.912984567810344 10.858539296411639 15.462369151430895
Cr 12.585509885586802 10.93396597299957 13.56153150755375
Cr 13.15282944108785 6.839820912395667 13.239950577114634
Cr 12.400875318583749 12.873701168870983 15.046107921915617
Cr 11.521031319193435 8.767609155957992 14.592633854110668
Cr 14.810521397529973 10.121983106892719 12.626503238748167
Cr 14.633345217302761 11.445371839066787 15.027282430234928
Cr 13.287561189329093 10.426146537166238 16.042248819526485
Cr 13.923795964439 8.799169237963767 14.2939961385867
