54
Energy = -430.28305493 eV
Cr 13.45722002977954 8.840237035020996 12.518324220631104
Cr 14.042731670067514 11.015631990739413 10.943876788283749
Cr 11.827006357446985 8.499201313876638 14.852545684007355
Cr 15.217934930925086 10.869958467963174 8.398694524617763
Cr 13.05031735583966 10.524318539544577 13.453253198821617
Cr 13.939927025357925 9.154948226205276 10.089502797022636
Cr 14.550843875094108 13.097700181467681 9.471259148870503
Cr 13.512272855241662 13.236626984777015 12.176715189018072
Cr 11.629083393971113 7.198791078884889 13.461431790447019
Cr 13.343744119285185 6.868528384530771 8.809611808119172
Cr 12.059621000740618 7.609141140826565 10.905707561665837
Cr 13.74262015908471 8.874664983988273 7.5346392834816465
Cr 10.484731821361134 10.581121514053178 14.563490567362464
Cr 12.822567235750729 11.044116727587715 8.581563983016194
Cr 10.74555046649872 13.320119096957212 14.28717136195079
Cr 9.094690117313709 8.279313401307682 14.552024184164774
Cr 13.596661351313951 13.238592177412434 7.752320049771617
Cr 11.728455105140563 10.317552659336192 10.83504064953659
Cr 10.834701937265335 14.192448875178076 11.774383449995137
Cr 10.695140928300896 9.365374277142957 12.667675773842056
Cr 13.710939389556536 11.063699326373829 6.120658431482548
Cr 12.57345209454118 15.041676524416857 9.706523095786903
Cr 11.583289225109363 12.026167218449988 12.602931181643523
Cr 12.189071004775816 12.741152961703554 10.103869573361386
Cr 11.669975371535669 8.733567382584988 9.097756043427388
Cr 10.571868061351966 6.409683701589891 8.970934232479394
Cr 11.69925806458814 7.041545991302736 7.158658760186199
Cr 9.51602861592904 8.537788791804486 7.882196589265064
Cr 11.665181704213584 9.347872881409408 6.6810715678361134
Cr 8.899579944066062 12.337075229530877 15.173192413716095
Cr 9.090639204644603 7.1961270806334925 12.916827517930258
Cr 9.158501055273428 11.932378024184125 12.722720879499038
Cr 9.78093656330351 8.020042243610886 10.773510099184577
Cr 9.90383340790561 12.237488282244456 10.55466790214802
Cr 8.957848659657145 14.37701814511501 13.24800694418997
Cr 8.111173572280538 9.723682283180748 12.437571906542527
Cr 6.507628744532854 8.220146557401653 13.799994693334842
Cr 11.895586347263128 11.8240998295193 6.162225842610433
Cr 10.481776293807961 10.950120275899142 8.3202259727259
Cr 9.31487426169232 9.967007091309394 10.212215502780902
Cr 10.110251883597078 14.715191952815605 9.73852531630348
Cr 7.579608834360494 10.429841065555603 14.51601058414347
Cr 10.90913326130816 13.155591578426721 8.242600621828803
Cr 7.193732845506199 7.845069240218557 11.398730946134938
Cr 7.944597748511628 7.864230799998523 8.897533702850815
Cr 6.94488286894823 12.210720617394882 12.988152313023686
Cr 9.493907221207227 10.373369243131178 5.985223143089046
Cr 8.255965191165645 13.929005483538239 11.105328381656372
Cr 7.347206614914255 11.545956354764455 10.690234999337305
Cr 8.380033568893618 12.771757699698798 8.686393018848282
Cr 5.756864254242491 10.073419614024768 12.485462620245237
Cr 9.285757340468068 12.30260715401411 6.38840915296962
Cr 7.928161772570203 10.609010869763598 8.071294740582113
Cr 6.650861065529328 9.747323471012667 10.101412731963881
