50
Energy = -397.60001181 eV
Cr 10.10956608525373 5.89676161536935 10.38271275666316
Cr 8.06904526099659 7.437518778624263 9.385208383306153
Cr 12.548861201071867 7.349940428846578 9.270453444873011
Cr 12.07801703129506 9.634704678489793 8.008551767026674
Cr 7.913203230258268 9.362125638352365 7.446430753771622
Cr 10.397151432187853 6.736051235167341 12.75766521095566
Cr 8.03026096736941 7.718643407306084 11.672853677629933
Cr 9.279585635872841 12.43795542031506 6.423769057140943
Cr 10.284612836504444 10.843019202182814 9.748401281052914
Cr 11.919196979535004 12.149591804283194 7.243548121651738
Cr 10.018448993300364 13.00096662393183 8.689512424004215
Cr 15.95723917178099 13.21939045789694 12.091418771170666
Cr 12.442825400512607 6.861654032034231 11.323598653567052
Cr 8.151229143357735 9.694246105667625 9.805248777756333
Cr 14.272749197137047 8.797926754266003 11.519328078118326
Cr 14.558784073274925 9.285891687895331 9.103370777370978
Cr 11.892343920391307 8.6788923089915 12.886462216384736
Cr 10.054501887645035 8.325080767557944 10.982783825060434
Cr 7.40021306146783 10.350471214322376 12.208569286558669
Cr 12.200789235417092 9.559122523504048 10.488575364179555
Cr 10.103985864126189 8.130363961215723 8.651514714999795
Cr 13.695557928954054 9.998737580880091 13.56805014941084
Cr 11.08467186622025 10.05370540392836 14.526005034673041
Cr 14.42161917637981 11.219674448875617 8.168187057281157
Cr 8.397417431199337 10.806118388930654 14.509155616746877
Cr 9.256047651632054 8.674842325097371 13.631851972662076
Cr 10.023483295481208 11.363293183453768 16.30776781358107
Cr 12.465813082510367 11.97766817122658 9.573189513071126
Cr 12.377262140990947 11.287851185665422 12.303986726225169
Cr 12.60692488744858 11.83448192600968 15.010883895687199
Cr 7.8307203767057905 11.932821122642011 8.573771756082529
Cr 9.836919813947782 10.426511899622541 12.105363476064591
Cr 14.572015305346095 12.316770447816362 13.4167047008602
Cr 10.251813973810703 12.107800479399842 13.69805887375082
Cr 14.466466843624127 11.028531229543578 11.051010019428055
Cr 9.783064756240687 10.50794644553742 7.528801350879914
Cr 10.718756942150376 13.053300677253326 11.319292795541577
Cr 8.28064797447219 12.873101268786735 12.751894145130901
Cr 8.177208983716149 13.197599611185627 15.11646434121314
Cr 14.685437616004352 13.24188368678663 9.781706360976779
Cr 8.292756419428345 12.159297759577205 10.567456429177472
Cr 13.420818377966382 13.453416885052016 11.377903869867387
Cr 10.484671941183928 13.587929788838403 15.618572533490417
Cr 12.228285313964415 13.662062889316728 13.48424616185236
Cr 11.060517862381317 14.542033010323419 7.080805673267908
Cr 9.262699748516194 14.389998882742658 10.296608492973235
Cr 9.694978234607785 14.698519031926983 13.206497689796832
Cr 13.557641493339325 13.382597138375568 7.525478614099337
Cr 11.765982322401387 15.170715035216235 11.475175555916428
Cr 12.115599851080754 14.259416028339094 9.260982196562416
