5
Energy = -33.68142609 eV
Cr 7.489448146612462 9.108579180435926 7.494565092344084
Cr 8.916650490561983 8.024116404850698 9.12374480514099
Cr 6.3668060420312935 7.185236194394501 8.410535211339226
Cr 7.072014119172251 7.488158721650996 5.744651024181084
Cr 8.401420743983579 6.363667672115686 7.431194366853878
