54
Energy = -429.76984711 eV
Cr 15.03330804475086 10.871344831215035 13.75983014963557
Cr 15.642425798069839 8.899652887138021 11.960405015920813
Cr 15.086482399351803 9.658272006509328 9.76921723896635
Cr 15.841275918543715 11.662545933313826 11.80241371737041
Cr 15.48037736110871 13.600921176113726 13.222201548319134
Cr 13.29770537772892 12.664194149429974 15.07376515123671
Cr 14.113480337464205 8.588027996998763 13.61293123838628
Cr 11.382614732301745 13.957108709861407 15.742125732582446
Cr 13.321589142128174 14.605972514809233 13.803126413321861
Cr 14.25825325646827 14.016522450551719 11.112641483000283
Cr 14.202542993723048 11.938655905657862 10.073307378383886
Cr 12.406761361290243 10.410859856411738 14.062881990229885
Cr 14.258350408509305 10.551382044667465 7.80427847316685
Cr 13.587973540893202 10.318020039205393 11.7976643824453
Cr 13.724084957646339 7.590320088377352 11.096149162810685
Cr 12.146584318494538 14.709749224297385 11.789847540774703
Cr 13.864156870406559 7.858463266693329 8.746096270051158
Cr 13.643106000701199 13.934171430544454 8.50597630636255
Cr 12.564396949882717 9.803072052339612 9.833634340735454
Cr 13.328555635565337 12.374121154522072 12.581298109858931
Cr 11.264409485371074 12.804409981176725 13.299608138938353
Cr 9.196330718265639 13.98013667936844 14.817142026226037
Cr 10.57189186442581 11.702963999851976 15.437724706063078
Cr 12.355439887816432 6.5415201948466795 13.504437194678344
Cr 11.23402304625212 15.567098637320978 14.116683019152191
Cr 12.50194905869934 15.15343998138073 9.289545105622052
Cr 10.99619896315347 11.034501343050135 11.891986384653816
Cr 11.921841817070696 8.611304926116066 12.191935130379743
Cr 11.604240691190919 12.763587037945657 10.391307600159028
Cr 11.781611235634747 7.8451679966779 14.681909636221976
Cr 11.690333753144595 8.023228973332257 9.213019984254304
Cr 11.667082853959867 9.47957690720881 7.314546822984124
Cr 10.308140047727152 9.728512675580747 13.786105669802108
Cr 11.087667326907365 13.417487022953102 7.899568964634872
Cr 9.937006494155312 14.817068690728112 10.026794063618802
Cr 9.71276072444006 14.569199352097824 12.426590162503663
Cr 10.36552834629656 10.946112361200528 9.230852486717687
Cr 12.600296190835152 11.625161145598181 8.08753212606525
Cr 11.504397797602358 6.377706410840374 10.94060777846488
Cr 8.889640581220476 12.048347057966074 13.526518091062272
Cr 9.74825090755792 7.461319784895424 12.920995694714314
Cr 8.990939592647841 12.47921774814481 11.1928450089691
Cr 9.04138959692321 12.880510824452093 8.771517941858816
Cr 9.444934746358669 9.043960052555201 8.125353821728078
Cr 10.045755156765846 8.8779841054301 10.96817121742999
Cr 10.254257903084419 11.378435087181968 6.733611598008432
Cr 8.456944318864387 9.980971499715713 12.364942246995268
Cr 7.532475459661067 14.268915010399525 10.677146826966341
Cr 7.445376739520869 13.961563253630198 12.916152648215666
Cr 8.108307288323422 10.573396817506696 10.092395399113753
Cr 8.187447814468836 10.983398766377663 7.606309597407592
Cr 6.511882507993836 11.667262778230189 12.090663557123046
Cr 6.75764716517246 12.296515431785922 9.509447300243913
Cr 5.335644617222176 13.01137612175751 11.629597553813662
