50
Energy = -382.65942083 eV
Cr 8.553689573334443 10.058780924044429 9.02953182617271
Cr 7.442171952961484 11.92240891726977 8.276393390984834
Cr 7.272026677345765 14.413478698747944 8.788066725328703
Cr 9.138696994287532 7.735421873623487 8.520437962029881
Cr 7.060973847173366 8.170640454636528 10.088329680138685
Cr 9.37887544707512 10.20416100305184 6.715566423927225
Cr 9.94800196023232 12.015669619509927 8.211865332846092
Cr 8.91880866543442 14.212831324187267 8.129009124207517
Cr 7.52212092229859 10.424447531951271 11.143262054371824
Cr 8.333479641836975 12.579524957990493 10.402696094181302
Cr 11.899222299613312 10.603483173102193 6.884106235250382
Cr 11.77656500288629 13.088841694554779 7.57915488296692
Cr 11.771752574386218 8.156267728400978 6.96214748667062
Cr 9.6606597666647 8.87621839097551 11.036779436173513
Cr 9.11093162126347 6.590962992963186 10.821707972402482
Cr 8.902055419865361 14.920153722801926 10.689045547189336
Cr 10.285468544499444 11.274579822501803 10.732671098077477
Cr 11.278392406512742 7.522848810358052 9.387292371188565
Cr 7.150674732526265 7.812817567204262 11.797035525625645
Cr 6.904511543128968 10.251044664051022 13.487220280559775
Cr 12.401339666511198 11.61286574120428 9.387061807976805
Cr 10.81171645431711 13.726828535269734 9.895169447154258
Cr 14.06778965980049 12.447760109282315 7.473315756535932
Cr 9.9044314443909 13.537598827168681 12.383125923653527
Cr 10.89396162517197 9.711476879566309 8.818672083707712
Cr 7.3554215384804085 12.835314202170208 12.48035347844941
Cr 13.40481960450864 13.61294851458434 9.94027103347764
Cr 14.107395609865373 10.021538518723245 6.743442680188924
Cr 13.349747047573695 9.140603452845495 8.808250675178831
Cr 13.75218037632241 14.094161050333001 12.602076043580098
Cr 11.341932610407275 7.3877797451864025 12.0038139259395
Cr 12.379699059594326 9.686668066804838 10.986838935828638
Cr 9.576904759070793 6.027057749862407 13.123311291423615
Cr 14.634858674742892 11.118544716150458 9.15088601836624
Cr 11.950200241792729 12.351409871535756 11.947435153905678
Cr 9.0964683994459 8.378414046461502 13.221516060219182
Cr 9.154057496047116 11.187144946292582 12.734101907670315
Cr 9.525811458342664 10.111489421466567 14.74788597041871
Cr 11.522147090394075 14.824471005212473 11.545572773776659
Cr 9.108401645613192 12.923244124503178 14.651856640784072
Cr 14.221782833697295 11.651895546986527 11.52069924801044
Cr 13.350239986022757 7.2070690071474015 10.508967623895206
Cr 11.519449250717587 7.948706499137796 14.17229370397469
Cr 13.807401707937007 12.937535775619056 13.79624972835553
Cr 13.352426896190357 10.404824735458995 13.41882408181472
Cr 14.981045531845668 9.419596919704343 11.144983471670624
Cr 11.26971732755231 12.14410118424145 14.312724326524583
Cr 11.49315371140768 14.310712926019056 14.059967407120947
Cr 11.249390588690598 9.862051969785641 12.933199296807048
Cr 13.744603131509862 8.239846324971529 12.655940367417273
