51
Energy = -404.93884181 eV
Cr 14.641619664198533 12.38490698681809 7.731149084778673
Cr 12.531851235109874 13.566714040757565 6.852724832982509
Cr 12.922973753913375 11.223013447981769 5.918628829963819
Cr 12.99899234648108 14.320669172787046 9.339654137475627
Cr 14.24894744916096 12.727940205333104 9.863571473942816
Cr 13.605438539197065 10.271132500558586 8.374970372990546
Cr 15.470023852068525 10.562681594606008 10.05282135840634
Cr 10.269672363974571 12.286949199167767 6.414111375956582
Cr 12.070319784702832 7.845578827086203 8.14223706805791
Cr 12.143092223461444 11.965580189569893 8.395285222881261
Cr 13.386005318396741 8.481250770277342 10.018271501628506
Cr 10.509440552474645 13.973117106725914 8.584472266029483
Cr 11.147408617457257 10.260536276881975 7.012284960853695
Cr 14.641236351423714 11.726677064559146 12.468378022104183
Cr 13.11603138257707 13.533664887210488 12.01351765315232
Cr 13.04890772137428 10.928011579549713 10.787109545988832
Cr 14.208046740224153 9.477396362846896 12.484766126336442
Cr 11.20402696015464 14.937227347752268 11.021809957385049
Cr 11.188014636174024 9.746753391109328 9.613620093387901
Cr 9.66220885368155 11.476313094417579 8.800515948020628
Cr 10.920628739325526 7.335246059118324 10.16831990922368
Cr 9.758940847960242 8.649276143008343 8.166476537325964
Cr 8.389685332272407 10.393289563906311 6.911354260506861
Cr 8.49061740908488 13.149108285355462 7.885972905291254
Cr 11.444561798537475 12.481018918823564 10.53193303072949
Cr 7.001927114869146 11.164204484637821 8.175196131646953
Cr 7.026974503295523 8.310654890522377 8.192894807301734
Cr 14.048828115225227 11.03036958074993 14.776045974846776
Cr 12.11265193881325 11.337665539961861 13.079834991097645
Cr 8.3123028035875 9.682968586267064 9.676746710952697
Cr 9.746348189742402 10.962288785922501 11.400463268082026
Cr 9.197063157976757 13.513168703118508 10.550864433690371
Cr 8.666484616354834 7.020503934924107 9.39895729865538
Cr 11.718793013143868 9.171933523305407 11.928033282793542
Cr 12.47688466588225 9.245738886057893 14.332358212073547
Cr 12.40366125752709 7.250573354027085 12.154273615277564
Cr 10.412722919422002 13.191674875783669 12.70311430332836
Cr 7.502784346362924 12.105160561922615 10.488321302035724
Cr 12.29548894275617 12.976603586102785 14.472946086721926
Cr 5.944364176011347 10.215873236268845 10.47622638735666
Cr 9.438946261497488 8.302363137056144 11.672585957285879
Cr 7.3525602575129785 7.887395298290985 11.019413873558769
Cr 9.943113119118511 10.316248795411907 13.637463447617405
Cr 11.527313900030668 10.5794854453422 15.60153819890305
Cr 8.385591507125191 12.525944572932302 13.045098809609483
Cr 10.509109176481982 8.009685178799387 14.040897150566632
Cr 7.572436923184108 10.147457760674802 12.233721134137818
Cr 9.618806697732527 12.297283206995122 15.055074319590489
Cr 7.932095090400811 8.373810384250522 13.646177654523493
Cr 9.037374562657208 9.494295147389328 15.70307078684789
Cr 7.3989151988347555 10.840328667303433 14.473082216094225
