54
Energy = -428.7774702 eV
Cr 9.808652977470805 7.224850283766301 11.035005108695964
Cr 9.21572352737512 8.618675208566644 13.392321706088861
Cr 12.098949092086748 8.307490412286144 10.381845254235886
Cr 8.450155158434052 7.72401265158215 9.7458049071621
Cr 11.460530120199005 8.466703293926704 12.681735064317529
Cr 7.463882764635687 8.705139126004525 11.787963056468897
Cr 10.547337053786682 9.03440032594839 15.254542281521118
Cr 13.984800473716325 8.69668949040031 12.045435405580177
Cr 10.403050354051242 8.704915116625827 8.70136338404962
Cr 12.886857586901499 9.532775307644032 14.25427960863555
Cr 13.101885626906318 8.55311185410934 8.250185951620317
Cr 9.944769235112826 9.653172051980361 11.01168009778487
Cr 12.030209388616933 10.920023940016915 16.295208175013272
Cr 15.039903860523296 10.949560550195882 13.361201394381661
Cr 8.142584416065272 10.282408283617956 14.523564915183359
Cr 14.584950244421455 10.580753749950633 15.775019905000859
Cr 14.267589609022714 9.582570204556305 9.70450811982543
Cr 11.916432222003563 10.68591258265277 9.479398129691054
Cr 9.817951894274547 11.322325406942205 8.59595090652914
Cr 15.556630923643661 10.718880520262852 11.440718882620622
Cr 8.198425283423077 10.119054648596808 9.613254401329847
Cr 10.615707636320979 10.829177711699757 13.414007676657443
Cr 6.194849789193554 10.21771776368468 13.045242874284028
Cr 9.756184212086893 11.078662732575445 15.938862687136082
Cr 16.2893287837624 10.730764803588695 9.064180973432881
Cr 11.905026111935568 10.13230977710904 7.086789177487147
Cr 12.577841090083895 10.675858088707487 11.730890274213342
Cr 8.131306083222542 11.166831493185319 12.14589299253766
Cr 15.9466481241748 12.829545340360516 8.414063466077728
Cr 6.253630245194412 11.24215985208808 10.540543747287698
Cr 12.957701712208156 11.845803983188345 14.063499383460796
Cr 14.172300706546054 12.024820194027814 9.899727973856185
Cr 13.93712759276108 11.094655378420445 7.720562152787001
Cr 11.39202416624786 13.074779110986857 12.458019412531346
Cr 11.550208858070208 12.464604284062412 7.520197091087913
Cr 13.172763640557523 12.762766856008072 15.99667811274631
Cr 10.058976938577736 12.09142791992528 11.00581986992425
Cr 10.979785439628952 13.09420534118529 15.020764213907652
Cr 7.505523401905053 12.602631303240175 10.005426708657179
Cr 16.434760428400402 13.066655325579282 10.782644996755458
Cr 12.169078591639979 13.034515265369796 9.972457544193457
Cr 9.142895106094185 12.514489582882437 13.741804288205932
Cr 9.684204565186958 13.73118065316717 9.117376247656848
Cr 6.753766218780119 13.08982514486475 12.51481109398798
Cr 13.93389595022951 12.826253255862017 11.947486888327159
Cr 14.546944426056951 14.578697928482878 10.14204115095132
Cr 13.121532813036051 14.366045168939824 13.945988964285526
Cr 13.751467269707662 13.922950325159476 8.151530723162605
Cr 12.918517351292639 15.144578529208987 12.136915503737265
Cr 10.462946334903565 14.915919076206755 13.551923137775914
Cr 10.6918051655145 14.87901026308152 10.82838620079284
Cr 11.486574937457 14.75757529680007 8.09087953895966
Cr 8.807673721818396 13.950224714568922 11.837900353176412
Cr 12.58754022085889 15.81127131205695 9.79795134594687
