50
Energy = -392.8012509 eV
Cr 12.628771381303853 12.558053069760653 6.950850143850921
Cr 10.732733233663444 11.174317446676659 8.093565195758556
Cr 12.382431689213158 9.95344865296783 7.081705313153869
Cr 14.869329454394492 11.392822835689945 7.37242061906494
Cr 12.003229628259096 12.899802923232459 9.585683489416967
Cr 9.608735838481083 13.17606779570104 8.742473206213136
Cr 14.512762795150662 13.259774951434895 8.837133138265596
Cr 14.116927586116649 8.681594560903113 9.532167415135946
Cr 8.473443585431538 10.91664445270094 9.707497022058657
Cr 9.6761361357653 9.188031298520647 8.344088932571402
Cr 16.582347938008077 12.788909450733044 9.362343735152074
Cr 11.849805106251992 8.801340914754185 9.178931992974116
Cr 13.161977544495281 11.039606923172613 8.96581187356869
Cr 10.863037948030447 10.697347442378309 10.485755452004659
Cr 15.732503394762604 14.144942905658885 11.27643158767984
Cr 13.474259065480338 14.503417156658871 10.663816605399893
Cr 15.572844576657667 10.604628034623028 9.696788319438662
Cr 7.550076090130529 8.51323264458156 9.824990323826572
Cr 10.926502507756323 14.779087983916995 10.511515008245317
Cr 7.658496327618474 12.799059909744223 10.51004691943635
Cr 6.338313099734383 10.47393050160952 11.048025790620047
Cr 17.12297041917882 11.784239764387452 11.619299489219452
Cr 9.600192755115016 8.72467584145448 10.845337527762743
Cr 13.190368199247969 10.123417971745342 11.222801329020037
Cr 14.475431885731584 12.16250020234373 11.079609424826137
Cr 15.48405953424398 9.783056317487606 11.933733905876405
Cr 11.824269438993532 8.108447576123893 11.423298877555194
Cr 6.358164462818271 10.030618285564456 13.81348982262504
Cr 12.14427221811528 12.706274823743856 12.006494511133022
Cr 6.1655792885264304 12.033045848344289 12.333990479897183
Cr 9.84008737942473 12.645076223033296 11.391090824385556
Cr 7.323519695462704 8.676397556935873 12.329750515441267
Cr 8.614019813736757 14.964991559485473 11.172225014063425
Cr 12.339421155260457 15.314586274446043 12.448225649236559
Cr 8.591350984217414 10.734198944159292 12.463112950865803
Cr 11.110116570728962 10.369313670233446 12.847110373681456
Cr 14.2285859697149 13.862084658170152 13.190233832027554
Cr 16.2714507521229 12.229934123319254 13.126287238834232
Cr 10.211856619838553 14.55722719510501 13.022584036889677
Cr 13.261025529209512 9.208022853452517 13.48133352597315
Cr 11.39537561094008 8.700291896776415 14.958797076692969
Cr 12.139249555792658 13.279647954236015 14.313684848713576
Cr 9.718411740809103 8.320801342999495 13.23356649241913
Cr 7.810559912987574 11.696317609035482 14.587388860972377
Cr 7.923292370331021 13.398396525504767 13.081870577438396
Cr 8.22885927217182 8.949885534248924 14.91358836800187
Cr 10.210195709002091 12.544137544775953 13.922596483144176
Cr 13.802226116095948 11.388765044749896 13.416700893370756
Cr 9.722631920872407 10.366661217687845 14.976887194097309
Cr 12.247045340590393 11.060178933017363 15.142122939987702
