52
Energy = -409.3931981 eV
Cr 16.172661144639388 12.947389331095419 11.96502905024814
Cr 13.389040006081194 7.3372342984097525 14.009839743977823
Cr 15.043898930055565 13.462279499444243 13.988797076431853
Cr 14.178897585447096 8.887812759133844 13.398094619838885
Cr 13.73717583838215 11.424760135633017 14.451531680985694
Cr 15.129286688214581 11.055038878063312 12.684395599046404
Cr 12.84091583943604 7.513740464979275 11.434899106784908
Cr 10.820642494900623 7.049792103969516 14.58720592235228
Cr 12.157756715837822 9.491515346592658 15.011423135311178
Cr 10.768457393243132 11.230511581601862 14.465427465025307
Cr 14.913972569385214 14.83918856906995 11.60858084827641
Cr 13.59176125345562 9.79083313306411 11.012001925426219
Cr 12.182719583989151 13.324533623640816 14.135665439963802
Cr 13.234450551180412 8.476016998123987 8.932135155736121
Cr 14.586748558389479 12.088875974399766 10.187431970613096
Cr 13.483237956215563 12.946462408878796 12.11116110607421
Cr 13.37609809940071 14.34097231463078 9.641450016197654
Cr 11.376468959613543 8.860986962177705 12.755595876644279
Cr 11.246892241982943 6.175489519730146 13.050620305385623
Cr 13.45755114254204 15.259097955119183 13.569416127249646
Cr 12.346917364095532 10.981421229745596 12.599505494780127
Cr 9.392662469560785 9.27397733207758 14.590104819082631
Cr 11.839008694220583 11.971626573813827 10.228349131271695
Cr 13.099905141873268 13.21701843931625 8.191756775774694
Cr 10.865798564816284 8.052010652656143 8.727403134098259
Cr 10.079445118219843 7.4335818876646895 11.092738203496891
Cr 12.058670788976189 14.79892164213658 11.6953901117986
Cr 11.255385135097532 9.760077150886586 10.324845899593681
Cr 8.926578784405494 7.794198349679201 12.875858220404877
Cr 13.259893074155592 10.778693873724938 8.503748210557466
Cr 12.579839746305415 11.606083588922354 6.191644481128746
Cr 9.729128539946597 10.62319905225253 12.354906793304712
Cr 9.482115050916951 11.897613639996544 9.981211676373434
Cr 11.29678456879331 9.919659559766425 7.723194584272096
Cr 10.784643140889369 12.268861000003895 7.716476002808276
Cr 8.030443610638024 10.98997877044898 14.319288134026602
Cr 10.571558880746007 13.019754105686367 12.143910387294257
Cr 10.83172787209775 14.09095691864495 9.373443169036953
Cr 9.197267651255844 13.03223229847591 13.762864198072366
Cr 8.709829749063065 9.406059989585938 10.664535290831317
Cr 8.995637384260524 10.195919431123011 8.20847166401355
Cr 10.652513191396901 15.31594544943787 13.75876689106721
Cr 11.20952663784885 9.520753539431396 5.3222017422721
Cr 9.811759532648713 15.454778267628924 11.06265753707284
Cr 7.046437925418085 10.94605547960783 9.794127095036556
Cr 7.282006925476898 9.668433376988032 12.531165203267784
Cr 9.940953994340205 10.786940234144005 5.624159768256004
Cr 8.374409514505167 11.950889845309861 7.517081138098759
Cr 7.850924466773171 11.862778603948097 11.824132372739385
Cr 8.649759359075228 13.777669370284734 9.129926185256899
Cr 8.344352519564136 14.131653374966707 11.47679114669971
Cr 8.911009937559148 15.794527517606962 13.518941653676979
