53
Energy = -424.23194769 eV
Cr 10.052144883891732 13.067550253178718 6.642757035893871
Cr 11.635420135396169 8.74573885462677 6.221474251713211
Cr 10.619736868641677 10.719717021692492 6.644107999540224
Cr 8.792946189969713 9.357901642930976 6.915506583770799
Cr 14.0850343055625 9.380224687772019 6.3370991401529775
Cr 8.297853685628034 11.638649722885894 7.630485356289977
Cr 12.694920940880598 11.625711291165839 6.693038122815088
Cr 7.9967755421527125 13.639160847482184 8.740141398446628
Cr 11.265842488850462 12.110880362012306 8.73195395867496
Cr 6.41747976160261 9.660491802020356 7.928157783103255
Cr 14.948867243854243 10.51210282078327 7.836304026782763
Cr 7.876534719447351 6.942708982038528 7.828950530407854
Cr 13.065226776772443 7.261830359873887 7.371510367003075
Cr 10.285215373067425 7.87805131605782 8.036847427253443
Cr 8.073887903513768 8.794219968261729 9.53256814700711
Cr 12.354589453881612 9.62884003964388 8.46383059589324
Cr 5.683104675440422 7.515657539143878 9.489000356625958
Cr 9.947853847068306 10.35310528228111 9.083698413214371
Cr 13.45412863506598 12.089694820039677 9.122589184776032
Cr 7.684185414252562 11.173179348142508 9.819983061089294
Cr 10.20202633875069 14.337279224495282 8.685066548280107
Cr 14.273866068803693 8.138272357501029 8.77679732964569
Cr 6.957529890321967 6.5849566229426 10.862254528689258
Cr 11.984204609048673 13.48984591085109 10.924099789472079
Cr 9.105229504635355 10.505293661966611 11.683270870938605
Cr 8.446210087408721 15.16594121573602 10.652969552850813
Cr 14.160105438788715 10.407670291054798 10.240128126068226
Cr 5.556640386321461 10.061202369910427 9.693388685267289
Cr 12.995091888544222 8.408505739725053 10.963407473634845
Cr 6.856139194517985 9.058550320470053 11.534698649233416
Cr 9.377882412420346 6.583832290370807 10.055808831160087
Cr 10.609304349152474 8.735847365116683 10.424995836558102
Cr 11.990664805419035 6.894199242113332 9.382395739109095
Cr 11.805747588628966 10.840218776879276 10.801535072377037
Cr 9.724015322363057 12.68773149783542 10.42696076574213
Cr 13.537099504338382 12.505729953989794 11.79985162634108
Cr 10.408962567220781 15.472142874539072 11.063512266920325
Cr 11.914499185835329 14.340599743402528 13.208420258596954
Cr 13.251247670844265 10.091671331862946 12.784945003979592
Cr 9.612228487042893 13.605464014812286 12.541437264455247
Cr 10.856220015575701 9.238963063689532 12.752129202654809
Cr 7.429094547019665 13.078691734494008 11.542079975795735
Cr 6.416657535931178 11.363387655445642 11.999750144854827
Cr 11.32987638271876 6.759545117909685 12.018443406376282
Cr 12.580225354256326 7.867556727912335 13.695343274090025
Cr 8.92447568858276 7.744419479821471 12.081373114452342
Cr 11.035616114779103 11.858146848698635 12.818906573737452
Cr 12.805700403082827 11.818316257421843 14.30601984207311
Cr 8.399040297604474 11.94259809596496 13.756299357137099
Cr 12.186466276504083 9.489899100225731 15.247008641828092
Cr 10.19618379782837 7.574582340223345 14.547496648670226
Cr 8.19625923008296 9.294905592674581 13.694805025083939
Cr 10.175019234209888 10.489895241432352 14.495675856994863
