53
Energy = -425.4264297 eV
Cr 15.924774415436492 10.919009977762899 8.903254716313565
Cr 16.425940518021022 12.799946615506471 9.726620927545788
Cr 16.094574352752744 10.469877264251481 11.368718057702141
Cr 14.728493039818803 8.649871634247756 9.32203149636836
Cr 14.552006702687239 11.757708261320607 13.16503559909264
Cr 15.455417722813879 13.229528567378054 12.061093810266721
Cr 14.34816977095179 12.864112705927283 7.956941201700362
Cr 13.896542782667442 9.78677684763924 11.291969262626122
Cr 14.081956268798027 11.986191093022903 10.478840390747541
Cr 13.345413617324592 10.666456952712975 8.64467226735894
Cr 14.262427327284318 14.215904193948573 9.535909243089005
Cr 13.082059174100086 7.335194613426408 11.577815402522772
Cr 11.374185294309028 6.543894410396173 8.905739844532905
Cr 13.258441148461447 9.417791635465637 13.607016235043716
Cr 12.377107118401545 8.393520725905365 9.69975139660375
Cr 12.263422279303063 11.53445091092678 12.467682832342826
Cr 13.21825261004447 13.704122951694432 14.115380492015015
Cr 12.618469525968374 11.747782362191126 15.054237082450955
Cr 11.572560248323011 9.114014401200063 7.756787901577489
Cr 10.545930421379705 6.804491401742277 11.069522847395206
Cr 12.805684314453233 13.553662256086307 11.717441097884812
Cr 12.201468794597494 13.297854582432063 9.206018518481164
Cr 10.80471258626437 7.894215151499594 13.652339917861829
Cr 11.818197936956329 11.817471211916654 7.266377753198888
Cr 11.465488871088194 9.12975882346819 11.930516052011287
Cr 11.496538983625008 10.944332129925662 10.099466503402782
Cr 11.375718185380597 14.144041795143211 15.794675420441058
Cr 10.96769107518182 10.254813570525036 14.332035201143144
Cr 8.710607935128847 7.068809483024523 9.440897264333275
Cr 9.725301545671421 7.715188621907067 7.438990403849729
Cr 10.591499361436826 12.9047697786719 13.640671155525649
Cr 9.917677788946424 9.105324499685496 9.776456622075923
Cr 11.312369635069855 15.083147535389873 13.128847953518617
Cr 10.356272101837506 12.29017627961436 16.178655820501707
Cr 9.775588315583299 10.793336393576459 12.128361888899267
Cr 8.929006209209076 8.548137892487008 11.865407913152396
Cr 9.96622755105319 12.813122030161164 8.623814077192433
Cr 10.483731171274178 12.98043268989074 11.127043357638073
Cr 11.14708872146163 14.807539990742995 10.276111263438851
Cr 8.44355266521695 9.174947625306665 13.874260158843128
Cr 9.648389950038 10.546254540781138 7.6031865254481446
Cr 7.151483177804402 8.960542118446662 10.40006347945606
Cr 7.977576174571522 9.374616036652714 7.991943093966633
Cr 8.80423747835333 11.370713862231094 14.365658966257461
Cr 8.671340556240958 11.16534263306434 10.108507804275124
Cr 8.83786175996635 14.312161791649647 14.542785507538694
Cr 8.380713314574349 12.84681866688814 12.281544642339387
Cr 9.239621072727617 14.93087879207941 12.242987595440836
Cr 7.137862353789926 10.584879108535668 12.2399892920784
Cr 8.513524643715131 14.041839167501694 9.891224584415456
Cr 7.736524997936892 12.222441441502456 7.979710058304059
Cr 6.222270450704067 10.62700479654977 9.562192329516014
Cr 6.719688531497571 12.686341310269043 10.77843768718974
