52
Energy = -415.74637334 eV
Cr 11.667380471195546 10.940362928401614 15.37952259447788
Cr 11.65746561988572 11.953727816956684 7.249982394713644
Cr 7.491030000762348 10.423760146230538 13.26898373530485
Cr 6.901147605692671 13.892317336338708 10.739866212666024
Cr 15.043696027984861 11.40967900808192 12.330613388407054
Cr 8.98859523292612 9.13173457644119 11.892108440756012
Cr 10.279464709020802 9.746120389629048 7.260733253874924
Cr 6.296028565754039 9.496713496408272 8.726137468363905
Cr 6.846344127969941 11.710295457415567 9.177115765182256
Cr 12.863785199848305 6.74375085896519 12.304297160887149
Cr 10.505950607037189 10.868200529613928 11.23293889898265
Cr 12.978884036960324 13.066042305643965 11.819735964692246
Cr 12.135939695064124 15.057686777644774 13.32915215210519
Cr 8.768100026273874 8.132302484460235 7.643175361877432
Cr 15.320083742904721 12.15403739906825 10.489402277588406
Cr 9.832788603584138 13.824368972313033 7.861889698791214
Cr 13.891027203504386 11.356566857772243 8.472448548366739
Cr 11.240523666113502 13.213015756306547 14.109391033181424
Cr 9.167713046887913 11.97464930687673 6.183598267631742
Cr 11.375098640840925 7.135939265480872 13.9723324586991
Cr 14.185543330200185 9.002573536831456 12.464064597337567
Cr 11.574353119133473 14.877671186818459 10.760508193439673
Cr 10.442601445599985 13.241396875492436 12.022262776591756
Cr 11.552372409298826 12.646702572296464 9.608363790870044
Cr 13.585654671958288 13.590962772489142 9.346566788160121
Cr 7.5619343835444015 13.424144439130423 7.909959472591195
Cr 10.39721302393114 9.202664043841608 13.707249375820625
Cr 7.788634823045953 10.67523678822855 6.994200933374779
Cr 14.52122782222962 14.338487650563687 12.104992103727058
Cr 14.28905031919941 10.920162489444714 14.855899685827868
Cr 9.456404632632193 11.697758332963039 8.780660875684196
Cr 8.294656233117847 13.358442061454173 12.975633475165928
Cr 9.11394580188524 13.816277764478205 10.187971612942865
Cr 10.071007568649506 6.848994048645659 12.028708709866294
Cr 11.627540671230001 10.064799121047963 9.252640911506477
Cr 6.515150632258411 9.722736284918234 11.106407764716604
Cr 10.315083198773477 8.242735065347174 9.782791995121283
Cr 13.0678049728769 8.844132485521838 14.131440134053582
Cr 13.221751436822638 8.200297222867745 10.00064637211112
Cr 11.704795771536185 8.727996417340375 11.73823282185651
Cr 8.534345974330956 9.728614998267322 9.434046124895382
Cr 13.10368941035359 10.687907245086159 10.815333179243318
Cr 8.336522837248435 11.635077239832146 11.228167482412498
Cr 15.068571075436843 9.451793664940405 10.044843067678737
Cr 11.487213205606905 6.405820230405945 10.28868519486432
Cr 13.372072737079257 9.552723077279927 7.629845981542691
Cr 7.7971738673481505 7.667436205872199 10.450469469266588
Cr 9.515876523330421 11.378887656814795 13.612096708936724
Cr 6.047777192864786 12.142823851025334 11.481110482358655
Cr 13.753564693873903 12.788770526480715 14.327798329859572
Cr 12.228073598067798 10.982758740500246 13.126368903643126
Cr 11.600732813369643 7.777661064837966 7.757481797918726
