50
Energy = -382.07060044 eV
Cr 9.512297183400849 11.040534950405622 5.024369554893473
Cr 8.878847263062372 8.389826046491578 5.700055732647162
Cr 11.17260989631192 9.123388953669592 5.624925529723013
Cr 7.6255709584294475 10.361981629724562 6.527932314306042
Cr 8.210735405768652 6.132649336322876 6.546803211068419
Cr 10.847332063887341 6.880067425138868 6.589665254029318
Cr 13.160368185180046 7.222041905865565 7.019617898539677
Cr 11.662078250590891 11.985180443394961 6.07283329970551
Cr 6.432330492731822 8.276978397907019 6.988290300401753
Cr 9.454556492301743 12.452969329402377 7.197644449142909
Cr 9.966655359858589 10.173539135236945 7.443318479822662
Cr 5.319670014797529 10.719296470557895 7.570644011881239
Cr 12.791569566679465 9.785246826469537 7.041123819200261
Cr 8.509393470870835 8.039276701228744 8.279545065298086
Cr 7.029055106453911 12.478308871301103 8.614718969590115
Cr 11.273711053740257 8.370937828035121 8.331215954593706
Cr 9.436180401350779 5.750230989122323 8.596909178531893
Cr 12.09329199153429 5.983518446227531 8.866896815218572
Cr 6.755173310787765 6.4255978452190625 8.878006880491231
Cr 13.350623921578435 12.336746081420594 6.9833690054126825
Cr 7.527144355593054 10.24872657670678 8.747105192117948
Cr 11.397493148295467 13.44957033284368 8.487404241257915
Cr 8.78736175582872 14.456099707620846 8.442048562410855
Cr 11.722832658081229 11.105846789840944 8.816989618031975
Cr 13.398736410184961 8.318473677651637 9.147936470381719
Cr 5.775093396891578 8.837660181499892 9.543000287839869
Cr 9.719736295347403 9.826453427260907 9.870041163939806
Cr 9.288486014749902 12.121177338729572 9.426531609042355
Cr 5.495029010217855 11.459183732646023 10.180085468759657
Cr 7.435109531086235 13.535351516974917 10.725845844005653
Cr 7.6510449066399735 11.09388257890824 11.22805228495621
Cr 10.358453315488825 7.524795984203496 10.276212054954065
Cr 7.811177071201039 8.363561838299837 10.755920454310871
Cr 9.881292943607244 13.945460769576648 10.58355404037547
Cr 11.246100783202015 11.621464009868417 11.087873964215397
Cr 13.879402035809251 8.543590461693647 11.69524442089441
Cr 12.512083757149352 6.806324585749035 11.200696246318463
Cr 10.576441893159183 5.146358226430498 11.172485243914343
Cr 8.208724876529224 6.163329602440287 10.660345797923576
Cr 12.006221077407087 9.41231346218921 10.905598723108946
Cr 5.812882368183781 6.915988889870007 11.395247890096826
Cr 9.653260470671023 9.546542522787133 12.185776826451923
Cr 9.199850944295875 12.496406761583955 12.586154485279936
Cr 5.7896666775463785 9.572144682534937 12.037131688991602
Cr 9.980784001558105 7.1725667866284155 12.577683344941054
Cr 10.60563982308056 10.645774992029665 13.625035765191086
Cr 7.467303221930258 8.186166733507577 13.01249570945657
Cr 11.789149254413447 8.398014041727764 13.196546157553763
Cr 7.811603595358037 10.46842864076208 13.72884381965419
Cr 9.488463656898462 8.448643174013968 14.562846538847525
