53
Energy = -415.94030964 eV
Cr 10.112123123952884 9.498722211054464 7.2023913165236415
Cr 12.393802847671076 9.441763271299134 7.894598585672284
Cr 10.365692591675304 7.8774415624963225 9.06137764090484
Cr 9.655571300134836 11.75939949939107 8.163739850198105
Cr 8.17243886619206 9.615928902749152 8.948795949023408
Cr 12.587286624003596 7.051168370691894 8.21393662892236
Cr 12.016843592958812 11.70669517877165 8.134903496261256
Cr 14.764749990206811 7.931055915937845 8.479307225657315
Cr 11.943165485985157 13.833865954591081 9.271675631525333
Cr 14.340192443112247 10.183239786924144 8.768257742813933
Cr 9.17180633237365 14.232511959591708 9.17295286141408
Cr 10.376645323724722 15.889983299197329 9.105185650106511
Cr 14.08677455517541 12.975845235483398 10.142036037389063
Cr 10.673967763965685 10.001834386969396 9.777088104073549
Cr 7.710393747605269 12.200252599817684 9.48699915801632
Cr 11.155422100715962 6.506706118904188 10.791081253385357
Cr 12.803870277902483 8.395358018551832 10.187422703037457
Cr 8.77041919451573 8.14460754650737 10.85993034355225
Cr 12.625930466772587 15.390181971836718 10.684498664786094
Cr 6.789304482190887 9.78235670455123 10.1064954970601
Cr 10.394536950433151 12.495169385783493 10.303445462709428
Cr 14.030177072308463 6.555538605462746 10.735264690286767
Cr 12.752385774308673 11.136503772963438 10.345915178061926
Cr 15.632905017219514 8.742426644707257 10.7666567705837
Cr 15.394792903049929 10.549691505093625 11.041113673192992
Cr 9.463397719293665 17.3791652616411 10.866473250326349
Cr 8.249905702393056 16.07039166457224 10.979789121154406
Cr 8.853338371622161 10.780812420909283 11.325626744677479
Cr 12.2870491213141 13.246615768074447 11.860140042574677
Cr 10.451368324485092 14.95030237820232 11.348485454256046
Cr 11.535307802322869 16.810590865026125 12.635823352228769
Cr 8.139048407463243 13.451501785051054 11.47661864991182
Cr 13.483817207363444 9.189310993873377 12.200714199794492
Cr 10.77221772009264 8.767481667981867 11.81679752047481
Cr 9.91193678042397 16.651197778178943 13.406735862220495
Cr 13.375394437029936 14.634067476473236 13.200134580676194
Cr 11.474495813270227 10.873664553668366 12.36233361552906
Cr 6.813190509117694 11.682410213909982 12.138423254113947
Cr 14.006347188726112 11.819532724505464 12.724214904637602
Cr 10.109226328779132 12.687033833303367 12.897858911452563
Cr 15.18082600716789 7.363830888386467 13.022925080282945
Cr 15.775168834898507 9.804096812403795 13.451694327568644
Cr 12.540309926517976 6.932375179639536 12.55526116032014
Cr 8.608185294769493 14.67146093943877 13.380293745938305
Cr 11.217308586174992 14.493045520934086 13.976750444771882
Cr 9.098520216942259 9.970700646971997 13.333629752330928
Cr 12.220920733515722 12.452853527591595 14.447231886271593
Cr 13.349185629686506 10.30636119830284 14.213867478316113
Cr 8.240149301829128 12.261762457057808 14.01592702509595
Cr 11.549035106136243 8.727289625195585 14.059854681734517
Cr 14.083590448206165 7.80148013977941 14.395038554336939
Cr 10.682903935350417 11.035961712500383 14.812766717333785
Cr 9.855018381104777 13.334816221250508 15.497882230664725
