51
Energy = -400.66839792 eV
Cr 13.238603218236888 11.38251529688088 15.007508805873144
Cr 10.445200642939783 7.496995510761791 14.872230966916332
Cr 12.18489762879331 9.111800932161538 14.891057110474113
Cr 8.893823672117625 9.722097146469387 14.410078168892253
Cr 12.15540504955692 13.77628131851881 14.540709338426364
Cr 8.558886291759753 7.160062937107185 13.49604996092674
Cr 14.407808855366774 9.945223530229404 13.478473510594089
Cr 10.766183632840463 11.374812632178601 14.400319980215768
Cr 12.809345481606451 8.001721392014405 13.04892682038929
Cr 13.543877250099886 12.292013737503966 12.740537859647926
Cr 11.463954331980798 15.341850844062387 13.807905637030935
Cr 7.856033085767259 12.07330626765394 13.487759361172458
Cr 9.616916916950279 13.401990131789816 14.042303540980894
Cr 10.516527399471562 8.858240076482275 12.767930718433682
Cr 10.822726739913643 6.143314104806959 12.69299648845011
Cr 7.961374768587625 9.541359987412507 12.084175764362206
Cr 12.113491610211081 10.583193229216054 12.740059170593376
Cr 15.384179648500655 11.290581839023657 11.066973285575536
Cr 11.320595376495552 13.127792535889485 12.271202712346668
Cr 13.33828629115091 9.495676116268774 10.980367204936613
Cr 9.735188728584399 5.49221577010474 11.364174308533274
Cr 9.587879418450346 11.329902728653405 12.276114041945455
Cr 13.257554344726103 14.832856501633769 12.066822906539798
Cr 11.648199631104276 7.384642066249914 10.65321896638285
Cr 8.691881966580953 13.553510785518743 11.423028243113686
Cr 9.203826792925614 7.793363079422461 11.136065581820057
Cr 14.383580274934674 10.029195398058413 8.93231138939955
Cr 15.2327992640402 13.131273661836872 11.09176784840959
Cr 12.944023287598899 11.730450506529802 10.539846393083385
Cr 9.247700023675895 15.295335165319287 12.706015683129836
Cr 6.922072669426355 11.546661362020842 11.397486611175061
Cr 7.4715018348332185 9.286176375721684 9.794633475902248
Cr 10.841554032901499 12.664332472041165 10.10291511830605
Cr 10.827992843250952 15.213173147805497 10.912786384940494
Cr 12.16982720390068 10.508135820526332 8.57325389532351
Cr 10.822417139961772 9.968228727967722 10.466695690437426
Cr 6.983947461446355 13.305481806112706 9.799835275547126
Cr 12.3640262462436 8.01676093876557 9.058684371319636
Cr 13.059829351194296 14.230427965571527 9.84171423243418
Cr 13.733275020265644 11.345945490277101 6.473452883073199
Cr 14.317115130723412 12.360856884719155 8.73105167374921
Cr 8.674846959033736 11.161289619433504 10.047624809288942
Cr 8.684341620358095 15.550663254498156 9.991968044065965
Cr 9.875542656276457 11.342826649327701 7.671670832024953
Cr 9.211184232755976 13.48116339682703 8.716167858671911
Cr 11.914051996134592 12.754438867610471 7.924405541946182
Cr 9.826855350142456 8.779578024648627 9.044080111138491
Cr 11.21867987828301 14.912667807106288 8.593247009009064
Cr 11.982579210204852 11.219054488490281 5.910366780342758
Cr 11.05164933163346 9.119235981906087 6.868277973781921
Cr 13.297437033687686 8.852112969962752 6.813747994610651
