52
Energy = -414.95653224 eV
Cr 14.354995703238831 9.762782758376401 9.010037390765493
Cr 13.648570284270702 12.133716393045662 9.606485089148116
Cr 15.853673366519924 11.279348347266806 10.661517450960776
Cr 12.690410635493942 11.879781420143008 7.288096316214339
Cr 12.968403909813226 13.980265060783697 10.112806168343042
Cr 12.060193590516665 9.311497891832335 7.456436234013505
Cr 11.202374926950913 12.904127690519955 8.826051837242266
Cr 14.478964324085236 13.066597094858166 11.947039875069857
Cr 15.031129786182102 8.66439933533077 10.321791705464335
Cr 11.224179104618441 10.998967330716463 5.5617717896627905
Cr 10.537689888562133 13.371052244542378 6.404325917621992
Cr 13.477794898578265 10.581339920000113 11.58365488538887
Cr 15.707112699390635 10.518060505214715 12.342665116787229
Cr 12.508470862110352 7.9710327005552095 9.843787377244244
Cr 11.422010988253072 11.964130082461551 11.193176630834067
Cr 13.932862260704164 11.676273257111658 14.082196934244964
Cr 10.089481802125393 10.985189679822573 7.5882536185411045
Cr 11.096997581393307 7.159961550375556 8.1168475423053
Cr 12.442421032856352 13.51563264608522 12.87609707489425
Cr 10.919192758361302 14.610722584837582 11.140654563061592
Cr 11.970456336039014 10.45896059044875 9.313234939119509
Cr 9.151153701620157 13.805537828910857 7.491409372391392
Cr 9.380678722506941 8.80950595833175 6.6744894547939735
Cr 8.34363511108932 11.531068280240905 6.178763961162362
Cr 13.505736593556623 8.392814057234771 12.2663842159909
Cr 13.760906945241716 9.854719662061624 14.27452864412875
Cr 8.158441786018065 7.4893679924414105 8.562724101646944
Cr 11.797209199977296 6.756117797854932 12.001395028180049
Cr 9.280033194929018 13.578580123203427 10.008822420181922
Cr 11.189098681602257 9.230711128258495 11.352105242270376
Cr 10.21753951993202 6.900636355632156 10.690386513620991
Cr 11.860326393944746 12.727550710303555 15.396184609531401
Cr 8.386021133731528 15.041773434170626 12.185043359466706
Cr 11.540989392713634 11.061173107458055 13.392606800265291
Cr 10.171827503618523 8.830238913652684 9.074972727794856
Cr 9.757646912885667 12.891332283828335 12.516217550615302
Cr 7.669694539917876 11.922919546341385 8.760007881302307
Cr 11.348753620065784 8.844605852724843 13.839785050319325
Cr 10.586090726239549 14.604918148713574 13.999701281652548
Cr 7.798560610395922 10.067454472628281 8.554028409325111
Cr 9.56812280051937 11.045376830919755 10.244699583693704
Cr 11.798304928916439 10.951438232426488 15.888630138949791
Cr 9.385942611221532 7.940776823059361 12.824287481674416
Cr 9.411469800256866 10.421626107122563 12.517140436538188
Cr 8.399943705385697 8.75420875155838 10.753714136620001
Cr 7.689824183452652 12.41849316380318 11.486295007981028
Cr 9.573812502366998 12.08239900486466 14.717384465208415
Cr 7.678782734586199 14.11345475686301 13.590129367484524
Cr 9.556902402898315 9.832696224927759 14.932273930080246
Cr 7.054834776132694 10.298594928538789 11.11554993782427
Cr 7.597203927189482 11.427798259781007 13.62866643572048
Cr 7.405744552260521 9.028092789602729 13.407307169976496
