51
Energy = -405.35137271 eV
Cr 15.100307490821725 9.872643224252887 10.231292920496323
Cr 15.654209497832495 12.581031457206926 10.120978462739588
Cr 15.448687183242916 10.578451658358544 12.133195642954426
Cr 13.91569507805506 12.843729640378568 12.31924620882261
Cr 13.975210600026156 14.014454933719191 8.537350224375286
Cr 13.693824747934814 11.148710364650386 13.991984644695405
Cr 14.949545387179608 11.76200582446982 8.136922840479894
Cr 14.000780079566649 14.544745132361307 10.598707222477953
Cr 13.79487622735751 8.783525312185553 14.013433570604883
Cr 14.242725326528934 7.717806950031682 11.484289669859587
Cr 13.389525428363022 11.813556495506289 10.206406276668844
Cr 13.755023573936228 9.53421614895193 8.113982494082387
Cr 11.789195516298971 13.47903245354131 10.114128872893405
Cr 11.790283822093501 14.3900823989208 7.834984485474605
Cr 12.130096548085495 14.955521044956724 12.301585331768887
Cr 11.626789211614753 12.947204792303882 14.568096768695103
Cr 11.621347223151016 12.346600415799072 12.374116789067
Cr 12.148424980101385 15.925010118094784 9.518425988479033
Cr 11.657337807638097 10.351664669195939 14.295207739775538
Cr 12.06133456545524 8.172950590192896 12.646085973121163
Cr 12.37451433349985 11.896954025018104 8.00961975992046
Cr 12.87888978793324 10.213834427232953 11.98853643726477
Cr 12.66849092325052 8.86465204605849 10.029398158791702
Cr 11.80810865333423 6.616893621068955 10.910550885931634
Cr 11.607614708172518 7.621716111177448 8.45234267106776
Cr 11.07611880700147 9.772288251249623 8.037577884516836
Cr 10.962261248502273 10.964812141775171 10.201271028292815
Cr 10.24389474465228 10.005926412047076 12.578532010475788
Cr 9.7238084240328 13.960076584852507 12.846805881386215
Cr 10.130116234903895 12.417760742624118 8.327897113583811
Cr 10.30932830792461 8.842067896004618 10.539166855312809
Cr 9.574536956410311 14.502947473144767 8.945687251314846
Cr 9.576036466381469 7.321442350694165 12.403632856224041
Cr 8.736955336228398 10.4022684341991 9.159285057010171
Cr 10.335228742743999 15.409808349420603 10.999413918062036
Cr 9.429756493902254 12.889098624941095 10.93005434032585
Cr 10.34384355624975 8.425485172649413 14.644412000898885
Cr 9.853735858195451 6.383806921707752 9.824722784805278
Cr 9.321059814561478 11.793578471310813 13.562639462144668
Cr 8.926151398096286 10.775006741078535 6.921359753143383
Cr 9.187783118269355 9.953628510783494 15.153676110714944
Cr 8.926115916043907 8.175893702957856 8.472791470838233
Cr 8.104050391441556 10.664556437025364 11.44700121146041
Cr 8.060205975708035 9.107516910197283 13.377633471555605
Cr 7.5932854774704115 12.405582457477545 9.308518645833049
Cr 7.918654588010345 8.190444296932833 10.614066482650554
Cr 7.540653466911495 12.678678279058476 12.04278858540032
Cr 6.625918049918769 9.598383576239707 9.332610857853174
Cr 6.892304881322628 10.94604720330766 13.814929096525587
Cr 5.988934971578989 9.19980206199244 11.91839975052543
Cr 5.608464786723248 11.00032462591232 11.355798229792377
