53
Energy = -424.91258994 eV
Cr 9.268820579687594 6.765469342474974 7.877930839037557
Cr 7.919994678031825 8.45036398672724 6.280427856890148
Cr 6.836811395532422 8.212891646916525 8.172852149167928
Cr 10.233503580237393 9.103879366180871 6.700093819291212
Cr 10.957062608569826 6.272290968003145 10.162966901979244
Cr 11.139338660801492 8.197352289142922 8.726568356307029
Cr 8.815473961957794 7.469346049288956 10.147434923948218
Cr 12.828357240721784 9.22404947534666 7.688523101732103
Cr 13.120110217472357 7.959666545898105 10.329499512727216
Cr 11.607575027640303 7.670494922505505 12.507121625578256
Cr 8.764465665748874 9.481080851753738 8.608441524215447
Cr 9.146642563152055 11.213389636528007 6.465952546929943
Cr 7.0057227742065855 10.79832311733327 7.161961172943155
Cr 9.386910636648077 6.847780656860178 12.312495547822316
Cr 6.333892897963159 10.449890974725072 9.513658754868866
Cr 11.814734277146067 10.973157209595563 6.256429674456803
Cr 6.739763498755536 8.512198753595772 10.774082023285704
Cr 12.747514908632958 10.280656991603097 9.915184864013183
Cr 13.46686401748479 11.742675200090218 7.931368077745138
Cr 10.68823875471902 10.978830226284101 8.707719474901564
Cr 12.778268099475357 9.824796869675186 12.261113901763174
Cr 10.56930731517554 9.048751511294617 10.8639490236023
Cr 14.077883040852676 7.551074898990677 12.894472911973834
Cr 8.517589444239713 10.630097874459745 10.744761518684257
Cr 15.005596802191603 9.648083525603337 9.16489439017081
Cr 8.313197318729637 8.966707437515087 12.493065488154677
Cr 14.96753011522883 9.527672999511164 11.39944543526379
Cr 11.090496803134839 12.859537731413054 7.054351057330503
Cr 6.208132397894158 12.998619986203822 8.764685956432483
Cr 6.4733263182078815 10.63119695844241 12.4864179919342
Cr 9.937644888457353 8.471886985351569 14.241239041686208
Cr 14.671991227238639 12.080671988873748 10.400359624733095
Cr 8.548278461492982 12.074803659344308 8.929161119973605
Cr 12.4287100012699 12.882581000762087 9.47939544927129
Cr 10.55836755834912 11.729075228378306 10.911694494514006
Cr 8.425566761865158 13.456166553284763 7.051619975117347
Cr 12.220122418552906 8.85951143081396 14.725992257415822
Cr 14.390775523651692 9.590688082825281 14.184349322591798
Cr 8.455183384539607 10.404845866425665 14.636399291824084
Cr 10.577279215237537 10.23267799893312 13.006572375935443
Cr 12.627044720198867 12.097852286224798 12.048305131071963
Cr 6.802046369650165 12.585784737306842 10.983091800333469
Cr 14.85117451906851 11.65293988093503 12.99380296592122
Cr 7.940125210276334 14.63730818396961 9.227261120296074
Cr 10.223283395421031 13.683392791983891 9.195167468863593
Cr 14.186256304509229 13.982969605901259 11.234494288922413
Cr 11.305574826167428 14.18454619023609 11.233984000241124
Cr 8.566552135162825 11.837214615392863 12.928160097288355
Cr 10.726098009629562 11.045308599063205 15.437528266749181
Cr 12.581899097622864 11.45655810655176 14.397854639329152
Cr 8.805895855961358 13.432315447497766 11.250484146648374
Cr 10.570272214611611 12.766567139584106 13.346885145912513
Cr 13.05926800483362 14.016694143278368 13.416603313635914
