52
Energy = -406.90543821 eV
Cr 6.4698261210967685 10.632972534879443 12.155377452010898
Cr 10.055367317463238 8.948231918920797 10.7148932285161
Cr 5.100860693583121 12.192991043104223 8.32398771050883
Cr 10.247729755099078 13.266666333519149 6.4848366185893545
Cr 9.517654409235561 10.192025506211921 8.521920878430711
Cr 7.251074176323038 7.066529437782271 8.490575187698642
Cr 9.495347601312817 5.423557285380967 8.723399302783124
Cr 10.757955738891246 11.505312491266107 12.636772366525534
Cr 13.305006739901492 10.998388463701264 9.140708659240593
Cr 8.995655577789584 11.317736842185656 6.506422502094143
Cr 11.872436510565066 8.99014046551954 8.947759221554053
Cr 11.64117422634209 7.054066023168134 7.61315659264783
Cr 8.609741568394696 11.070557464797886 10.78193720485025
Cr 13.137052321143697 12.4583294203512 6.540055822969761
Cr 11.040808347195949 6.389820136067337 10.06616637000442
Cr 11.007176529964166 11.025944936598455 5.00890255988904
Cr 6.588248419839428 10.849758933990312 6.016591884986688
Cr 7.615993654114281 13.274598673222156 7.223100748743065
Cr 9.35684306284446 12.756679209110851 8.72157141629858
Cr 7.711906518479729 6.237231316854269 12.810591701006494
Cr 5.79977889336124 10.66446772910079 10.502768223779993
Cr 8.607318924121795 11.934476655027137 4.231825040468492
Cr 6.587592301612184 8.340940047527042 13.74860505995305
Cr 10.097342909902608 5.534021038116758 13.795307759011818
Cr 8.432146958168412 8.726025545795672 12.176263870734418
Cr 12.439405954006995 7.874722539310526 11.49605737857147
Cr 12.010286120249502 7.406224345523175 13.951058312314512
Cr 11.470315081214496 11.38458812168157 7.449477663141023
Cr 9.526914595050787 7.673268247517614 8.427375025488232
Cr 7.141253216060041 11.28016217792787 8.370618849349025
Cr 12.224419580003328 5.386025491407148 11.96532510843947
Cr 11.64171438961968 13.44806841009518 8.91712712805222
Cr 11.176518325961162 11.40401181689301 10.073701399152393
Cr 12.8872021183549 9.474883653850542 6.832743984169251
Cr 8.405371724543366 6.62305113621479 10.593909167900355
Cr 9.025830668739479 7.050363462403695 6.2245808666009115
Cr 8.71371240614139 9.450934835370191 4.787533051599743
Cr 7.762602301187667 9.004844143686611 6.947211904293124
Cr 9.782993101827278 12.993626093661158 11.159861952901615
Cr 12.543464994540633 12.633080184714874 11.579059825916344
Cr 7.280349378447069 12.917778216388392 10.104715239333604
Cr 8.729480135968371 10.719089022705015 13.41654975311133
Cr 6.215394552805342 7.994404382806681 11.223125293272687
Cr 9.14920196946601 8.000366900851782 14.485263033470632
Cr 5.688718751383431 9.311370864972561 8.27324137897588
Cr 9.57856589829731 4.643385431092512 11.341117872476937
Cr 10.515348213401138 9.069199039358729 6.452849710638373
Cr 10.18814468306716 6.932326150987 12.292919617528025
Cr 12.41578653779289 9.93147512559687 11.582565113319527
Cr 11.312410577572399 8.087528986543873 4.724710002139188
Cr 10.884564887810969 9.120694487437575 13.380073029022848
Cr 7.598248740543415 8.943315459605744 9.673989136330222
