5
Energy = -33.82243437 eV
Cr 8.791778608249356 7.537283547569852 6.336338202848865
Cr 7.92829208459822 8.99812757781722 8.876163631419049
Cr 8.671687766490807 6.741068501288659 8.591079934683933
Cr 6.7420911358658335 8.695061063998494 6.821259857605549
Cr 6.3751721734187 6.56903615306133 7.868883047775359
