52
Energy = -409.44744197 eV
Cr 14.266339435564785 13.005253575595512 11.978957385865959
Cr 13.327655172341403 14.590534937374155 13.619194569403495
Cr 14.93174655934867 10.408034236735134 12.02519567450918
Cr 13.532046881765934 11.48877493182274 13.903608512501423
Cr 13.439111328570055 15.583952143348053 11.438224286121645
Cr 14.285054188089523 13.901239110466078 9.750001733237358
Cr 14.104652437824827 9.166520431166868 14.273919493506426
Cr 10.940114043491969 14.986038766625605 12.575393637991315
Cr 11.898638832319111 12.845189369758252 12.411275162156722
Cr 13.125683568500378 11.388534310206147 10.39113386859907
Cr 11.589658240742336 13.14505574831434 14.78707824240035
Cr 12.645841122500387 15.669679569746036 8.779736477187525
Cr 14.989334710652583 11.461391806496225 9.389823382431615
Cr 11.22082274361334 15.957038961103377 9.951845569303659
Cr 14.003003294776246 8.135837295442881 12.513043692263214
Cr 13.00199873171782 12.932266800747538 8.029202636835262
Cr 12.10440971218288 10.371898721888998 15.745293937365624
Cr 11.979233345627101 13.64360429094907 10.297037302093392
Cr 9.33548955319553 13.07651015055934 13.292220995308188
Cr 11.846153538081621 8.394935162765572 14.09897587252491
Cr 10.773616807609965 11.873217476790781 8.953097322991873
Cr 13.54751946690539 8.867161723820711 10.194883186548132
Cr 12.35460380994682 10.042393778485144 12.387196128643891
Cr 10.405700000689166 14.074274170748525 8.124151855230988
Cr 12.453849389398298 10.25498271121991 8.174036452604021
Cr 10.346757012071162 11.574653079623923 11.351899808630893
Cr 11.223154464246582 9.55646270463961 10.143890289443155
Cr 11.026045972322562 11.649636708989386 6.433153974088888
Cr 10.732489559483877 10.930251712232527 13.9581953585687
Cr 10.067511786401745 6.661683059849771 13.739499943367614
Cr 11.551993231513928 7.499863330076699 11.586254266286256
Cr 9.217108507044735 11.718444960940786 15.394012268273999
Cr 9.595682534662926 13.794066862053285 10.676026710796515
Cr 11.33540757238212 7.677417651581795 8.583152831237314
Cr 11.318227532135946 9.083843298891578 6.432093310153181
Cr 9.941184600682456 8.984279467454623 12.296396655073863
Cr 9.672407414396456 8.984964226190042 14.906985972001761
Cr 9.200807527851735 12.014931999424702 6.630672594798714
Cr 7.849314645096876 12.64545856574328 11.494325014955395
Cr 9.742963377564054 9.795454999196023 8.143141418090341
Cr 8.402037792784148 12.266898592844914 8.987673105016928
Cr 8.606613574590137 10.295456781321999 10.362213562340779
Cr 7.864534944193875 8.29798602885449 13.846198620026787
Cr 8.46924585100754 10.57714025558145 13.027704968645264
Cr 9.426441204479588 7.723793048273595 9.950395465579467
Cr 9.16842368723869 6.3647035360039474 12.116732047609606
Cr 9.040005050644968 9.553901705506721 5.61275108480161
Cr 9.086352510704154 7.698828108705777 7.222095384302993
Cr 7.4555322082134055 10.297013235330551 7.785760504350234
Cr 7.608491483241174 8.349176957613466 11.554581119186851
Cr 6.357748521643684 10.555911802902 10.030525767696979
Cr 7.542087015564748 8.29467947480251 8.85545215915369
