6
Energy = -40.22575226 eV
Cr 8.755524674453039 9.85890131322253 10.402135675176366
Cr 10.283207006100405 8.199572192331564 9.778369612990156
Cr 11.801527374262388 9.027551108771958 8.260594700703642
Cr 9.284553150344554 12.673586204673539 10.17771342946894
Cr 7.657499099710543 7.719545447700002 10.78523093283468
Cr 10.561460868791771 10.947237441634504 9.243552109395631
