6
Energy = -39.64210488 eV
Cr 8.178534540824277 12.09142675356393 7.646417128862035
Cr 9.408883241951555 5.706815273345157 10.390846421997686
Cr 10.512329836435828 7.757150488957711 10.294949703824646
Cr 8.640621143372712 7.93849548880072 8.817113952821407
Cr 9.38317299632454 10.026741038957452 9.102455186435286
Cr 7.589213619807663 10.192126335091746 7.460972984775523
