6
Energy = -40.7072828 eV
Cr 8.438200499324553 8.67959932427554 10.26679348998908
Cr 9.93353614679392 9.946974685825639 8.343488897618622
Cr 7.995757037684 8.443639030943507 7.977273337367618
Cr 9.670575685831357 7.518331135286981 8.311840600018122
Cr 8.007105881464556 10.846352277861191 9.405496537750732
Cr 10.610402492147086 9.220681289052866 10.350685137255814
