6
Energy = -40.06345387 eV
Cr 7.770874701809417 8.522585119274677 9.911923024252998
Cr 7.405058210063203 9.582455871386244 8.226806444186598
Cr 7.466790901789276 7.398795428741283 7.743702494129689
Cr 9.194005868790663 7.293620955250686 9.163383512929167
Cr 9.617262460845673 9.409063873501623 8.55172882508959
Cr 9.076552856702135 8.324023751845601 6.9330006994121955
