7
Energy = -49.32914867 eV
Cr 9.4778668325598 9.703827109031614 7.77930152993881
Cr 10.653555961058622 9.451503106639453 10.257564724004213
Cr 8.421552049601075 9.870998761803378 10.043333765914316
Cr 7.297390036708923 7.777483147443134 9.61333605774602
Cr 9.597221044515654 7.60154483489214 8.870702161949284
Cr 7.148730802476695 9.143934817420773 7.637290480434113
Cr 8.372911574125107 7.374554902896032 6.7861880160540435
