7
Energy = -48.36248418 eV
Cr 8.515679597933923 8.96647546698369 6.273096498477739
Cr 6.5911268666151095 9.665796080572647 7.245502727995656
Cr 9.012838160818788 8.733487997360244 8.60282330764126
Cr 6.542681811832551 7.834262625695809 9.304682316923612
Cr 9.576470521805675 6.67817351843457 7.630027124306214
Cr 7.404333351026994 6.901565753153395 6.879301825926555
Cr 7.7636960468852 6.5767104116489135 9.4774415505266
