7
Energy = -49.60797556 eV
Cr 9.066615197829037 10.815573148355696 11.062899398663083
Cr 11.663937208985454 9.780310558722775 8.966411056702139
Cr 10.372257898178027 8.766262077515318 10.763613889913412
Cr 7.639151243572048 9.061159608072185 10.08317111702753
Cr 11.405688364036864 11.39328467020735 10.538021500032565
Cr 9.234832580129444 8.280148924842448 8.671211614462603
Cr 9.431923292427317 10.69906372029522 8.643636296923884
