7
Energy = -48.27019031 eV
Cr 10.075869934358577 9.018115985214584 8.104685578872683
Cr 8.468125249931354 8.646261453307648 10.06650563826089
Cr 9.27828811046709 7.4078799351081255 7.943144649567869
Cr 7.663866890476661 6.506910266185722 9.696889773913691
Cr 7.710584230091868 9.997271304137303 8.377207388650595
Cr 7.911066817784665 8.363352414160621 6.021247202381181
Cr 6.617933958020395 7.916938852764219 7.971009580988855
