7
Energy = -49.32863018 eV
Cr 10.642186798706874 9.804470256905905 8.156896383242334
Cr 9.934738200098376 8.66016414890163 10.619397388990727
Cr 8.733951148141575 8.371564486877105 8.540614485741663
Cr 7.821504419322504 9.70348223754077 11.14663345273111
Cr 10.08546058460653 11.002199009289724 10.274688239647803
Cr 8.084560081538632 10.624826176800989 9.024602033947987
Cr 12.22639926758605 9.362094121033781 9.765968578348714
