7
Energy = -47.72527713 eV
Cr 8.838152825983096 7.310822118120646 9.877436471660511
Cr 8.320917365627166 7.5937229790709795 7.7901068104202205
Cr 10.701112280980897 8.413394566092789 8.51511376617548
Cr 9.189568150273844 9.39085455440978 10.054738268762415
Cr 9.789442162621393 9.581576014894907 7.437748244690514
Cr 6.803108049431329 8.69815055637998 9.227146764467648
Cr 7.554730510563956 10.126115946445127 8.34568401521022
