7
Energy = -49.60757055 eV
Cr 6.711061761000947 7.026852899270559 9.563907932355153
Cr 8.521533248624063 6.215149799123717 8.422163021632754
Cr 8.696266034882406 10.293908681962321 7.322330461045663
Cr 9.805117429993741 8.338012709857852 6.973869824221992
Cr 9.190726743197693 8.361096463408977 9.329878405063589
Cr 6.996248737992933 9.330673562378914 8.803574417903445
Cr 7.435401044308124 7.790660883997677 6.940630937777295
