7
Energy = 319.89032587 eV
Cr 11.132018355836593 10.905025418797285 10.985271192726135
Cr 12.089610490293238 9.882614136024175 8.795938874837361
Cr 10.021579424295131 8.981986051573577 10.211756862340462
Cr 10.09252694838646 11.402008438892231 9.568583826308771
Cr 10.774949091045869 9.2826792401668 7.904686653980783
Cr 8.708814975221108 11.051802691316881 11.443960681093975
Cr 7.508521796352129 8.413620857468455 11.224606437099549
