7
Energy = -48.80628094 eV
Cr 9.608136955054054 10.969402455884564 9.251292972182945
Cr 9.514081248432115 8.08373781149391 9.915264606144564
Cr 7.677098980308413 9.629465945411939 9.769165103812078
Cr 11.28538479330468 9.694852346228565 10.540425964219189
Cr 10.56076448874009 9.136904510264308 8.027533635785298
Cr 8.25752005182209 9.103959618548615 7.563478379462643
Cr 9.676668911561096 9.96133274139041 11.51249476761544
