7
Energy = -44.88338808 eV
Cr 9.699534065162299 8.007183621831233 10.5878291909813
Cr 8.6945013 10.14813275939713 10.802704717486671
Cr 7.689468534837705 8.007183621831233 10.5878291909813
Cr 7.689468534837705 9.381818978168642 6.8011734090187
Cr 8.6945013 8.6945013 8.6945013
Cr 9.699534065162299 9.381818978168642 6.8011734090187
Cr 8.6945013 7.240869840602868 6.58629788251333
