8
Energy = -55.32195794 eV
Cr 11.692271508929654 8.71272197610005 10.43330281167384
Cr 10.943046433467192 9.686465254020446 8.20843796566653
Cr 9.887669446759105 8.279236711447613 8.69178066857348
Cr 10.177956849287705 8.10578760470028 11.182224755459936
Cr 7.980019865643531 9.243851607901657 10.269082782845445
Cr 9.890831588395406 10.597914792608034 10.331354317434535
Cr 8.215350059065335 10.212552583442715 8.160000825573
Cr 8.157971952674892 12.065857788712911 9.665103046413622
