8
Energy = -57.34868777 eV
Cr 9.883799370100576 9.707226094037093 12.884565252849
Cr 11.655358530889703 11.136482604853022 12.092745416557932
Cr 13.104189642897998 10.712286996540211 9.686012267985378
Cr 9.557381221902533 11.974084876950123 11.25783663688543
Cr 12.01336173996529 12.686627015907705 10.12760110891703
Cr 10.399223231296842 11.252250288756041 9.145402327865229
Cr 11.231565897638545 9.376399828565429 10.40475630179378
Cr 8.781844566297961 9.764964079141738 10.870375515050727
