8
Energy = -57.45098239 eV
Cr 11.038592651324544 9.606434934482044 8.425457951248324
Cr 9.874744811010725 11.610034428212698 8.586688986273401
Cr 8.256849989694873 9.827024664120364 8.786290018719015
Cr 10.77248911496759 8.08659766957215 10.760726740946863
Cr 9.452978991209044 7.815824106997979 8.810528653930964
Cr 11.233002863133459 10.364744444218317 10.693572902813417
Cr 8.678155728628353 9.258953659920307 11.076824109456
Cr 9.11617845724339 11.531527451417219 10.82631294220573
