8
Energy = -56.92378224 eV
Cr 9.525713430953566 6.476134143024214 7.740988402593978
Cr 8.453397397406578 7.047368364801088 10.384844050508347
Cr 9.276122276922974 8.584025752810645 8.822921013305555
Cr 7.175171186557981 6.7437100231373535 8.252161865689649
Cr 8.634175272740762 7.723064840111279 6.007540421220758
Cr 6.954708196504087 8.97551144310353 9.079166032566148
Cr 7.55947366477073 10.14075788586387 7.146891372526202
Cr 6.3456181972061785 8.252399996619944 6.510244573712249
