8
Energy = -57.34691484 eV
Cr 7.93178681744133 8.214540046413527 5.027473402184459
Cr 8.035928224635885 6.053706631364667 6.860157554733513
Cr 6.087658157252162 7.5077945516508375 6.396086294593975
Cr 9.431597385994646 8.153537326197238 6.7862380599600085
Cr 7.4264136681354715 9.063467388167618 7.656618739835249
Cr 5.6349055284547545 7.319141195332987 8.887261269410157
Cr 6.162469063874233 5.226343956435843 8.106039169794407
Cr 7.999604709997454 7.17183246022321 8.99048906527429
