8
Energy = -47.00377089 eV
Cr 10.481293111442085 9.015755273037955 10.089051350237202
Cr 11.36942593788634 10.762750112577052 8.450646692092837
Cr 12.601650545854785 10.663753981161204 9.888265589626354
Cr 8.639455155011905 7.237229874665159 9.871557780357751
Cr 7.624717235626141 9.47061378432633 11.423307079561408
Cr 10.515769797898123 10.493915960686701 11.509023087166284
Cr 10.915790967507014 12.52261647690049 10.271749363438227
Cr 9.046522416615298 10.987706925040063 9.624635904482227
