9
Energy = -64.79231425 eV
Cr 8.655292342941031 10.86595761111942 9.426975808519574
Cr 10.751162958157842 10.023470809970076 8.48844190323833
Cr 9.119874433751091 9.962512194407594 6.713079712846543
Cr 10.500860068905455 11.03461703692712 11.12010092928359
Cr 9.016021701764295 8.833557650912292 10.587637687639486
Cr 7.692535791744192 8.860293470158195 8.186496195036177
Cr 9.741162571875813 9.622796375979402 12.83090435476969
Cr 11.341093704092147 8.83162341325269 10.624760381123933
Cr 9.822720440296198 7.813838190547498 8.476168674665177
