9
Energy = -61.6426361 eV
Cr 13.586907758137784 9.593325656998813 12.083663238641597
Cr 11.34369828551878 8.6638652671873 12.212046110432544
Cr 9.144636206869558 9.977481740591989 10.992021207483802
Cr 11.635567486662337 9.68539195379403 10.132379745288318
Cr 13.687847153203732 11.109748345075012 10.407519161990049
Cr 9.714083784656381 11.54635998817452 9.736714957330339
Cr 11.382021844561299 11.072804336137251 11.544227771908924
Cr 7.195807878250421 11.263017976444358 9.622842790829218
Cr 7.63621290203283 12.724171991935549 8.77501300953713
