9
Energy = -64.83769906 eV
Cr 10.54536042871009 8.882297983749297 6.60720517912617
Cr 8.183123033830952 9.992275834363783 7.502319890511096
Cr 9.788399914149421 9.092356512036135 9.04871663117958
Cr 9.141740129444377 6.989276027779166 8.045190418756482
Cr 9.131186537999227 9.421003136295985 11.746414066337502
Cr 8.344712796960316 8.091744361995344 6.067387671827454
Cr 7.593466337208428 10.072314529610367 10.185646193290204
Cr 7.1363234598589305 8.168256427668304 8.741103384501326
Cr 8.465393512976826 7.498176258474873 10.669409576867299
