9
Energy = -63.84075022 eV
Cr 14.201842937342793 12.697475287281868 12.618614831049175
Cr 11.910183190820675 12.697411059619542 11.497816281988896
Cr 10.894422466708765 11.106120679128756 12.869084035006024
Cr 10.792733918281714 11.758465755135967 9.636342789073934
Cr 8.820290393844394 11.012248491166373 11.135449178050651
Cr 9.194233591307263 12.705228900229999 11.501903978202098
Cr 13.282811695873518 10.573010380818928 12.67051668617289
Cr 11.219146062909957 9.8681950471739 10.866687745513685
Cr 13.382494950083817 11.144130315043792 10.375766948614517
