9
Energy = -64.85411353 eV
Cr 9.510557410438095 6.355831393548022 6.233923137179198
Cr 8.777794498282482 8.22415527864227 5.427183881895068
Cr 7.959748336122787 6.264908882006809 8.341506412582701
Cr 6.8288795051088975 7.110482388447342 6.307283372019608
Cr 8.294137775706245 7.601193298575471 10.557227014468483
Cr 7.59495958827146 9.498007634708946 9.872389870550636
Cr 6.11378014571086 7.848591512329995 8.858098539249056
Cr 6.806027178912832 9.380286097972993 7.146172466722235
Cr 8.811236087179456 8.41366403950113 7.953335831066131
