9
Energy = -64.33072011 eV
Cr 10.781131208028519 8.085528104224084 9.388556303262536
Cr 9.900198447638202 7.325279210212031 11.3129142494271
Cr 9.55183989513763 10.68462910254769 7.943289002362476
Cr 8.921293964017469 6.596999756253457 8.683975506565387
Cr 9.235931284538474 8.0946621107526 7.007049099453965
Cr 8.69884152507034 9.215004111564006 9.465854049828895
Cr 6.925042894252501 7.904504887731055 8.494564274377117
Cr 7.459917702714551 9.76329336242685 6.920654970643205
Cr 6.901754733004827 10.753343909692845 9.074210964276336
