17
Energy = -33.19647237 eV
Ag 8.501124556107106 10.988940812970718 11.415152791285246
Ag 10.387900883088681 9.644512528849459 9.639222896948262
Ag 12.543190403737096 8.564788726203473 8.227115452622877
Ag 9.712862784244834 8.038078243902854 7.511510589920381
Ag 10.957794949968829 10.631338426880282 7.067485344890976
Ag 10.93269993287318 6.8879800390832875 9.888152298134926
Ag 12.680390548679673 11.243415015216238 9.305280445067872
Ag 8.267798413728203 10.537233584012508 7.663689466599169
Ag 10.054857040778327 12.380018967884563 9.371503123172735
Ag 7.245883361305579 12.434625578676869 9.412417186781
Ag 7.2192297387093936 8.678629460592783 12.2493825794399
Ag 10.026598490069334 8.623006711818036 12.182726298439928
Ag 8.247528753606431 7.501287235098444 9.953167796602102
Ag 12.667295167251329 8.86039592284581 11.093423843161796
Ag 6.907576172732328 8.110653973421355 7.594963896100456
Ag 11.265220866618671 11.230154004000976 11.766355545273619
Ag 6.502504436500991 9.765397268542614 9.778906945559019
