41
Energy = -88.37890322 eV
Ag 10.587273655895828 14.278834917034954 8.825224119218799
Ag 15.34965878673862 12.843074099534206 8.783741765420288
Ag 16.143512879301962 15.49174735709038 9.425665262906762
Ag 18.049680595977506 13.45310889793184 9.138611439071685
Ag 12.597806483581191 12.22978693780295 8.395794687782328
Ag 13.362407823656637 14.920790456675975 9.062096313042618
Ag 9.881759545810631 11.56301810353842 8.08095299987647
Ag 8.970590177797984 15.566947661210687 10.79979240405406
Ag 14.326736541489817 10.365793036982856 9.704951165779013
Ag 11.555192580897785 9.714245664757037 9.394766975314965
Ag 13.55561764778996 12.85772793363823 11.068613528158826
Ag 17.065266467496137 11.026021143647467 10.161759588688662
Ag 14.444903005963596 15.531162918979854 11.666867398152093
Ag 8.817848136048681 10.100749889698282 10.252622302471291
Ag 16.383114745092044 13.463373762764453 11.42203866840517
Ag 10.801598408170861 12.203138615083178 10.731435567291541
Ag 11.621658982411816 15.04842810804437 11.36778849363123
Ag 8.194910612957832 12.946577123060514 9.993964231923425
Ag 13.300131221718775 7.974637723927643 10.854277305629383
Ag 10.02227939808005 16.060755489772525 13.485329411030651
Ag 15.99349128833633 8.630681503255788 11.105297135910986
Ag 12.786232288369217 15.606529083763823 13.893645939548124
Ag 12.54311677342848 10.313377040992876 12.10712870178326
Ag 8.930652152440206 13.558649324980506 12.695252181478326
Ag 11.73925979466826 12.859280000769127 13.316134692962613
Ag 15.323948097258283 10.982455005738105 12.447902127406673
Ag 10.524660130901976 8.213317100032969 11.566442623538302
Ag 14.596213207812664 13.437918746478472 13.68774489879807
Ag 9.796281678886107 10.738012955192666 12.94903278044024
Ag 7.144793699054448 11.389578128114605 12.161618307264987
Ag 7.882144791030066 8.666430635040397 12.577015288694966
Ag 12.21026356938143 6.514113191715076 12.961213704115421
Ag 11.288948709800371 16.133933107643813 16.11472651066652
Ag 13.479259597164534 11.026581302859343 14.68011051960442
Ag 9.874222905332367 13.925404896536968 15.348929623714415
Ag 12.643772845761836 13.571532485271325 15.882494354023926
Ag 11.602467385980637 8.846945713324194 14.35489214167999
Ag 10.812856356359921 11.286183828527983 15.628537354824736
Ag 8.05621831445878 11.855462279541749 14.83593825406098
Ag 9.571254062585837 6.842395726376735 13.862046147219203
Ag 8.872480501368 9.19555917981584 15.171338959328747
