19
Energy = -37.55112691 eV
Ag 14.717592924410047 10.090891882010254 8.788720976417492
Ag 13.917570083386094 11.797081807651775 10.840818845505536
Ag 12.150534748125454 11.039701095165134 8.730512644921095
Ag 11.103164898345408 13.681059980270001 8.563368768902158
Ag 12.682022311592426 8.2937943532104 9.220705983407145
Ag 11.259808790496962 12.516518089592328 11.02811831353651
Ag 12.562941215307589 11.84778163485211 13.353712151022247
Ag 10.281586627466856 7.709879858642567 10.416707257753368
Ag 12.130786336721282 9.750617770982547 11.518585627239796
Ag 9.435539902032733 11.538928949555446 8.77271910279774
Ag 10.286389571721141 9.046989476945702 7.980077097953309
Ag 11.131105899275385 7.739525267149635 13.076022478890021
Ag 10.27916056731738 10.300383856337902 13.647682140107335
Ag 9.831327933118231 13.043696671607483 13.29737643444972
Ag 8.83581827795635 13.731127267789915 10.516679405560186
Ag 8.523549886846661 11.20905499693745 11.65440988493666
Ag 8.041227546064286 9.247315023174439 9.700432166689284
Ag 8.507653828401631 8.515232659599953 12.36009757600997
Ag 6.865437822259125 11.871030655376083 9.507475408367466
