35
Energy = -74.48802485 eV
Ag 14.07549518618911 11.967071050905785 8.24206648455629
Ag 12.310640287313918 12.228128901822355 6.114763316763936
Ag 12.39341540430241 9.758180676352836 7.478730283530813
Ag 10.570832981460342 10.168874919984537 5.364173247887622
Ag 14.06165133151919 9.557659248076575 9.753406842366124
Ag 11.524235792863076 8.416025971260702 9.843324151393515
Ag 15.743088903954712 11.666617061652317 10.514113543536581
Ag 13.285051475939749 8.225432837676648 12.13385257742021
Ag 11.788965821675733 13.790146837429697 8.395402217563324
Ag 9.971552644108485 11.727769204715043 7.613877308798782
Ag 9.69917275878234 8.881394167683863 7.68512710649681
Ag 11.761699925617654 11.337045706714562 9.88558747598259
Ag 10.555872818977145 7.132928492773701 12.27239203322452
Ag 13.66544197289065 11.032052439163387 12.211801162472977
Ag 12.326133026028778 7.003583002840247 14.434866095019473
Ag 15.276342214140419 13.2196598230195 12.89298558210113
Ag 8.894676925250346 7.5561325751631685 10.020415530416624
Ag 11.001108521457441 10.015967356023861 12.28439972591236
Ag 13.620736167452502 13.562216030508452 10.600105554095935
Ag 8.99042763055202 10.385592287286771 9.942377089244816
Ag 12.804744261443611 9.736765087046443 14.57344995698724
Ag 10.084308748965757 8.647442943278078 14.663398336658881
Ag 9.492032436995908 13.212175263901988 9.963698166563898
Ag 13.13508057877104 12.571567954797194 14.564166095826534
Ag 8.37064217766953 8.998511416074779 12.351843694051398
Ag 11.291786489598215 12.838237567308479 12.284134900536609
Ag 11.328455462345099 15.268500911233142 10.745381534823647
Ag 10.556915498656885 11.522589218161196 14.807921550881947
Ag 7.95918054490708 10.489446042145875 14.675097241371114
Ag 8.478757339679603 11.866208176383989 12.274622810470557
Ag 13.108795107089861 15.003908523483785 13.049205707260434
Ag 9.089314073185294 14.663189830999514 12.35435442347189
Ag 10.89227314155028 14.37987780426457 14.71744131601059
Ag 8.329974362870097 13.260955188948822 14.696266352678343
Ag 10.870931706341214 16.68123582442159 13.13851089494533
