27
Energy = -55.34286487 eV
Ag 11.30944075863194 13.381328036143884 6.996989765614921
Ag 12.229670991390662 14.86676310282363 9.365001921036805
Ag 14.396693433441044 13.631500797393644 10.619701026102758
Ag 12.87862991145098 12.100886306288512 8.80604875803232
Ag 10.52745794411685 10.675641310719383 7.895829707912042
Ag 10.018658284384912 13.029697741582106 9.381877719982313
Ag 10.058865757622552 15.296866745220964 11.085417255829462
Ag 11.885622220593778 13.250663871070257 11.766989630940547
Ag 12.803582272894134 9.149196989857058 8.68258365648634
Ag 14.128086863378513 10.604858296326205 10.696398756081072
Ag 11.14905215338157 10.70592660604492 10.665687284123946
Ag 8.414987181782875 12.968800372964413 11.576049647084943
Ag 8.478871519288168 10.564629535292873 9.911484873913318
Ag 10.130594597168093 8.324693773983439 9.38183747203573
Ag 14.473658423558915 12.146247878311115 12.998986548748256
Ag 14.766820933455799 9.079778212707211 12.882330799318753
Ag 7.550225222698866 12.72703852013919 14.19393362407825
Ag 9.837840976238637 14.309219313818026 13.699015716693909
Ag 7.4999895854709955 10.376212591094076 12.521203460812892
Ag 12.222497718724386 6.451669444992092 9.281844587112928
Ag 9.935930908317372 11.540768151857488 13.434493193010624
Ag 7.8187550969035025 7.987434790309983 11.119010431053345
Ag 12.174755237027954 12.902122403300218 14.49322016452354
Ag 12.52300600019794 8.181949431536811 11.373459723482297
Ag 9.979532199613374 8.876081341207913 12.507571398201453
Ag 12.377191916029064 10.349494424179955 13.198228269226917
Ag 10.248760500107894 6.348662341115261 11.33577514926838
