26
Energy = -53.25408843 eV
Ag 12.38429887220628 12.7568052251101 11.790024301912817
Ag 14.394938614052373 10.77140033090532 11.768637574540305
Ag 13.32111701678719 11.628522445793237 9.235176025108965
Ag 9.889642124482494 14.076850485829054 11.501967492354296
Ag 10.194653263733441 12.13359673802329 13.517001209242181
Ag 13.944994343544545 11.481556626090764 6.584736394743657
Ag 11.99911069065182 10.165633381884007 12.995932299583142
Ag 12.90424894821281 8.988127489789527 10.261493185307563
Ag 13.82032374137487 8.14634091151387 12.774926445196757
Ag 11.570965431512407 13.835319667040071 9.310105547452881
Ag 7.530092524437779 11.263623162423114 14.25097064306815
Ag 8.216515928084066 13.953665502710788 13.787901480216183
Ag 10.721409340732853 10.911943913510305 10.462021451813063
Ag 11.114423071055668 7.647869492741673 11.998336859735906
Ag 7.969563227138479 12.040294129385805 11.620232905774625
Ag 11.310284051257717 12.042939869106936 7.226398220655686
Ag 9.07881002772142 12.457868965242772 8.96944300198673
Ag 9.25523826434165 9.62626743323753 12.61444940471949
Ag 10.44285969516296 8.179390451411706 9.329233003705442
Ag 12.299099218683395 9.441247420562826 7.502664121473154
Ag 6.595390290583515 9.367173179609264 12.33036440287837
Ag 8.009816567883378 9.913890923399574 9.859936862069155
Ag 9.472516160908347 10.045380308978972 7.433893615903884
Ag 8.045682912722667 7.621929981475126 8.115795041405848
Ag 8.271509326238373 7.439124743026927 11.079248057117242
Ag 10.45127590999378 7.519783331375579 6.640469605386338
