29
Energy = -59.86689129 eV
Ag 11.40142430469487 6.721783164292228 10.398768358508566
Ag 12.964132254594276 8.073704526071277 8.555081527979826
Ag 10.993625281372431 7.903221374106557 13.06186788560352
Ag 12.68280898937562 9.180091939518952 11.202321456002041
Ag 14.148068536058785 10.687990078686983 9.326478334496185
Ag 11.800509882124326 9.307413759788604 6.279824333883186
Ag 12.11479680019211 10.355785536678916 13.772180640543274
Ag 13.713273336838046 11.778711734300751 11.869421593923603
Ag 8.579566005000993 6.505591859719545 10.043353868183676
Ag 10.154102756600016 7.7993731446046874 8.054344000950584
Ag 9.19827421990421 10.257230263483121 6.956967683247516
Ag 9.732619045780785 8.991852852249734 10.730874247286003
Ag 11.341705996143101 10.403851909989157 8.846645791004654
Ag 8.21292855789139 7.574664728254537 12.617798711773466
Ag 12.938071354862702 11.7776322785422 7.002657041310039
Ag 10.884598329890753 11.489442587315422 11.435132694180181
Ag 7.1986377028410935 9.997847670614297 11.44452842799514
Ag 13.178934396692439 12.85493020436693 14.387340638773187
Ag 10.349824815309884 12.798202920914763 7.712119360730927
Ag 8.64710572556704 11.44733634384598 9.503228309135844
Ag 7.606079040622151 8.886096648288026 8.790116548261858
Ag 12.568003494382511 13.073840950990089 9.52196584259865
Ag 9.216475585064453 10.094068866729781 13.499068696821807
Ag 9.924447449548039 13.934435214987971 10.263872422105484
Ag 10.334191341424155 12.58843263345124 14.16566220088431
Ag 8.301211985681208 12.500509814763975 12.174158909427172
Ag 12.089184047229171 14.148215557463535 12.09119889940453
Ag 9.46959082971878 14.947420450435816 12.817518313625579
Ag 11.520792018479082 15.065423772741527 14.688408437214617
