45
Energy = -97.03099979 eV
Ag 14.171334503566884 15.636675243270572 13.257487474457115
Ag 16.31825952907249 11.201212694244383 13.65822582759847
Ag 16.20304238297898 13.76722867904736 12.42244315375548
Ag 14.552038536511263 13.238435669309357 14.714459660908576
Ag 11.911215049839452 16.20895296571423 11.625159973565804
Ag 14.1483117562789 14.5858731106458 10.679396714857031
Ag 14.218868282415748 11.922969770744174 12.002450516480657
Ag 14.767273163566976 12.176097302158503 9.27576092129578
Ag 12.380110921903174 15.007257856743198 15.319651627514887
Ag 14.533577961551133 9.082759589748907 13.438308795386623
Ag 14.640827879589239 10.690595121698994 15.93712928453388
Ag 11.945767763461387 14.998763579428406 9.04243537662514
Ag 12.50231765317585 11.117894180823743 14.161547640480283
Ag 15.171377981239791 9.637783893625329 10.766414205822603
Ag 12.192527961771566 13.688203563681386 12.780350642777554
Ag 12.678484571870825 12.55870970526801 16.723377176380524
Ag 9.94624116964673 15.319136183695644 13.60334799102797
Ag 14.446965225902433 14.554490528860637 7.891848191236282
Ag 12.484934765444361 12.499281298119351 7.365313749849299
Ag 10.442805210348608 14.260265263019926 17.248869498578912
Ag 12.669289322833766 8.610222935303353 15.480349532170276
Ag 13.144519730505774 9.927413772068643 8.834328665673105
Ag 11.99019704279162 12.354709234949839 10.187659279800801
Ag 12.341013834116199 9.844848816888844 11.566619253120487
Ag 12.341894205769748 7.358362998372905 13.004749283194329
Ag 13.025790569079147 7.481550038764686 10.310311443427707
Ag 10.439318203763378 12.907633588204542 14.907725094405327
Ag 10.712758067605554 10.493989155022307 16.284476159566076
Ag 11.926171903223734 9.702810433131585 6.297627524868134
Ag 8.016328344175502 13.966342971244503 15.498837464703463
Ag 10.294053238758037 11.543368800636443 12.357327589552465
Ag 10.331929250766585 9.116378200427286 13.83819766896173
Ag 9.93896539687139 14.262223747001983 10.939456817771342
Ag 10.14681342640079 11.783940148545014 5.877898624848014
Ag 10.447108673929106 10.690398472149504 8.552132012415653
Ag 9.837186601520628 13.399221968696306 8.23749792873481
Ag 10.22085908533281 8.052746004751407 11.16974808011392
Ag 10.946081097514192 7.958651083362975 8.443177348461107
Ag 8.11463701918377 13.189147617278213 12.826756265725693
Ag 8.370602403083709 11.052502533231042 14.630330021440956
Ag 8.435521856834853 11.890225365001392 10.277813064460322
Ag 8.14123626457532 9.71710620742672 12.064960333590395
Ag 9.18285294892469 9.0928901116981 6.547597910537293
Ag 7.892028087260758 11.374006161476702 7.542241116598674
Ag 8.325803797622028 9.019924124949329 9.342251044593748
