48
Energy = -104.44913986 eV
Ag 13.87692815327218 9.51836118361856 8.0193790475172
Ag 13.911752954866268 8.862578445668538 10.697138439735687
Ag 14.028895803447016 7.799199235946881 13.266265021203333
Ag 16.241035242262864 9.909100223928688 9.36689854661798
Ag 18.36862383467828 10.618899255608996 11.017949351500894
Ag 16.41875146103173 8.845045014651724 12.132458318326304
Ag 14.97730148606758 12.176847460779832 8.029022567938725
Ag 17.345378069410337 12.586475745126045 9.398567267916611
Ag 13.007735084901707 8.941314853301694 15.619776607075814
Ag 11.338593891089518 8.677429713849717 12.160295888759798
Ag 12.23039939934763 11.654023912513855 7.369268075702554
Ag 11.400049056997847 9.741624611072423 9.482122194120283
Ag 15.438482179638171 9.952858910033061 14.665519689117179
Ag 13.256790142415076 11.675105956276154 10.206871252815544
Ag 17.74197805244561 11.124324145517747 13.62917385887233
Ag 13.300524245879219 10.481087685962457 13.022929938562424
Ag 15.643670368577967 11.474183941011814 11.685081999014136
Ag 10.449236181688839 12.543387343808154 9.356830181692539
Ag 8.835621244551152 10.276176315206746 10.350790648441045
Ag 8.821047186436362 9.612203690333219 13.014210630921609
Ag 12.900300240451616 14.103739565953566 8.646665935393006
Ag 10.869379606689916 10.330278842277709 14.684289993782349
Ag 15.114455252050671 14.006268136028321 10.356108500786991
Ag 10.730914305161388 13.969049573124643 6.938024452032825
Ag 6.651178183963201 11.32429218342164 12.700388287932906
Ag 8.299440069368192 12.882810956779721 11.15293912093264
Ag 10.854482798755344 11.490337573199746 11.955276254085737
Ag 13.164417064003462 13.23015839632767 12.63209212865243
Ag 10.500543398297237 15.444827462036404 9.343132135739014
Ag 13.19352895505658 11.773429959899525 15.58699873383993
Ag 17.392382935780976 13.567817735383692 12.089031155121672
Ag 15.550183625734315 12.786696389211619 14.248058186152786
Ag 10.613497783929176 14.278446237115169 11.82628744270194
Ag 12.962120455989272 15.70383616311071 10.93140991524557
Ag 15.036623524345451 15.249092900250783 12.940882431218716
Ag 8.305643797031024 11.580993776311605 14.964729573008299
Ag 8.136581624158458 15.667088240058845 11.56350863518533
Ag 10.864974312788654 13.21983833449013 14.425281181555041
Ag 7.401957282102785 13.871854724740246 13.62966667107324
Ag 13.819611845986968 14.56437779316776 15.483345076293785
Ag 10.569035713481679 17.08579328875755 11.708065652304246
Ag 10.334075660985011 11.954859407088394 16.89471235045749
Ag 12.229892482801205 15.877030023867837 13.687071092788575
Ag 12.471406807682854 13.547419964753011 17.65958272499208
Ag 9.404448059174213 15.82352515867646 14.058043383808618
Ag 8.585386878328983 14.10449161298452 16.167747479911274
Ag 11.086405515406591 15.497741736069244 16.26658420339477
Ag 9.938101242489449 14.207439681697588 18.583291236757564
