53
Energy = -115.74850194 eV
Ag 16.042920321529518 15.105856290940812 16.778241038324186
Ag 15.367651732496762 12.522634484984792 16.285173028909842
Ag 13.377828432966393 14.351493954706257 17.406215266697405
Ag 13.319116369241007 11.575412312511917 17.8548706412778
Ag 11.396068468092563 12.778789046009734 16.210023740841088
Ag 11.46482891865924 9.966492666973096 16.46008615923078
Ag 16.777448465180964 13.904296756804879 14.175587608656928
Ag 16.465108784836826 10.93400218184324 14.219515558139314
Ag 14.046689620571023 15.223423432592897 14.88736045769399
Ag 11.232541461105683 15.52927235007671 15.48977459959814
Ag 14.432596302496405 12.709718220766662 13.559666022617083
Ag 14.267089699674216 9.992760036007423 15.723674051853571
Ag 8.938963159312296 11.244708323220436 16.11457339143205
Ag 12.402868400482747 8.274380344656137 14.394943743972435
Ag 15.150369640406662 8.370578845715247 13.562645667843226
Ag 17.06951756363132 9.667255963726175 11.879159941790853
Ag 13.07582089024857 6.822746788215445 12.188407539682316
Ag 9.332199090124677 13.44389334230938 14.454061492733777
Ag 9.88810193804068 9.600246749064278 14.083972182791925
Ag 12.293736590258346 11.088980049926583 13.981734016750764
Ag 9.659383196462725 15.779366073450124 12.997759064660661
Ag 16.305499644016056 12.609030260249218 11.414933136832621
Ag 12.3914646375972 16.65019947349254 13.036013795253279
Ag 14.884324684487964 15.118562091958982 12.224784593151531
Ag 14.289698354059402 10.498757727484461 11.874942033969845
Ag 11.930852223411605 13.88680447576292 13.383986868890595
Ag 15.011920135976027 8.09248106668679 10.692022956093117
Ag 8.394538429231924 15.87016349163917 10.257208359741307
Ag 10.284855825305964 7.177996334219166 12.750697137940554
Ag 13.263056733654599 13.022085903478052 10.972323442148747
Ag 10.565928198129715 11.894436083778663 11.932207225154961
Ag 16.96980075859046 12.782801373032486 8.582075726753752
Ag 10.670295473863755 17.334090127205634 10.895740731565873
Ag 15.943525038814883 10.42879377417371 9.456694186758524
Ag 11.677937606960253 9.288665436358698 11.681943640378103
Ag 15.122754693881594 14.612566282574496 9.453257995544446
Ag 8.060965592786118 13.634797975205075 11.93778264980555
Ag 11.447911389653903 12.160375250977193 9.016094112440294
Ag 7.769701480228522 11.29472904748042 13.540395962064686
Ag 13.163411957251439 16.320969185816182 10.390396784782528
Ag 8.776274517148407 9.520843207708735 11.47236673774837
Ag 10.793962699250704 14.476459772800071 10.687404366645046
Ag 13.166176917457964 9.867888154127062 9.368192029249041
Ag 14.182452050235403 12.282892355005146 8.192212020868645
Ag 8.791023958801693 11.925589264491702 9.766109407673222
Ag 12.426878042114152 14.636862464775486 8.324223001715744
Ag 6.79680685666317 13.751884782453795 9.371328497434172
Ag 10.360375423156448 9.539997292899267 9.079952023037375
Ag 12.10431513855045 10.617054848367166 6.8686949350147595
Ag 6.484154749904892 11.360001846126382 11.036854255057506
Ag 7.546394524412256 9.650731583694737 8.896435580733662
Ag 9.499331526955222 14.13350866607625 8.181129061457993
Ag 9.388710772504252 11.423107522096457 7.10912401049136
