15
Energy = -27.35130422 eV
Ag 14.156692174357824 11.145340141698943 12.100042716051044
Ag 12.327951822010617 9.07180709755617 11.63114231612084
Ag 12.669167016438797 11.27628225733535 9.808023536097506
Ag 12.805485663195217 6.759431702112382 10.13331650376199
Ag 10.599789126987828 11.279921154218911 8.016715276494658
Ag 11.462028906268806 11.590107515788812 12.424771820747953
Ag 11.774779800638306 8.8990028348913 8.737225656810551
Ag 10.247066745315609 7.484201219957132 10.67006008680921
Ag 9.468807606246516 9.779386562653498 11.981325048805171
Ag 8.847388335680268 9.46821449373145 9.1444205742577
Ag 8.959699080856026 12.499993499471138 11.931480863645309
Ag 8.24928882836792 12.30591461403033 9.248288863075407
Ag 8.02720430799857 10.914823169064404 6.954383782917669
Ag 7.575665626063799 7.8825149340343605 10.926104027043817
Ag 7.222474679883289 14.232271001753983 10.780087293441637
