19
Energy = -56.2615734 eV
Al 11.038267510713423 7.968526173432491 13.287089274712956
Al 8.507827756675493 8.192178210496863 11.949594010030761
Al 12.515243008254561 10.363415691351287 12.775797330100918
Al 10.567416883108905 6.7365919149210365 10.821117756256545
Al 10.745175006764844 9.414680602523932 10.871224787296631
Al 9.700541599861065 10.476140608520176 13.080605070419693
Al 13.02602826515666 8.06998638743371 11.31134228964526
Al 11.918509674817502 7.996281430219984 8.842630594841825
Al 9.04304024848943 8.22535771632688 9.138427679090809
Al 13.083797792908339 10.416964538874275 9.96648203193036
Al 8.401404495977012 10.613391665913271 10.614755577674808
Al 11.010225507923925 12.03201780103816 11.173021513504562
Al 10.788707742855385 10.306961718220649 8.298558548684609
Al 8.037265125963295 10.390396000198418 7.737174979164682
Al 12.263249045903862 12.68361550959762 8.629010735784277
Al 8.600848556767247 13.430811276162116 10.700371673290393
Al 6.875340321938309 12.236750522573532 9.1196937691236
Al 9.548947140061701 12.606146451838386 8.303292173636725
Al 10.915445613388641 14.42706707788637 9.96709150234018
