19
Energy = -55.69042685 eV
Al 7.245417384053199 13.212760622768752 10.343698212790073
Al 11.861544980345212 12.744250380492298 10.88572761004834
Al 11.708068104494778 10.033651605377285 10.656868853637295
Al 9.210696012990457 12.417749541827867 8.542682271372874
Al 7.234950366129509 10.669708246571124 9.736439747396537
Al 11.390170990776276 14.04198521378132 8.527811997162953
Al 13.079847331063268 8.864793563139672 12.788881437386264
Al 13.248071107300376 11.419169815656083 12.609660007692028
Al 7.341010997333873 8.091604153959166 9.43119190698964
Al 9.571351923511552 9.82675360789101 8.681658949766312
Al 9.360356744012849 11.546091592322941 11.257157969171933
Al 9.725898959839924 7.2048531452421765 8.968031859730786
Al 10.821195212853114 7.601617974317244 12.99334003521278
Al 11.845679055488837 7.391579270893652 10.547293275389963
Al 12.021474967922769 8.755403496462309 8.234449959920024
Al 10.682144331080718 10.331571025176064 13.148570122703697
Al 9.645274982665777 14.178586326277383 10.562483286822454
Al 9.171116567276384 8.82672282772334 11.296567616013611
Al 11.772931474607669 11.414632176179307 8.291741462890492
