19
Energy = -56.2089252 eV
Al 10.765122419460464 8.522978519388275 11.41581265116734
Al 12.939622773059618 9.666082408185046 12.604902602943087
Al 13.418861944944448 8.281237917006193 10.544969282358627
Al 8.23762841314988 7.552833925253021 11.4045931995966
Al 8.58002523253738 10.254738715867312 12.017393788312887
Al 11.619063175373281 8.59299158202944 8.681450555399342
Al 6.461150993668361 9.262251650237573 10.459185646088464
Al 10.917629900578778 11.282002279751806 12.7814158922551
Al 9.551282426506965 6.927918287647958 9.209214292079123
Al 12.219194820783407 10.808013916609127 10.241505180306612
Al 9.15197644370481 9.622908771725916 9.55430506662642
Al 7.247915006630824 8.083582572427396 8.323412482672918
Al 11.866859439578953 13.247945772328046 11.347376482425199
Al 7.132150363845847 11.655506675005364 9.789189651260033
Al 9.51606823570008 8.622897526176816 6.935507803862734
Al 9.64887471595421 12.219111965700673 10.274346862785064
Al 10.630782472202785 11.07553718762241 7.810237676683098
Al 11.82608905779216 13.196402693307139 8.805020726861928
Al 7.877197630838026 10.73255310004091 7.407655622625559
