35
Energy = -73.32411314 eV
Ag 13.46637888809394 16.01147206360497 13.703874925609446
Ag 9.93990328687952 11.982801115253933 14.69431777219848
Ag 13.05356946437734 14.821886085626407 16.170224893271598
Ag 8.50512703804514 14.312743549951318 15.249554683139653
Ag 13.985152795222657 13.246205572790815 13.88133892901295
Ag 12.96673741123955 12.756630473245613 18.12968915595025
Ag 14.31037654402456 13.447249208163964 11.002345732283258
Ag 17.276978811010856 13.077430762672957 14.677550896439007
Ag 10.245660526656705 10.782580295039823 8.62290886614905
Ag 11.830569074695598 14.973052183067981 11.340994707534055
Ag 13.34031507924966 15.046249226497558 8.92108104644115
Ag 12.617304196670569 11.534188455038763 15.56694146484305
Ag 15.222091997932372 12.835474038100617 16.57198778214493
Ag 9.383299745656734 10.840668211864232 11.35068355252956
Ag 9.837501857196468 13.27257779753483 10.014561277014705
Ag 15.977625229629671 9.249511406552843 12.24120793036903
Ag 14.797394644520343 15.074066654914118 18.247567541873114
Ag 10.650851594828671 13.557490667024702 16.873666561008584
Ag 14.39061718491146 16.34066540801232 11.15524802343468
Ag 15.435289964858587 10.771093520401624 14.78626441051789
Ag 11.592354218419192 12.382828213393186 12.22207670870009
Ag 12.020640588046247 9.910953685850881 10.582818919818507
Ag 13.68104831659493 10.682367895916114 12.705513514316209
Ag 11.14046438065878 14.574390580782014 14.166236478288429
Ag 14.786028931469618 12.657068145354152 8.125073916891566
Ag 13.061357684987781 10.276248719812171 7.914302177505891
Ag 15.863792083018183 17.3832665220183 13.483036965552815
Ag 12.322730577373433 12.50694783009941 9.286387768826796
Ag 14.784731222345442 10.69992571795582 10.122845167277568
Ag 9.022419654053303 13.617978454351652 12.593883840553614
Ag 12.03586693107317 15.328898910911631 18.722260798887593
Ag 16.247273389337323 11.97162026216687 12.32686729161904
Ag 11.099863310237575 9.877690517145973 13.365621474511656
Ag 16.150763966234518 14.765910476332499 12.75942601034871
Ag 15.762627179562367 15.400441297868031 15.514919952256395
