15
Energy = -28.37005321 eV
Ag 10.138634950369966 13.481216445651196 10.444378708020308
Ag 6.83980015275371 11.094154202174272 11.706930154650415
Ag 6.408435917022036 9.329767936340172 9.62869160904549
Ag 9.533803456775308 11.470613290091624 12.196317592303911
Ag 8.651414325956388 11.16174533263674 9.454899126223792
Ag 7.930556667757412 9.34686125233167 7.362323177483955
Ag 11.422552488479294 11.102020646189345 10.081258483970736
Ag 10.499704377876226 10.250893274184937 7.523966087817812
Ag 8.567025852004827 8.914592010131114 11.405801929362639
Ag 11.220075703092634 9.271659282309212 12.233561331747087
Ag 9.98917807772973 7.473159869859876 7.059007776910099
Ag 10.621434185759764 8.32083352883315 9.65591920614715
Ag 13.303293600361911 9.099010484430233 10.329064255661836
Ag 8.112427711221185 7.127042281121759 9.133614508769707
Ag 12.573706912685239 8.345198848165845 7.744053623332796
