10
Energy = -8.86600005 eV
Na 13.025273219947538 9.534929908142235 8.39290694739183
Na 9.691650661108081 9.607686588624228 8.950871733552967
Na 11.389706920600776 6.422277441732273 9.299714966742966
Na 12.013330427796781 12.113257311370889 10.790549751541361
Na 10.349884767024065 12.71480059919189 7.79282717045252
Na 6.904922944792295 10.929490800471195 10.355350159626916
Na 12.046598337102958 8.79170874046559 11.794320436095935
Na 8.860756725010818 13.815693848060375 10.768709064410341
Na 8.684095423351428 7.553006184364045 11.448973943158746
Na 9.427014612440088 10.892177183598992 12.763150274460315
