14
Energy = -12.98390951 eV
Na 9.941461 12.352915927040433 6.411697356925764
Na 11.707901759783187 7.004584978246976 9.608184917700656
Na 9.941461 7.530006072959571 6.411697356925764
Na 9.941461 9.941461 15.018822454521954
Na 8.175020240216815 7.004584978246976 9.608184917700656
Na 9.941461 6.963808198123881 12.828915981724096
Na 9.941461 9.941461 9.022621407906632
Na 8.101659393998935 9.941461 11.990304129532216
Na 7.187587549709143 9.941461 7.122218016124781
Na 11.781262606001068 9.941461 11.990304129532216
Na 12.695334450290858 9.941461 7.122218016124781
Na 8.175020240216815 12.878337021753023 9.608184917700656
Na 9.941461 12.919113801876119 12.828915981724096
Na 11.707901759783187 12.878337021753023 9.608184917700656
