18
Energy = -17.63975253 eV
Na 12.289357834800468 14.846247213417547 10.224405544003458
Na 12.256814677541769 13.170070975150164 13.505130174091034
Na 12.054244397488763 7.902705908771607 11.250164633781546
Na 12.561334175134148 15.061005426382827 16.190006142477568
Na 9.224631814420189 9.815551605070588 10.044270114886917
Na 17.756862418004104 14.274225798774822 12.673029993981178
Na 15.395452623064044 12.889379504962381 14.97846405027703
Na 10.674579198477632 16.175556754896025 13.214196118437414
Na 10.185942518925458 10.14541639595176 13.653190939493056
Na 9.195469140666495 13.237840237652714 11.514801720674743
Na 10.921815363991422 12.340678502052288 8.007183690225082
Na 14.136125145936745 10.011332369951065 8.814895473564086
Na 12.276810581579554 11.386768835840904 16.414218743236326
Na 14.010488800378326 9.902915771892877 13.483061948194074
Na 15.232849881116225 12.632295946123627 11.13753294507935
Na 12.055292037519083 11.279409451365495 10.897968770497801
Na 14.45646324248399 15.80088873002573 12.976725464457376
Na 9.260137078145812 13.367330261564302 15.251886614006642
