14
Energy = -12.75674931 eV
Na 13.066448111742334 16.003715498014078 12.430973783892647
Na 14.991523949257598 13.251055845381677 10.787033251478602
Na 13.453993489382079 12.81086803976129 13.9069021472393
Na 11.232311373609893 13.833232533426322 10.333247341387386
Na 9.939749087604694 14.304037179320263 13.564389361922483
Na 16.1078357790604 10.668543686957435 12.967569276924984
Na 10.898519407485882 11.717434632258547 16.09015421089673
Na 13.024171060977624 12.095065570067737 7.82695529905507
Na 13.438515743982526 10.107600884004645 10.726670062655712
Na 13.020669262314971 9.337008097376012 14.13332432475078
Na 9.74505426201219 10.865971375410272 12.861432062970271
Na 7.825642943144111 13.138774060964742 10.950906876697228
Na 9.912422598564293 10.727850631801287 9.365739383927703
Na 10.878292716954462 7.8026846335448425 11.490947992687044
