12
Energy = -11.1564261 eV
Na 10.401553370298288 10.224394059847452 8.182460353346332
Na 13.271406282950892 8.502612972805679 6.896745158170863
Na 13.963916742416274 11.682067858490637 8.012871082014858
Na 12.921499345591709 9.233993028756734 10.3679310548261
Na 11.288431564110086 12.98872050686492 10.16479225971589
Na 8.188649150152898 11.56927661410781 10.585130092789713
Na 9.570158053265027 8.424691609665238 11.20738004226224
Na 6.035408605203239 8.876649430611014 11.530000306922568
Na 14.476385319733284 12.294474054862816 11.387387783464893
Na 7.852329653291583 10.497908585585654 13.959731385693614
Na 11.392221855028657 10.796576212650942 13.031879763459003
Na 9.301071128759977 13.571666136553322 13.336721788136146
