11
Energy = -10.02667061 eV
Na 12.142813373993611 8.020542015847274 7.083978815330888
Na 9.467983119564796 7.661624578269974 9.43514740220931
Na 11.819657931722636 13.273061532439483 9.05426698527704
Na 13.396410094277691 11.205784493910866 6.831539877668535
Na 9.732092250972592 10.691248625059378 7.649396587243991
Na 6.766278818161066 9.87321712914471 9.438249715603204
Na 12.174496274754029 9.847275751702522 10.182551163946256
Na 9.267752319222813 11.672711695395755 11.024803149620201
Na 6.843965855742257 7.085803279197023 11.787097977168992
Na 9.968081964900119 8.695721931119499 12.726146986314394
Na 6.7118656262991685 10.264406597524157 13.078218969228528
