13
Energy = -11.25223614 eV
Na 12.020642208446652 9.281843057303144 10.1734670371289
Na 7.837670441700985 13.523834318141793 8.81176146306339
Na 11.417065795598832 12.592418592312121 9.192843314646906
Na 8.682105623499252 10.144218977624597 9.135363961543394
Na 10.209309987373537 15.84457565407058 9.988890334781555
Na 9.376579572079585 6.7243758420476825 10.222896774260665
Na 11.794965038561283 7.133465841422583 12.892063259110687
Na 9.342016552641166 12.828764151262924 11.91413880663167
Na 12.640089423224692 14.522922706123643 12.079923688508668
Na 14.800376142267865 8.8775107991783 12.70848245797922
Na 14.526340845868104 11.848586809169058 10.894257808587453
Na 12.0634459605769 11.052453880470683 13.299960094133194
Na 9.08866464301829 9.424301605729413 12.48522323448082
