14
Energy = -12.54328894 eV
Na 14.476286025086795 9.148206057454393 11.702583118766388
Na 14.817784804415107 10.774059263055282 8.546905007858859
Na 11.787822002288 9.218239640656286 9.445403316360581
Na 11.220092571395977 8.759138588718603 13.1755747581201
Na 14.50824928516207 12.716908261222704 11.628203578525996
Na 12.147942172271078 12.969138073223029 8.833675941538953
Na 8.731450601837366 8.187496858524032 10.836839454587956
Na 8.987457896696496 11.303058738873204 9.037361487822507
Na 10.157916133883614 11.198649985050752 15.731596177431806
Na 13.527285599323106 11.039689787658054 14.65217983614798
Na 11.514231669585389 13.769569351147284 13.708192124865933
Na 8.750629518023638 11.40216504541984 12.569793656937517
Na 12.904475946653228 15.74345747132556 11.138633103303565
Na 9.601785779932966 14.406139649652193 10.823080031000421
