10
Energy = -8.26443859 eV
Na 14.090597980269475 8.486793216078839 11.139187579566523
Na 11.289742810381032 9.463319045389893 12.755784654488163
Na 10.518605250785702 8.54376900890553 9.561567365344002
Na 13.137596907031492 10.643932758873259 8.790169223953146
Na 8.490434908458434 10.38493494389057 14.203791388191593
Na 8.043784375246283 9.864759760583429 11.059802616001653
Na 11.690173018676356 12.272856278615295 11.203247766882871
Na 10.272562384378475 10.934826161301869 7.232438969632025
Na 6.930662744634114 10.10862024479084 7.8417738348711215
Na 8.928269543187206 12.70691638516608 9.616697347605667
