12
Energy = -10.50523092 eV
Na 8.858593 11.482132891819465 8.858593
Na 10.636767446322006 7.080418553677996 5.908819254388561
Na 10.636767446322006 10.636767446322006 5.908819254388561
Na 8.858593 6.235053108180535 8.858593
Na 11.482132891819465 8.858593 8.858593
Na 10.636767446322006 7.080418553677996 11.808366745611439
Na 10.636767446322006 10.636767446322006 11.808366745611439
Na 7.080418553677996 7.080418553677996 5.908819254388561
Na 7.080418553677996 10.636767446322006 5.908819254388561
Na 6.235053108180535 8.858593 8.858593
Na 7.080418553677996 10.636767446322006 11.808366745611439
Na 7.080418553677996 7.080418553677996 11.808366745611439
