16
Energy = -14.73878425 eV
Na 14.137055213455847 7.932917411862383 13.378232453710206
Na 16.738470586251758 11.512899191573975 11.792120642685333
Na 15.056354963288992 10.808505785957857 14.686985298871495
Na 13.267002615671545 10.771354582324998 11.478134653699252
Na 14.833287238223408 13.466802112023656 9.866774246746434
Na 14.514643008037172 13.77815294159988 13.400666314221192
Na 11.373908582111813 7.45787102476191 11.640516024584821
Na 12.455754743725176 12.800969074454581 16.125728627599663
Na 12.083266912910416 15.90425250012788 14.92046808358318
Na 11.373195964986868 10.072889291585856 14.357886703011998
Na 12.811050017903165 15.89234805320627 11.571901167511747
Na 11.45578049731887 12.978748373799405 9.601275071687612
Na 9.756181941366874 10.329682536288304 11.215145535298111
Na 10.802767553286872 13.163234206032952 13.04914868840999
Na 9.569703520200436 15.753463422692267 11.03195387080686
Na 7.820126864030706 12.977993749339834 10.649824239975594
