11
Energy = -9.77903003 eV
Na 13.837513769997539 8.476778416837174 11.260825928304897
Na 14.454318233725623 11.709173540463663 12.039556305663814
Na 10.647948246033975 7.809149017172848 10.364343742707243
Na 11.314503742124582 10.541890388431487 12.805710577701397
Na 11.878349535960433 10.882065249241274 9.402448895245259
Na 8.847721951362189 9.650651361615195 7.933697432241261
Na 12.44213976128264 13.612841711442115 14.283717067404167
Na 9.189490968431997 13.303811008309053 12.805439000444789
Na 11.99171849272357 13.877518185280909 10.884409159163257
Na 9.08578296139351 12.947005310067368 9.253111286474923
Na 8.356669836549482 10.275023240248546 11.30890785703076
