15
Energy = -14.2279033 eV
Na 13.337876992340087 9.944514130648807 6.735586890407269
Na 9.754905158278337 11.393057481829027 6.745694538098886
Na 12.336694880070949 12.44788237701071 8.95232114477815
Na 8.882300636216637 13.600390219221826 9.326590491152555
Na 10.843136492833644 8.648118741517031 8.594776173851312
Na 8.02839499758558 10.31400903281403 10.043054696601718
Na 13.801702661075506 9.206154433427036 10.396987657112945
Na 9.187641809437373 9.710206048690592 14.331534656197478
Na 10.859316165283772 7.5249608067692675 11.900124314061017
Na 13.95119380397317 12.158007329619402 12.503000320880417
Na 11.128295982085346 14.551761019295332 11.910489427401908
Na 10.877553480716124 11.007330146367288 11.672651775566525
Na 8.11692973958625 12.89619471245647 12.888533145447903
Na 12.88165692002831 9.30897129010573 14.269717576090075
Na 11.22193274655991 12.497974696298252 14.938469658422955
