16
Energy = -14.8860062 eV
Na 11.290470333168145 8.791817860662901 10.402263114032888
Na 16.033207952598545 12.812092778896224 16.443121632223377
Na 13.724128815730314 11.181265231690316 10.236923543887801
Na 15.173231339760834 11.610898508404956 13.391376934053001
Na 13.528511203039256 10.156630341843641 16.0600035852894
Na 17.945594915365096 16.45626325512023 12.01736214573369
Na 8.741332611724445 16.643466252379415 15.269354951719476
Na 9.707892127032446 13.988227191228557 13.405748007680128
Na 10.210477319982674 12.089515416065696 10.438825706505284
Na 11.995705362961607 16.604701204897133 14.32973154439895
Na 15.31745095533031 15.40283738674912 14.008668702338344
Na 12.784405481030676 14.153356692781331 11.847011321241094
Na 11.667952144337706 10.83557481064192 13.230131837537444
Na 16.162561264516537 13.774131372920053 10.861517390583735
Na 18.194301754938195 13.488769599225002 13.74663804335604
Na 12.675388012657983 13.43139387212073 15.417692044347717
