18
Energy = -17.06252216 eV
Na 16.792220362647807 10.890924692152469 8.165164447869968
Na 11.08342978603365 13.077076457730234 15.485165402801156
Na 11.903781262015038 13.028891481718333 12.044374005509917
Na 12.42851921619639 15.921433202517655 14.080653913789565
Na 15.0624197017383 14.877036804179331 11.911550020241084
Na 20.330560504718882 13.593360114818795 14.837079084224222
Na 17.582172953813615 13.670374415771883 9.902502866479088
Na 17.13315331308723 14.182300250607291 15.873634027027512
Na 13.307294219756754 18.293262827598298 16.540926262693404
Na 18.41662715565279 15.56230225283432 12.747281463358926
Na 13.261602537728354 16.97153823581448 19.709265182303483
Na 15.74387819832777 17.105349422497177 14.44499746205905
Na 14.37288211498518 12.46915716637874 14.413651308392375
Na 13.901375896834871 14.646102126525042 17.157365962733593
Na 16.339920271384845 16.951332952244027 17.950243691126033
Na 10.781720410500597 16.071133064439206 17.28275348151435
Na 17.651505650162406 12.147028988188415 13.10188591826547
Na 14.926591840871689 11.524916454091471 10.954321691382406
