13
Energy = -11.96394105 eV
Na 12.26404752205183 7.708317934401601 11.648103144427953
Na 8.563349408121281 7.5498781452546115 11.686352472732898
Na 10.328425263604283 10.022366014318871 13.804657656076179
Na 10.285059847837049 10.283241141648867 10.290870335412754
Na 10.388421163903589 7.261817552938045 8.482723573136433
Na 13.257236062696611 11.26617213979867 11.902709463081194
Na 13.292248449399523 9.555252877129034 8.611371698228128
Na 7.271551297316398 11.008359413937805 11.969649063764992
Na 10.174143748990053 13.303565826124421 12.09844842732375
Na 12.007088805896279 13.018435469276577 8.89347746988427
Na 10.227252692410039 10.5471706855982 6.779690259152564
Na 7.305026685710846 9.314373458043917 8.682737913470595
Na 8.305394446449162 12.866513970740664 8.933089795144689
