18
Energy = -16.54624302 eV
Na 17.32076546707934 11.586793619727656 14.325035920798733
Na 11.596494296483831 12.804716056510987 13.608289397249218
Na 15.673574230574456 12.491813226396596 17.754718585490142
Na 14.330146836723998 15.874484437531006 17.73071291164787
Na 15.16982935965817 14.503124928058128 9.32672050764699
Na 14.206857842993248 10.4636716119888 15.302208548356525
Na 13.279976980461939 15.419718585513836 12.10616957397692
Na 12.396717846794543 9.349045907624792 12.681975568767413
Na 14.805530464739816 14.019704985828039 14.895119718113229
Na 15.159910647636936 17.345043287345355 14.466563561927632
Na 12.281404008943662 13.106756967464262 17.145613034132086
Na 10.70139193191183 10.262893561008031 15.698703041446299
Na 12.86891755543973 17.17941399575227 9.219819663462664
Na 9.105544583240862 13.34830486270552 16.03337074137669
Na 14.67371218960955 12.019610138926383 11.84828528848432
Na 15.887701576922668 8.89242554067713 12.595534355100327
Na 17.000510739252544 14.645816582061627 12.269242763454022
Na 15.707806162118455 17.63667761084193 11.056358319262964
