10
Energy = -9.03894273 eV
Na 8.275266395662252 9.500480069723867 11.3202826508609
Na 8.275119123339028 9.50026256252669 7.683013104690729
Na 7.350833587382922 12.265773816058543 9.501458973439735
Na 10.730801293570256 7.685255688712668 9.5015611529802
Na 10.726071004806315 11.32051246817874 9.501394901108453
Na 5.196251298456738 9.495831114028677 9.501517382651429
Na 7.358848049899132 6.731728316915121 9.501253648774847
Na 11.647449780790003 9.505072249351615 12.269562073395168
Na 11.64775899624635 9.504080482740733 6.733624591998514
Na 13.807075035548445 9.506478666062153 9.50180521720464
