19
Energy = -19.05408753 eV
Na 7.109543631056534 9.81362606072904 11.276793639966531
Na 11.358206923654382 12.719095064887487 8.108038833111909
Na 10.248510771404485 9.385213465939923 9.812168886717489
Na 10.691769326031256 11.828965260980194 11.718803959817528
Na 8.03327466678614 7.2394596609902875 8.744268120939395
Na 9.023586561626963 6.93824779425569 12.236913220185766
Na 7.614000436192776 13.052228547635133 12.800457061115635
Na 9.02584005600069 10.296714781812632 6.716951124781173
Na 8.006233248128792 12.536430924361607 9.279863271620009
Na 13.332698822337473 11.283221695514627 13.888342700902841
Na 14.775251340622498 12.048575234253198 7.902282838151069
Na 13.820620422749274 9.892394234543548 10.530411871888182
Na 13.568095936384077 13.515717479917061 10.983443654993808
Na 12.009426123863815 6.608735298426123 9.814595963371554
Na 12.085999715877026 8.120662648640531 13.078332001223822
Na 10.772037369558218 13.814848156931403 14.362568653268356
Na 12.49282277249271 9.369489400893714 7.182561643900839
Na 10.157673405089229 15.034171651113176 10.770190087971745
Na 9.436376563149611 10.064170731180727 14.354980559077857
