18
Energy = -17.88671857 eV
Na 9.758931 9.758931 13.977512162179007
Na 9.758931 12.675845050538753 5.826625480554096
Na 13.698260355421327 9.758931 9.38259666770741
Na 9.758931 5.911706315613029 11.656468912805279
Na 12.50436715654727 11.531350842627463 12.259738359768972
Na 11.651114377686488 12.6155528589347 8.833106975928699
Na 11.651114377686488 6.902309141065299 8.833106975928699
Na 7.910450192287201 9.758931 6.55298673080282
Na 7.8667476223135155 6.902309141065299 8.833106975928699
Na 7.0134948434527296 11.531350842627463 12.259738359768972
Na 7.0134948434527296 7.986511157372538 12.259738359768972
Na 9.758931 13.606155684386973 11.656468912805279
Na 5.819601644578673 9.758931 9.38259666770741
Na 9.758931 6.84201694946125 5.826625480554096
Na 12.50436715654727 7.986511157372538 12.259738359768972
Na 7.8667476223135155 12.6155528589347 8.833106975928699
Na 11.607411807712799 9.758931 6.55298673080282
Na 9.758931 9.758931 10.474508660369489
