11
Energy = -9.71186945 eV
Na 12.997165860628416 13.540082952603319 10.667065482940245
Na 13.195633926892045 10.698453521657264 13.429211519682113
Na 11.079902143304592 13.501708985668278 14.226154803226645
Na 13.554599045421908 10.019617766945935 9.90580818661557
Na 12.515087876536564 12.205119766926938 7.426389394585817
Na 9.635563733898435 13.559395189633225 8.742184409729722
Na 11.279607046652897 8.215117096583853 12.016565425291846
Na 10.375177871903004 11.615270947137669 11.485718061872683
Na 10.184080889923605 9.799907312591701 8.622153389540276
Na 9.866756310637403 10.152066993141132 14.739653241038019
Na 7.874530850328866 9.387691574430256 11.852982201685153
