13
Energy = -12.10111042 eV
Na 10.78349734996171 12.270103746168077 6.996333110739131
Na 9.226018761312202 10.32384612380928 9.381777586575627
Na 12.488619437724516 9.566751953932561 9.9132155579446
Na 14.157999251290539 12.418479711986846 8.977011593019181
Na 11.010393241995665 13.47208516734624 10.098055743624858
Na 7.62348498779595 13.280334170378277 9.141736669168369
Na 15.727042184516176 10.271037414916782 11.411880898147299
Na 6.555241549889289 10.656751798192978 11.530878585651665
Na 9.21956264121703 12.345279127725012 12.766428215220268
Na 10.007066058803602 8.964060500589165 12.408106578834136
Na 12.739719596247095 11.783035681232779 12.577929908713841
Na 13.578870102166317 8.557488144771325 13.60262569184484
Na 11.089572223072146 10.297833844942115 15.401107246508113
