18
Energy = -17.02862607 eV
Na 12.079724752862282 8.47888042526811 12.519226970508011
Na 8.411918971399912 8.795813280524397 11.614702865709903
Na 15.105565320995092 9.409274894323847 13.536443948294746
Na 10.905644075512011 9.194372376915336 9.316811589857872
Na 9.617842117953124 9.98353753939857 14.508272231866746
Na 16.05757418658549 11.47755623847899 15.9699617586895
Na 13.682378259290303 10.880219438804138 10.671470861571935
Na 12.64647022885782 11.679763789478876 14.52820386577727
Na 10.418175072493126 11.975009468137975 11.694312536914142
Na 14.687720187524016 14.54569501310207 15.679879359231913
Na 9.363930011848268 13.219083620301447 14.888199034804462
Na 11.381261764480122 12.29691864753786 8.319640510588899
Na 11.781772270961367 14.86536524684526 13.358226239546282
Na 10.220154217846828 15.052938720990856 9.911768019996455
Na 15.478554511819448 12.815445931175297 12.763967430711705
Na 13.571263907493949 14.18235328719429 10.285818302415306
Na 14.869104735169229 16.33080986374701 12.782306938753882
Na 12.289410333225911 17.49657596506546 11.015192684475624
