10
Energy = -8.93878675 eV
Na 10.214110736938565 11.971129377099706 6.503316319491686
Na 12.58428845931671 10.07943710870941 8.662682637049398
Na 9.35541517764988 9.12434647987999 8.776284646856078
Na 11.690959214245572 13.164305759753224 9.731425989817659
Na 8.469075857239678 12.188190183935088 9.818757865710436
Na 11.49330647885328 8.080557975834273 11.421336476990716
Na 8.593667407346073 9.57420337857995 12.227047511912199
Na 13.155486571436771 10.939959849215258 12.052612553633935
Na 10.248103670049145 12.44010287450388 12.89931419877775
Na 11.18259289742378 9.424773482988684 14.894228270258541
