11
Energy = -9.68230934 eV
Na 14.031750677445624 8.161587091720621 11.324652901889026
Na 8.874961746877872 13.811698238091493 11.731965801556791
Na 12.166082888591058 14.172133660451085 12.410601179025583
Na 8.522223660848178 11.021081142022348 9.843331431174734
Na 11.237769848275526 10.518712911908183 12.398240194113564
Na 14.496185322256183 11.635334139008263 11.507792723972866
Na 11.303247734182209 8.877565458700632 9.242247643641564
Na 11.654770822980835 12.573280247427695 9.296019571076984
Na 10.15884468668331 12.672340472506013 14.974235112019768
Na 14.323240228321986 10.25522952538542 8.373341858776323
Na 7.845201917298864 10.682891158716918 13.350173225060063
