19
Energy = -19.06240436 eV
Na 11.639880841712623 8.279042419558841 6.3022617836764105
Na 8.537536481156868 8.88700073812792 8.133408218294761
Na 10.261088247209294 14.960546772256107 8.102719441158799
Na 10.821867911257096 11.558786269603704 7.354506565907164
Na 13.694324519299904 9.904633809624947 8.685919315200696
Na 7.80532568627131 12.421716195677963 9.093061240152867
Na 11.539255400033369 7.150002925048104 9.566157080428273
Na 13.003723086424271 13.271140812446804 9.590365990531174
Na 6.325357553834413 9.653064388056931 10.896693690879362
Na 14.559085492674557 7.555899111109148 11.185526434179259
Na 8.532201708797205 6.983021848269133 11.316528672739306
Na 10.063968521640541 14.192741424777221 11.46131652357289
Na 13.672707359783942 10.839308909607587 12.124379958212483
Na 7.416878702046045 12.38174253853065 12.785942348040198
Na 10.176631079990916 10.451067313969887 10.859169622304021
Na 11.546382646849054 8.13332930800322 13.171326857010575
Na 13.163196168137675 14.241703541055593 12.994669676174743
Na 8.175244509382521 9.200959402638409 13.992108005497517
Na 10.807338621668135 11.676286809807717 14.125933114209554
