12
Energy = -10.90160415 eV
Na 10.294654 15.04049809300341 7.898598793395264
Na 12.106238510768888 8.55401919693033 8.518257104006695
Na 12.106238510768888 12.035288803069667 8.518257104006695
Na 12.075710206445754 10.294654 11.580661991643485
Na 10.294654 13.704908093390065 11.118121323834796
Na 8.48306948923111 12.035288803069667 8.518257104006695
Na 8.48306948923111 8.55401919693033 8.518257104006695
Na 8.513597793554245 10.294654 11.580661991643485
Na 10.294654 5.548809906996589 7.898598793395264
Na 10.294654 8.433148821785663 14.13402793403529
Na 10.294654 6.884399906609933 11.118121323834796
Na 10.294654 12.156159178214336 14.13402793403529
