11
Energy = -5.0165938 eV
Na 12.368149678372815 14.854721886916707 10.84785153327771
Na 9.654030570250999 10.374665874939762 9.491029879958889
Na 8.21694523180544 10.935449117103497 12.265630337251093
Na 11.982925898704302 8.582814434065504 8.97895287120778
Na 10.024215118599537 8.160912430622176 11.883763045043604
Na 10.762949955001158 12.797472833052717 12.524365195881158
Na 12.982741520165517 9.544908190958761 11.625295191291062
Na 12.647246346465591 12.045300948560982 9.30099965456986
Na 9.500912896227083 13.486410987188092 9.700403769193576
Na 11.266572835541263 10.175380367784964 14.222420754847574
Na 13.901261495528512 12.380200300438506 12.533911380678987
