15
Energy = -14.15738343 eV
Na 12.061220422811235 12.31693482824504 8.697682332529022
Na 10.549468609307803 9.827218099852965 10.914383496916994
Na 15.813232928012424 9.642281336506704 13.893617005035576
Na 14.331350497906573 11.069705338881123 11.047454594855042
Na 10.365390686875406 8.588721528860322 14.10510524892672
Na 8.729315643708368 12.705224926307741 9.914962164472271
Na 9.38542588008674 11.937101365877124 13.369805653079425
Na 11.212202107978 14.31209952642759 15.085642873878365
Na 12.850514229509391 8.733003367890893 8.700074709061585
Na 12.75951574881875 11.171469213482727 14.212363738868
Na 13.277730763860756 7.994162905279909 12.218060320637004
Na 9.596099164890585 10.185960147016223 7.595640736515828
Na 10.678423664732739 15.520693895975262 9.245255087437291
Na 9.080860184745179 15.28547578208939 12.368658916169442
Na 12.195001265037938 13.748749620174664 11.815374110468973
