17
Energy = -16.51847342 eV
Na 8.182446616860167 11.364422979384667 11.912093159041047
Na 10.596894974976838 9.644031296893532 9.63152818215488
Na 13.334171952320125 8.263547587441955 7.8321367045081285
Na 9.73392891681173 7.591325138862757 6.919659623859605
Na 11.308098825448598 10.90691857847848 6.351140122780874
Na 11.27570402588375 6.123573635790099 9.954032341944139
Na 13.515055231873717 11.68211826350773 9.216168774536335
Na 7.884047724679923 10.782551237338744 7.100437803677563
Na 10.165948082679593 13.136030571699887 9.287292994341746
Na 6.590483109187109 13.187901704699474 9.346472115020363
Na 6.556184583409247 8.414085200328731 12.953817569791193
Na 10.128794768219688 8.33186406959696 12.879712375484914
Na 7.857509229201869 6.890352949355024 10.03729496931731
Na 13.49600600519194 8.64689933834144 11.493635117132099
Na 6.16962655665494 7.693434119770673 7.037936027867493
Na 11.699091261868722 11.664054287047641 12.349797954709187
Na 5.626464634732581 9.797345541462189 9.817299911065573
