14
Energy = -12.77671064 eV
Na 15.75905962690705 14.185026606680808 13.315768488619327
Na 12.328069343067769 16.03162735320551 12.915206579977216
Na 12.930083261691884 13.498025882343839 15.26308473382694
Na 16.720094836186526 11.873166852924738 10.851143874343368
Na 10.166140307157354 13.16144046000599 13.190087764977644
Na 13.4113263251285 13.398914586428281 10.770973971316256
Na 14.15758476722637 10.865222623661042 13.156140097262154
Na 10.248842472868024 14.989775975244754 10.178710071802902
Na 11.218358577156865 10.245116125442907 14.94470275528597
Na 10.692372083542281 11.183228292244788 10.283720195631918
Na 11.794917903791895 8.315889699465382 12.110936895582432
Na 14.005765103309107 9.793369785736312 9.7607087951497
Na 8.416855634628982 10.00903885177961 12.798475006421008
Na 7.479910037643495 12.780589260018072 10.842665645968102
