19
Energy = -17.99329919 eV
Na 16.567893843137657 16.31434225102436 13.070444802013611
Na 14.08171974246215 15.497311612511872 11.040420478420678
Na 13.642816590881374 17.993736274544673 14.02771568524556
Na 16.205516463923164 12.813023198065524 12.740400431682628
Na 14.181677143102933 14.795502816301767 15.370989717155672
Na 14.210902978532731 12.30237996369358 9.755893609605016
Na 9.257231679014593 12.776215562105165 12.855050119748121
Na 14.319600010741745 9.792282473330784 12.265446710718217
Na 11.056732257550626 14.182582526213242 10.155978721198293
Na 17.814049719118863 14.343330985117133 15.641774755769402
Na 8.565325700832117 9.295065467389513 12.265289647621083
Na 11.534116477938829 7.538265105273452 11.841222971850803
Na 12.789356879180358 12.916160273242102 12.84041174623779
Na 11.24020766862406 10.792981662967843 10.528614619963516
Na 16.192015992785375 17.442127850509728 16.312664943867425
Na 14.345356340860985 11.349474928677388 15.468375896824345
Na 11.317057460763094 10.137753118203374 14.249310423255166
Na 11.076319083105592 15.847934637483847 13.371014211659334
Na 11.171911205600557 13.21025852212452 15.86680947920171
