17
Energy = -16.23396366 eV
Na 16.813085082026152 14.612124917684664 11.735275721002138
Na 13.817554713775769 14.712453409642986 10.020159473202648
Na 12.459518547987466 11.655295327130595 8.971381384273913
Na 16.91611559321066 12.436821801957494 14.520347538852924
Na 14.99784680944779 11.531756671916854 11.557938840071477
Na 10.820684887078782 14.86410530141378 8.195408929160882
Na 13.842910618902122 14.198625050116824 13.687551209275663
Na 12.94931526126498 8.582947383917684 12.20142963837564
Na 13.9550323500645 10.732983349377035 15.030652251585794
Na 9.020438197499262 12.54770153385435 10.075595721114075
Na 11.538355773696889 11.77383441545974 12.419969348918372
Na 10.874982199297781 15.232002474860774 11.872274191641731
Na 10.405362089004653 9.06547783352242 9.971557991510833
Na 11.083918447501249 12.96227697187145 15.690533304817267
Na 10.766277798935487 9.2788133741665 15.158104973375005
Na 8.418038025643872 13.54472776188822 13.637260171511757
Na 8.492813728161217 10.100686684489677 12.770652918888832
