13
Energy = -11.32695872 eV
Na 12.874548016298416 9.529101216075379 8.552110407148591
Na 10.52791737907246 11.252292292829926 9.97295435930842
Na 13.245941600893817 9.42261246816049 11.885732304775619
Na 12.594902420725324 12.620344606531502 12.565363172697248
Na 10.671142195744835 10.344012692881005 6.243297030214081
Na 12.939353521849132 6.318632323960992 10.317158667240223
Na 10.039673431825717 7.622141439910135 9.358317173075509
Na 7.1316644055379115 13.274484539581188 10.919268773066507
Na 8.501925701349727 12.733844852889415 7.997854454899307
Na 7.788878181739797 9.411923536520606 7.8221723768175915
Na 9.403743473330287 11.995093639828465 13.023934906808236
Na 10.132359069871079 8.58409337036231 12.48817930233631
Na 7.302833942626986 9.82669665777942 10.996433111813214
