18
Energy = -17.89761996 eV
Na 10.640835707697498 8.080228340416845 6.849305034711999
Na 9.997451664769754 11.635119924840268 6.6532416428796
Na 7.961032268082529 9.647437922608715 9.06324572899191
Na 13.3731897143908 10.895353972246323 7.435393855388347
Na 13.948117212443607 7.718682205315093 9.239060461295214
Na 7.86757301488539 13.230842539958514 8.901912062014802
Na 10.252091931280647 6.5141694242519685 10.16594306200312
Na 11.557038242900326 13.572003776816324 9.243628613905797
Na 11.289257814003523 9.639821090281316 9.70395495766045
Na 13.939067054307392 10.810679975413937 11.441780069284736
Na 9.096905553378383 14.876800197745991 11.864341453557667
Na 10.070717848468766 11.714218549675692 11.646600181676625
Na 12.633863697733867 7.5059092530428275 12.602996169167442
Na 6.755004672933298 11.687516386759862 11.910057657973658
Na 12.314299400865252 13.623337283601174 13.2020055606603
Na 9.278564953282082 8.708183379105504 12.990726765856907
Na 12.235473762098838 10.349304558774737 14.557701629717473
Na 9.051449849761312 12.052325582428619 14.79003945653752
