13
Energy = -11.18093438 eV
Na 13.46126536224155 9.13617524596744 9.383490908851027
Na 12.003191864844501 13.398511876741996 9.958444514423354
Na 10.413922472344376 10.6173201090425 8.197602385862696
Na 11.0760908960983 6.949077645701886 8.359140635371777
Na 12.787048678824739 10.893261817829499 11.963450649537695
Na 13.405145748178743 11.780191907471044 7.274360586295946
Na 8.88317656939889 8.85735382458573 14.304135357730102
Na 7.1398634353608 11.261368872767223 7.90439417281011
Na 10.362932818343449 8.85682488361087 11.12766074213431
Na 8.910529986355183 12.25248655172828 10.754793605970201
Na 10.221894081746708 11.899249065827728 13.786109687273228
Na 7.8899968450164755 8.114742144776047 8.72477766682374
Na 7.1094890748180966 9.619279519998521 11.587566005834857
