10
Energy = -8.83310381 eV
Na 12.077561525123405 14.042958239673172 7.643123561077156
Na 11.420620218354102 10.800694165064014 8.603143701467461
Na 10.31654798703744 13.474074682395461 10.527486753335227
Na 10.43717020733548 7.7100144243147675 9.573965615952593
Na 13.71199122146286 12.530884794670218 10.591403655142758
Na 12.842109703638256 9.27138689103939 11.550211937251817
Na 9.391733571439012 10.156252342126542 11.73803631869351
Na 11.86901559266888 11.888459294824898 13.512864003124974
Na 8.568268433207763 13.065726006575295 13.376575039196588
Na 10.902923987758545 8.59749160734173 14.421131862783668
