19
Energy = -18.49379838 eV
Na 14.101082735006932 8.516315204937024 11.568523446414094
Na 10.543471864250833 9.238820545154432 11.607612668412909
Na 12.141530145156294 10.28006007725222 8.946095655354677
Na 15.599771112540848 10.77840425022944 9.706675740551878
Na 9.93706174034077 11.21438091000432 14.158693676396014
Na 13.028609425673535 9.335067567074864 14.462848420994924
Na 7.3841581534929235 11.00740397705879 11.694598987047458
Na 8.724533287186789 10.374863578043353 8.922431068749288
Na 15.776222770522464 11.212241969004577 13.320095194281992
Na 14.840603755941101 14.699723732255608 13.735267332147211
Na 11.230289794854686 14.88896944969887 13.577985221603495
Na 13.076667606040148 15.531189682401832 10.82143435081907
Na 16.101188269003334 13.801689804471518 10.924396531370133
Na 9.578767838018706 13.634437724184052 16.114899220267645
Na 12.996009719748072 12.509084171118252 15.583764257996057
Na 7.906026985994482 13.913383951536737 13.190045310477592
Na 10.072239915253483 13.105774794451703 10.534054080091378
Na 12.891985726793106 12.06051969561538 11.98157718739563
Na 13.51549250334683 13.343382264672645 8.594714998794041
