11
Energy = -9.53793893 eV
Na 15.035437919538147 12.681152526326239 11.234142674128758
Na 13.924426170363123 9.844604525096795 13.194948606016235
Na 13.665821294334595 9.930299291492704 9.516084848878757
Na 12.078649834717742 14.553087348729646 10.857982813220813
Na 10.669841354134922 8.237424322893686 11.829519824419709
Na 11.38295024706766 11.393269514532724 11.341004859756161
Na 12.855220459526313 12.994122220667187 14.105129730780043
Na 9.891588984619704 9.78527007986138 8.585790362759473
Na 8.8566360997074 12.949948288123572 9.489731029695712
Na 9.105775415830852 12.83531870706649 13.17914031796655
Na 7.712569372973038 10.119577127896106 11.449003658998773
