16
Energy = -15.48099981 eV
Na 10.069591920871405 9.877282955865292 6.727143932616825
Na 9.790145093951288 13.38328500795593 7.185609748667413
Na 13.037877346683906 11.674198893755106 7.401744557422394
Na 7.305598291890586 11.136079982466542 8.646760030165424
Na 12.66665153327192 8.333701766634038 9.497351764076615
Na 10.674049493472364 11.065747158288067 9.98446923144825
Na 8.874389903400637 7.967502943661794 9.691143558749461
Na 8.657135963478499 13.902294579065021 10.507995559746421
Na 14.208564943069314 11.570870161820082 10.760937878639437
Na 12.115697006193654 14.298704932247807 9.87196290807711
Na 10.941281852890977 6.545195471191353 12.121700205004764
Na 7.892952938441464 10.718870571138757 12.259531849254703
Na 11.312380610516938 12.204624963512895 13.135326292455531
Na 13.11986709404707 9.063591118421048 13.028250933145058
Na 7.515077955657315 7.293731935364811 12.82576558335078
Na 10.018962399080818 9.164541905529036 14.554530314097967
