11
Energy = -9.78779442 eV
Na 10.176245307897341 9.859599671844013 8.75783924148211
Na 12.899770069970424 10.288504551755073 11.270104435644472
Na 6.512832368497467 8.659900149716805 7.502873790767352
Na 7.558087143986428 12.008599842194743 8.116204971589934
Na 8.309603386335366 6.77640878914057 10.013262120937597
Na 9.637842382850106 7.1489034529974695 6.694029840477782
Na 11.884211679374774 7.137186066126137 10.020609769556302
Na 9.973724618773133 8.644050479357855 12.624752991443074
Na 9.802609508502181 11.999078516808698 11.439408053031874
Na 7.013069724563239 9.805553554743248 10.89603990833542
Na 8.863615138418359 10.303826425315119 5.296486547564985
