13
Energy = -11.51940959 eV
Na 13.19159024303019 10.538061591845134 13.148127752058972
Na 10.113737085448264 13.982233340351332 8.860894159281868
Na 6.987784337973632 12.207272602015768 10.207930782153236
Na 13.245765176406278 13.309429281845974 10.484464743540363
Na 12.587321647979081 9.90850333521418 9.723530453766697
Na 12.35531949374279 12.13665306534145 7.017437423904653
Na 10.192233763845499 8.63281147853553 12.584102888804654
Na 7.2985559206579245 8.676620527931817 10.371030274414561
Na 7.319716274790216 10.732469343334744 13.334759381309139
Na 13.24390563951976 7.165106382906602 11.73662391359615
Na 10.188186229959166 12.05855846373803 11.788967409973282
Na 9.42405379579518 10.47838446219292 8.209222070131045
Na 10.49017776658248 7.144122837851355 9.37183254147825
