16
Energy = -15.47058846 eV
Na 13.304762674915922 13.65138389655922 16.174991027548728
Na 11.63083759259364 10.553491742395487 15.65606557592598
Na 12.808158627987359 16.589545283437833 14.47698905055513
Na 9.360313263121702 10.185007522262396 13.055968697307234
Na 12.55270529283961 12.338227974622724 12.624075128828341
Na 16.14709585711403 13.184365063643284 11.40612805830385
Na 10.048352276860927 13.821545539198592 14.431912951119944
Na 15.988458989773491 14.86359833140976 14.408370111295012
Na 12.563437700757792 8.513047399040625 13.001419113139818
Na 9.463948137821994 12.78301481395238 10.75646416472275
Na 15.23432075872396 11.093862275616585 14.322089374928265
Na 11.260509319103681 15.7642107251763 11.52319006709695
Na 14.608088965702045 10.063067812135918 10.647272709848037
Na 14.650488446406397 16.2772795811646 11.381366411765656
Na 11.20223633275599 9.887005287107284 9.957045963352327
Na 13.05372087661966 13.334532947906471 9.388982736952478
