15
Energy = -14.09902536 eV
Na 10.511393870341802 8.052811367206255 6.446088714574822
Na 10.545948697051486 11.632859775178575 6.488276966732723
Na 12.658967457433981 9.679689686891386 8.664206514837659
Na 12.579207196516847 13.13280321265208 9.029894075172482
Na 7.698409835450167 9.853977718769494 7.741915453633658
Na 8.859999801560093 12.713395620078309 9.29884093531168
Na 9.88244601600924 7.958583561580372 9.880202159621925
Na 7.361774963435763 9.91602386747368 11.31068816421579
Na 10.879042334831052 10.967889209265339 11.46322888274018
Na 12.901398448630642 8.538327640041242 12.651757638061389
Na 14.352106598245493 11.861832598391652 12.007766304884797
Na 9.536176744630579 8.884674166506528 14.089204001799356
Na 11.731988820181575 14.052685428934456 12.753857811818195
Na 8.924457026377379 12.303598733324598 13.989401741024064
Na 12.261443939026929 11.135609163429208 14.869432385294463
