17
Energy = -16.05452542 eV
Na 10.488821 15.421963631448797 10.424383897717119
Na 12.265558948817839 8.48464252772297 10.152870668190701
Na 12.265558948817839 12.492999472277033 10.152870668190701
Na 12.735007200928408 10.488821 12.945241719572023
Na 10.488821 13.272541406594211 13.299329874696465
Na 12.254235373933238 10.488821 7.252813841203253
Na 8.712083051182152 12.492999472277033 10.152870668190701
Na 8.712083051182152 8.48464252772297 10.152870668190701
Na 8.242634799071594 10.488821 12.945241719572023
Na 8.723406626066753 10.488821 7.252813841203253
Na 10.488821 13.667233685271217 7.246129270672929
Na 10.488821 7.3104083147287815 7.246129270672929
Na 10.488821 7.70510059340579 13.299329874696465
Na 10.488821 10.488821 15.650322341578654
Na 10.488821 5.555678368551204 10.424383897717119
Na 5.972573182533033 10.488821 9.856177388967478
Na 15.005068817466968 10.488821 9.856177388967478
