19
Energy = -19.03284327 eV
Na 13.934388525761566 11.41406601215364 9.45355534371575
Na 9.611310662879156 15.255931995579527 11.729070181930293
Na 14.252670736549687 12.104696351545694 14.505447823404792
Na 15.462661090184783 9.771143143681755 12.283012118280832
Na 10.781830227692843 10.22375369093849 8.543870994918606
Na 8.86146386440498 10.05373605780556 14.098762745093115
Na 12.443030213634907 8.79239669921548 13.986052849632319
Na 13.144804252234069 8.041165349456088 10.357171463295641
Na 11.019311694314878 13.658202977519858 8.923214715552623
Na 13.071800531027948 14.978212096162544 11.549937254539556
Na 8.35969545301117 11.934437408830927 10.877750490314233
Na 11.671333658074364 14.825056896296912 14.75822549997069
Na 11.530771954319723 11.738398641315639 12.21394114945678
Na 14.469163394108193 14.719964167002484 8.496738266448393
Na 8.4610975562615 13.441124560838807 14.442846328405
Na 9.948835360043347 8.372021392435373 11.403434408594045
Na 16.126754419871993 13.198636961362777 11.572892098331433
Na 11.205710954055332 11.663127767089215 16.142104630561633
Na 15.238173835661932 15.408736214861941 14.25678002164714
