14
Energy = -13.28016683 eV
Na 13.666931818437696 9.471551489626581 8.68597355511233
Na 10.971872565812772 11.578051803864765 8.309934234480433
Na 14.249314237083999 12.823236100409312 8.168905925593535
Na 11.624948665202695 14.917835718107261 9.043685963093791
Na 7.235574029829515 10.622412548157543 9.502336744743882
Na 10.116480224807988 8.51520466330967 9.950409417602254
Na 6.995103008925829 7.373333909119264 11.0025517175931
Na 13.105789686243392 13.404675189530638 11.752057376982316
Na 15.652555816659037 11.22839220250136 11.031943187641142
Na 9.511929349356434 7.890455355308325 13.337167736910981
Na 9.557758564745008 12.419538573962162 11.40916409674333
Na 12.36755711788467 10.062442654148404 12.09248610583796
Na 6.946859591436704 10.42475339653284 12.949013499674672
Na 9.852976885074993 11.123767956922299 14.620021999491305
