19
Energy = -18.84807246 eV
Na 13.52345027841905 10.3628964 13.441776366332656
Na 13.52345027841905 10.3628964 7.284016433667342
Na 10.362797367215999 10.3628964 8.703525955761766
Na 9.373633703462618 7.31840466676295 10.3628964
Na 11.339538546833765 7.357512970928345 7.283858588177678
Na 11.339538546833765 13.368279829071659 13.441934211822321
Na 10.362716097173054 10.3628964 15.442332454918633
Na 12.953531010670858 12.244085150693069 10.3628964
Na 10.362797367215999 10.3628964 12.022266844238233
Na 11.339538546833765 7.357512970928345 13.441934211822321
Na 12.953531010670858 8.481707649306928 10.3628964
Na 7.161160345141531 10.3628964 10.3628964
Na 9.373633703462618 13.40738813323705 10.3628964
Na 7.805865038410025 8.506179696305027 13.442208958204391
Na 7.805865038410025 12.219613103694973 13.442208958204391
Na 11.339538546833765 13.368279829071659 7.283858588177678
Na 10.362716097173054 10.3628964 5.283460345081369
Na 7.805865038410025 12.219613103694973 7.2835838417956085
Na 7.805865038410025 8.506179696305027 7.2835838417956085
