12
Energy = -10.54707443 eV
Na 11.256222697130864 13.340958219718189 8.28122816036337
Na 11.293637017079503 10.158086882752485 9.193965286201493
Na 11.87366481037107 9.771269131063773 12.41607321738059
Na 14.079472984667785 12.136444581640069 10.12886877282015
Na 13.373428476548455 15.504917290302977 9.498196781067097
Na 11.267622274893899 13.26587719425546 11.785001081224976
Na 14.423588195164083 14.902451972237657 12.491941998415093
Na 14.60739238612399 11.540278360857794 13.370894979687428
Na 9.79152257698597 12.052430401781372 14.516957992742112
Na 12.611331573546902 10.362373778993756 15.802264687590112
Na 12.64349552536832 13.846531855982807 15.070898172486228
Na 10.688836311299585 12.360191690949577 17.772279169127987
