16
Energy = -14.76164163 eV
Na 14.049375161151989 15.18750948147376 12.118903065437937
Na 16.654940721717796 14.000437410854252 10.41346842251349
Na 11.459232372104266 17.27981880942168 12.269547275963237
Na 14.628251430225774 13.877784619510807 15.823368568084323
Na 15.560853704631437 12.041222989129418 13.250752469762878
Na 10.844450378353525 13.884613303128852 11.188519460827973
Na 10.66483127507659 10.46793891640638 10.951979211366938
Na 16.654030574403475 10.729447620601896 10.221558286195659
Na 8.707406855104662 15.753585879901442 13.19681510640783
Na 9.022849506656064 9.267045909773943 13.918391510381028
Na 13.514215176695307 12.215494417872108 10.187503954198165
Na 11.629880210130187 7.665667583779701 13.061148444405948
Na 11.603116756818737 14.585372448277402 14.72544354406219
Na 14.076120457614898 9.16850358988462 11.600629930885294
Na 8.8784286913569 12.470186061145453 13.582348667591667
Na 12.26356485475308 11.265281311441155 13.960093257658727
