10
Energy = -8.87018865 eV
Na 9.907722750381417 10.466792792983789 6.266333014404752
Na 8.375382730301464 12.662504676572887 8.532549321369343
Na 11.43313584235724 8.287207785300962 8.601075285956263
Na 8.04015020706391 8.878272130188344 8.836035497084351
Na 11.711647116930653 11.83930329829907 9.047485044944885
Na 9.000396964329527 10.881510121857277 11.437982232482854
Na 12.635457671261555 9.667372560007014 11.559188960997293
Na 9.8616953386223 7.550635927400519 11.809786325351507
Na 11.507276690194152 12.948790633664066 12.590808510869168
Na 10.653868782641036 9.944344167809724 14.445489900623109
