12
Energy = -11.11792079 eV
Na 11.315616035367032 11.74117386514935 13.081886690227227
Na 8.36222497508075 11.946652583743852 11.540512235879394
Na 14.405545281336925 12.062830809360028 7.9399356886272905
Na 14.505543409287224 11.640542372812808 11.316672755493181
Na 8.743715090779492 9.576993592272288 14.385649205851976
Na 9.221941189486126 8.386539539671572 11.071835356405368
Na 11.454207831952454 12.348114170547518 6.270420819526419
Na 11.884377456626318 8.381769499719708 13.2462870207471
Na 12.223219874803215 9.5829729996443 9.754591376404226
Na 9.107863125376246 10.602800293429276 8.421767691992933
Na 11.39221595085515 13.000170853856023 9.770617833377527
Na 6.060754267097673 9.406663907841589 11.877047813516114
