10
Energy = -8.83225552 eV
Na 11.518150231583526 13.59909323989723 9.721722768680154
Na 8.263630278936512 12.564481656667894 9.388248260980024
Na 7.033268557526064 10.667690881982496 12.036107292341216
Na 10.968235305565944 10.296780542660713 8.39877609403157
Na 10.039793791912144 12.189573499317586 12.543310846059134
Na 7.7434913690230855 9.140850638301778 8.83916104498208
Na 12.944494694949478 10.634789602298682 11.321003648667979
Na 10.042752913557068 8.706415786365133 11.531813111912781
Na 13.206895402903866 7.560690010885231 9.591807576091865
Na 10.123330599922477 6.52344929807385 8.528689691844624
