12
Energy = -10.57729584 eV
Na 10.557722841848793 10.606572978280147 8.895130147303368
Na 11.722502145862435 8.015569845597428 11.010543190741384
Na 8.148223327401835 12.95459336800397 9.847673484235838
Na 11.768028400330863 14.129581527157193 9.706321731647453
Na 11.036863220102365 9.693229392346348 14.052036897592636
Na 13.319793194757674 11.173448466185144 10.821923175052762
Na 8.454614342627782 9.844327243086747 11.640971004894872
Na 14.360253104019847 8.913282718952471 13.309841971801397
Na 14.955009417982598 14.249107293385526 11.207084168432825
Na 10.296433291620115 12.707487778708849 12.631449603472836
Na 13.513102654332785 12.564412939126814 14.097857557409442
Na 12.193965019910106 15.632839680879446 12.996969572904298
