17
Energy = -16.68067654 eV
Na 9.82872 9.82872 9.828081407679212
Na 9.82872 13.954547661426112 10.578628691416217
Na 6.9122275336116985 12.745212466388303 9.07943315810803
Na 5.702892338573891 9.82872 10.578628691416217
Na 6.9122275336116985 6.9122275336116985 9.07943315810803
Na 9.82872 5.702892338573891 10.578628691416217
Na 12.745212466388303 6.9122275336116985 9.07943315810803
Na 12.470344450777834 9.82872 7.173512587863257
Na 9.82872 7.187095549222167 7.173512587863257
Na 7.187095549222167 9.82872 7.173512587863257
Na 13.954547661426112 9.82872 10.578628691416217
Na 9.82872 12.470344450777834 7.173512587863257
Na 12.745212466388303 12.745212466388303 9.07943315810803
Na 11.696364479483412 11.696364479483412 12.483465210692698
Na 11.696364479483412 7.9610755205165935 12.483465210692698
Na 7.9610755205165935 7.9610755205165935 12.483465210692698
Na 7.9610755205165935 11.696364479483412 12.483465210692698
