14
Energy = -12.74159685 eV
Na 9.83334597791118 9.518755626302774 9.807269
Na 10.34229553727881 12.29208049660997 12.390020539235648
Na 10.34229553727881 12.29208049660997 7.224517460764352
Na 7.659054628824665 12.421675999855287 9.807269
Na 10.313956623870718 14.670359293865756 9.807269
Na 6.885543540552803 9.532834793534095 7.9023016313937715
Na 6.885543540552803 9.532834793534095 11.712236368606225
Na 8.865705560293955 6.3962900482952625 11.638176255964655
Na 11.995534488479349 6.727371982341256 9.807269
Na 8.865705560293955 6.3962900482952625 7.976361744035343
Na 9.856602783218117 9.072910467510095 5.957170115630246
Na 9.856602783218117 9.072910467510095 13.657367884369755
Na 12.799789844574635 9.687685742867833 7.909633405100006
Na 12.799789844574635 9.687685742867833 11.704904594899995
