13
Energy = -11.62149367 eV
Na 15.333019691849202 10.581177233228141 10.808524781922618
Na 17.606479042161354 12.852818927815585 11.6364902696461
Na 12.368238098464698 12.721653642295632 11.318210975638204
Na 12.314492975899007 9.412105813649585 9.986376047875963
Na 12.061607944604757 16.25751532365997 11.444691605195557
Na 15.156716295730027 15.086365251802743 11.74389862135773
Na 9.860017883670984 10.127788675732564 12.12816214412718
Na 13.141533742878432 9.437227452130031 13.361452594979278
Na 14.871910684820712 12.294407134253593 13.868147689171561
Na 12.93905426499892 14.96669747621072 14.557717884507037
Na 11.401229161079378 11.977998592950906 14.72435777606986
Na 7.890628364499298 11.97212543318619 14.067383167625374
Na 9.692484945527404 14.567647661237514 13.056258104410718
