10
Energy = -8.63119753 eV
Na 12.286506182978275 12.87545786820176 7.677720068333721
Na 9.682988127533418 12.513889538808627 9.730230714152984
Na 12.908140246674808 13.18631648233676 11.057361737892965
Na 7.52539556150959 12.023962110932215 12.277895190069549
Na 12.461974439849246 9.987224148646185 9.745549891181467
Na 13.281906259296264 12.886995188955867 14.460911100554137
Na 10.704294040804658 10.638162542471497 12.615390632854934
Na 14.076296797465302 9.928133869685434 12.831824414419977
Na 10.31488977671641 14.0868847708173 13.112179716936796
Na 15.816563734889169 10.931928646861214 15.549891701320611
