13
Energy = -11.86408064 eV
Na 12.613368869875154 10.183404865043252 11.051563810924971
Na 9.217829763305318 11.617077377308526 11.685170735756818
Na 12.290589486308392 11.910948851129936 7.851565111757952
Na 6.653448622183356 9.315963326298874 13.339201871939435
Na 9.87983066730082 8.174376813518272 12.390584197699965
Na 13.030234716277764 8.47837109840227 7.66190124164885
Na 7.111842828255176 7.110477381200085 10.548860122454693
Na 9.886632078585947 9.467581274978492 9.118959199501417
Na 6.316004434238003 10.448866032437504 10.071235748451228
Na 10.376258048897679 6.2682992554733135 9.035863882127467
Na 8.705055881527949 12.323498074337902 7.971413948257283
Na 10.457938360444723 9.772528606485414 5.6407363556438215
Na 7.308411268166031 8.588170202945651 7.089329182649592
