13
Energy = -11.96335949 eV
Na 11.218770762105505 13.033788343909434 12.334824632696225
Na 9.837587679214579 13.528658378823723 8.945684608861242
Na 9.733869861979514 9.975831013681963 13.762314620205384
Na 10.292014084840233 10.306276854303473 10.304576906637934
Na 13.200640260926795 12.072788244422796 9.390661210577495
Na 7.666868652403372 12.230883688825358 11.66427399205966
Na 7.405982581332199 8.55967199452827 11.252883839048645
Na 12.946834078049852 8.416135355849953 8.976762550863299
Na 13.140090485711566 9.891467390321422 12.347067053313944
Na 10.800385102217337 7.102654092280636 11.67905936013551
Na 7.477723760534722 10.763798997063754 8.261479457112598
Na 10.906828209124807 10.680114578919786 6.855179888522498
Na 9.39065021975195 7.594389362516425 8.281264125605556
