10
Energy = -8.72332499 eV
Na 11.115519435070285 9.836070776292583 8.430317678328553
Na 10.657143288447054 13.340804999983684 7.53709764577823
Na 8.197759160028152 7.850873708246271 8.933999091183264
Na 13.305952556412675 12.648402370687432 9.363966504657938
Na 7.944919135755005 11.339759377577451 8.926932797086064
Na 7.705376579490695 6.170341374080872 12.04387210613218
Na 12.230127285409296 10.133968342778301 11.785038829987338
Na 10.124937375347914 12.75644488446812 11.148623608495388
Na 8.692867831275725 9.682043830760211 12.025777540104158
Na 10.900968586539372 7.116861568901822 10.679945432023638
