10
Energy = -8.8704755 eV
Na 11.355261439279719 13.28445335233656 11.58089176672074
Na 12.110714682080689 9.72712655967918 12.066890911509864
Na 11.821598068230541 10.897572197403708 8.855441896341503
Na 11.228793768022234 7.429131812122921 9.525293322692413
Na 9.750410975320605 11.292902002105189 14.120676110522464
Na 10.519972415025457 8.820448520858143 6.283042253856881
Na 8.996524043581136 8.231344850734356 12.307457866941816
Na 8.632279722392976 11.369206863286852 10.739729188382418
Na 8.08445999346545 8.608448947087464 8.807704665549345
Na 8.947531298926428 11.865516696432561 7.233245749718088
