16
Energy = -15.47811308 eV
Na 12.257030166249644 10.100864872212592 6.0454176690783745
Na 9.095626129276518 11.894674629858802 6.83589069715015
Na 6.5811248871450445 10.211259940440419 8.766735129128918
Na 11.97610716681489 12.15160239037453 8.968747525325044
Na 10.048356973885653 8.931658505171523 8.57253104449806
Na 13.84410821988407 9.243379499973253 9.19369054762257
Na 8.802715596291396 12.094455521074734 10.44951193398515
Na 14.543162074250446 11.762864748147638 11.65395231276933
Na 11.53046703374755 13.395312279199942 12.329965508915242
Na 11.401769959132361 9.763516994221906 11.761788181236385
Na 8.10211356634381 8.61825260424366 11.459989314121556
Na 5.8484538866082385 11.32516392142256 12.253553192864041
Na 14.429314121392341 8.54592284992966 12.996042103200601
Na 14.320472122821242 14.117326385553353 14.234043287551067
Na 8.976851038531194 11.226459465106077 14.02269828995141
Na 12.624564715263272 10.999523050707486 14.837680920239777
