19
Energy = -18.71674611 eV
Na 13.454829592786698 10.351168850831844 16.719098881491732
Na 10.268369544357064 10.250731584711573 14.785145896880843
Na 15.710989068102064 13.205951657886693 15.90680884518191
Na 13.060395039354038 8.338593337592135 13.667829831588467
Na 13.428895496145971 11.665867283355084 13.358119217399814
Na 11.898537368534681 13.43747461189584 16.12458418228958
Na 16.22288451617308 10.053388979851082 14.319272891959665
Na 14.982998506510379 9.78370434959655 10.79172314928325
Na 11.140560637373063 9.940364305744398 10.989347782028196
Na 16.70096913963403 12.95826737012338 12.13866394182632
Na 10.410759426182727 12.997083571954112 12.75565983554957
Na 14.027653044354924 14.96015223812459 13.50449517741915
Na 13.530113714667708 12.80233598966561 9.927531016005434
Na 9.98927828091717 12.797251045400872 9.321927535733753
Na 15.47029889971404 15.7780834144321 10.468641352716016
Na 10.773276224985963 16.263217431028355 14.103341986460537
Na 8.190261644900758 15.13140300734006 11.648721910886904
Na 11.797262091122798 15.681932274802968 10.720922026809237
Na 13.735348754439343 18.141155507296208 12.812906566886886
