18
Energy = -17.27743941 eV
Na 14.582308060716846 12.481659929153116 15.200580467122782
Na 17.203384545333932 14.35006854705256 18.492147740446857
Na 16.626114232947586 15.801944607333803 15.401031691231545
Na 16.39581491973029 11.51369288674006 9.785263124715778
Na 15.098975129499344 17.452611668587192 18.373959971572084
Na 13.726536422569591 13.934361898355503 10.173473926771093
Na 13.539796524923755 10.997481079553086 12.102206242000014
Na 11.686122649184929 18.418839784980218 17.450883876811755
Na 13.337834164108267 15.618743787523309 16.12450919622977
Na 15.574586550759047 8.274532087992599 10.530686854130495
Na 14.240336717056449 19.00409226625387 15.176198325316117
Na 11.254183415164448 17.650846569716606 13.763278687285458
Na 16.606951587543744 10.175643824417271 13.34688194404745
Na 16.47376282735241 13.673585597017643 12.486967464385872
Na 14.386406435643273 16.500592822057452 12.697770690522567
Na 18.152264212790026 12.481259623439747 15.706148589383423
Na 10.044716769443625 15.397531227071616 16.2933301658844
Na 11.946022005709182 13.985744584789412 13.2931153035802
