16
Energy = -12.76570337 eV
Na 14.56970060322361 16.29688924792585 11.49815100183334
Na 12.900662445114284 16.740667626104365 14.72701850653836
Na 15.778694736239677 11.869636679294786 18.79399983265507
Na 14.173663167768513 14.680672537491645 17.324067996429275
Na 11.767630150381603 11.46149381382115 13.008640472431365
Na 11.331581936272418 15.03042489620239 12.080411084470816
Na 8.666106222297177 13.09630325020412 13.066446143103976
Na 16.51784784939559 14.748695744343246 9.020620705091119
Na 11.061972312221771 13.79221744236909 15.564688742388237
Na 10.422863729630112 12.344451195810803 10.007709138346552
Na 14.227369819336808 13.681940549717059 13.818009469723492
Na 16.362986555035697 16.188001159074112 14.969739220357361
Na 17.26387554343727 14.059448841646182 12.277615546610525
Na 13.612522535703219 11.335258901938596 16.203601276573647
Na 16.94217013137794 12.817203086329942 15.736244446042491
Na 13.835897181913412 13.001964162029497 10.359516686507892
