15
Energy = -14.11062832 eV
Na 9.409998154009553 9.875004462811676 7.601600653502841
Na 12.66453619643358 8.079476732823574 8.072160362440828
Na 10.073572259120395 13.705077107298912 9.545909829451574
Na 12.68927676575305 11.575338687574614 7.908434036659884
Na 7.511723391230994 7.928803631238512 10.19971630196228
Na 9.674483769093863 6.369326272983675 8.036004718134668
Na 7.156930199216709 11.428534362327797 10.188323928747142
Na 10.581089635866984 10.630951881601975 10.664360988916496
Na 13.580273172997334 13.163126700909109 10.914823157059995
Na 13.919697737647752 9.64191926767409 10.999335023641898
Na 11.1839874549952 14.790086373998479 12.711000123711829
Na 10.958094552552364 7.305433607584106 11.249510820100687
Na 8.406541701929049 12.881034562303899 13.111784159959845
Na 8.557180593253872 9.379797201436244 13.248673816590316
Na 11.772236793265863 11.38571152480019 13.687984456486019
