20
Energy = -19.81471143 eV
Na 9.370789180969064 17.072453658120065 12.137411281739729
Na 10.732036259987357 15.207353289846072 9.1064783514093
Na 11.279375901875273 14.263073153237414 12.400239460203474
Na 13.907568597747153 14.000609686303482 10.09069376876658
Na 12.590260149567143 12.69067873246273 7.146573162406668
Na 11.790629528079528 16.379430225546077 14.978763481795648
Na 8.597638647067502 14.515578292504353 14.701205168044499
Na 14.77851998378089 14.183546870236825 13.877693402166871
Na 7.955856401388601 13.94499796231036 11.248017345639116
Na 10.476898176890096 11.575029370343124 9.754621833809079
Na 16.3434224222322 11.918392560438699 11.230846338850503
Na 9.328379743747803 11.187401932645763 13.246570792021275
Na 13.007135324638039 11.398409937006138 12.591854490599438
Na 17.56968326452518 11.682370690514217 14.399212674019237
Na 13.7489197320726 10.203535610873697 9.376691711147416
Na 14.599942121170558 11.234394347818068 15.953793212277274
Na 11.520692251034465 12.802103024829979 15.684314922388864
Na 11.266167312580288 8.56388145144148 11.45196154747535
Na 15.26194579605459 8.960436662369519 13.108229919989455
Na 11.810617671673256 9.160483925813773 15.007769717879203
