24
Energy = -23.92411919 eV
Na 8.719107254325964 11.64037154811123 13.423842685159396
Na 6.747326293895015 8.544864081905068 12.830854970038605
Na 8.710595573393416 6.728266433467178 10.40599898874856
Na 5.497557425560205 11.479039933438587 11.411652837761123
Na 10.180397675424357 8.326756898888778 13.423806758382405
Na 5.7750740426118945 8.456464309984876 9.400425918184501
Na 11.36694767640465 6.415006482646186 7.981052372948047
Na 11.524580160438918 8.823132378009722 10.406127579932615
Na 14.409606899421101 7.370453465019624 9.399784926202384
Na 13.847519471777142 8.16740943540315 12.830363251980296
Na 11.930825146740796 5.61849597327541 11.411434669440437
Na 8.97125846887096 8.884441868699492 7.3879769078858315
Na 8.475712117282765 10.22864126865847 10.405954140991293
Na 6.468440081707861 11.569048559239672 7.981810914453577
Na 11.217555139688796 12.166235200461596 10.405921866004999
Na 8.068690567817143 13.713114505489422 10.406056877389345
Na 13.789483441288521 14.120217286038995 11.41159088690771
Na 12.440440771911556 9.925182690467167 7.388020242131168
Na 14.43858441251587 10.776510925782164 10.405744635420225
Na 9.805065525325166 12.408848790022377 7.388337701680907
Na 13.381197023349062 13.233990771144704 7.980879599450474
Na 11.032804782435317 15.391054092965273 9.400600356713534
Na 12.319425551423747 11.249773628897769 13.423536033487473
Na 10.624328245467453 14.505203221060782 12.83074912962784
