29
Energy = -30.07500522 eV
Na 11.007411600611215 11.773216384934212 8.64055983421879
Na 13.054031379475822 13.580898861843302 6.363102565268829
Na 16.606832799570743 12.182662788287816 6.930320150671959
Na 9.46092462383785 14.556050833461653 7.2282321335925515
Na 13.717874123043382 10.051008175048448 7.181796732360239
Na 15.679009347559955 15.469622168658823 8.172174381333107
Na 7.483273425194639 11.873456549978867 9.15665201652109
Na 12.251954730621316 12.934663780216454 11.864380134821028
Na 12.247735163133692 15.574779004072946 9.368865095551726
Na 9.584511439599748 10.412481852706629 11.687239809586771
Na 16.40768032567274 9.618020437491392 9.730094544430205
Na 14.563680145621941 12.546092970818133 9.517645660440728
Na 9.17004066757208 14.29917988904455 10.915327636908305
Na 12.971839485769223 9.437380872616238 10.778728368388736
Na 11.059475402238794 7.403682232032438 13.31443410063367
Na 6.777597681219541 11.885710614785145 13.226902876159405
Na 14.975137204464795 15.156548928183037 12.003235653194064
Na 15.441277178739824 11.523791274613448 12.946530572466358
Na 14.634082148519097 8.04751375733106 13.854459029499361
Na 11.650940054052107 16.103606335226548 13.187996901243755
Na 10.567007897942146 15.12932787327764 16.918661026559974
Na 12.21814719862395 10.495121353056035 14.263464164903322
Na 8.91033928412541 9.662786553807203 15.311767855224417
Na 9.861289791848495 13.126796168150962 14.24780628742362
Na 13.560596804038694 13.792445537295265 15.180270013080666
Na 12.06982183277058 8.080717832311707 16.740292458073508
Na 7.688476799231272 12.78384198513332 16.754756841198585
Na 14.70823812415764 10.448873942737022 16.6404644029239
Na 11.264671504120692 11.643619206256743 17.46773691669803
