22
Energy = -21.87019133 eV
Na 14.218168397321673 9.882176064968357 8.165248923240755
Na 14.782727879305606 13.869687141894154 8.83365797308203
Na 16.589407555722467 11.828434456567905 10.856737559051295
Na 11.629262183621222 13.004663489376428 7.930060755701987
Na 15.246038944186632 8.91853902383835 11.975893590832811
Na 10.294408062235615 10.089244631741083 9.04727829934905
Na 12.09085295188123 8.046621666341855 11.081074568916476
Na 12.969410444333114 11.576653755330288 10.99650257415594
Na 15.049330022668176 14.678336138472144 12.234956803999516
Na 15.34708274584498 11.69734117474593 14.12950261380367
Na 12.057829958809418 15.374065001442716 10.476535094698999
Na 12.58416868603661 16.73428069260477 13.670146462906184
Na 14.418018745870565 14.711149458030507 15.685227034874611
Na 12.643452776453415 9.414440328616275 14.273483615444903
Na 11.736218492062214 13.203925540625832 13.736277492486062
Na 9.359925647680305 13.07916007038451 10.611070562105596
Na 9.652543316028112 10.104384366625343 12.50715227190815
Na 9.433024155422329 15.85030978284294 12.759022024092463
Na 10.449344474097007 14.86219132083931 16.551226046483123
Na 13.083972090257715 11.803875829181568 16.8137104520683
Na 9.930493781107161 10.921206511861827 15.918029342719109
Na 8.110156362918888 12.940006851023893 13.891611576067968
