21
Energy = -21.367646 eV
Na 14.587580620104333 10.830107669300586 8.512302205468815
Na 9.079869699488091 13.784651125052612 9.357779404258467
Na 10.84759833313142 16.486368040212515 11.159493060465376
Na 12.754314105513844 13.939938111565562 9.252496427146621
Na 8.107333564873278 11.184721262883956 11.800362889763415
Na 16.279887865353018 13.573090877668282 10.326711142427065
Na 11.084809768623451 10.710307687671937 9.64254444612692
Na 7.883030089850794 14.82728201140586 12.809312820865888
Na 13.53735289130952 8.270349368558316 10.967441931918367
Na 16.85798378384102 10.002363176447428 11.429806001026725
Na 10.928261019269002 13.179790025099702 12.262376679616553
Na 13.780133942115906 11.64734781928232 11.816349921204349
Na 10.96955886194261 9.503598387205932 13.150285350604099
Na 16.176170411177758 12.850451611227227 13.968637021914786
Na 14.004248219087474 15.371544588916903 12.43903857318774
Na 14.419151985526014 9.448947886197518 14.379172593848702
Na 14.648362982670982 15.590478526391589 15.83692583893635
Na 11.500759663900844 9.501390441670296 16.574698846895583
Na 9.390411289057049 12.136017887875472 15.150175546118964
Na 12.918253082499522 12.520713735852715 15.335490433195547
Na 11.154431659862064 15.550043598710973 14.738102704207204
