24
Energy = -23.42535708 eV
Na 15.998437037397183 9.43847503907869 11.320449816184645
Na 14.440172551458085 14.769806697326215 7.562188166801016
Na 14.665707955220205 12.423792148883564 10.196573754735155
Na 12.769496267755459 9.38864002773055 9.675037351664951
Na 16.115311367390213 12.459633060498994 13.48208023523547
Na 13.358749791181328 7.157100718204827 12.559648230147069
Na 15.431458622427733 9.226691667057509 14.92303015127906
Na 11.987749890051585 12.377930253140168 7.78283566152053
Na 15.07962297453482 15.84649153755144 10.747133588189271
Na 13.185378830836953 10.728316083866755 12.918680524703248
Na 15.932418334872713 15.845484739573413 13.957123068065616
Na 11.771454076763094 15.34384348085521 9.84966305075054
Na 13.540347607587732 12.104002552831382 16.061935233914546
Na 8.767266195024064 13.545295666130864 9.024918783259272
Na 13.658916653683981 15.526804246646131 16.317883932931387
Na 11.850055940788947 8.81426447454356 15.506779152356106
Na 12.844218084958808 14.37981637393746 13.08541307481309
Na 11.02550718889885 12.11568673286448 11.019187019936535
Na 10.156751130163945 9.003024300088597 12.32679777350428
Na 9.464378734390232 15.01007113825393 12.259814355734035
Na 10.443690339689976 15.131014312381279 15.586627614678024
Na 10.28496857861944 11.769685483604096 14.658020625442195
Na 7.817313589257018 11.78841558190788 12.074594699720988
Na 7.381002964761948 13.771403899991101 14.856732741548536
