27
Energy = -26.42014268 eV
Na 15.839719894267112 15.776219955121592 15.612783824288888
Na 15.976634632323668 18.161488855246645 13.233602605093173
Na 14.252610738328135 13.147117918133281 16.96198819630158
Na 12.122188450469912 15.612281588082011 15.384345002516561
Na 18.08879524348335 15.444253427543922 12.638191496935752
Na 10.969816422244886 13.536751968856139 17.971568218372308
Na 16.635632480136486 12.764857001582543 14.147255741273328
Na 11.918145431538633 10.47561438291609 16.590456904754237
Na 15.15729602956086 9.986584730023147 15.417728144310452
Na 14.419216889595186 15.062043989056836 12.500963982822022
Na 15.82971039159134 16.98779621573385 9.979704426666178
Na 12.482494037958816 18.007611878541244 12.874790080098599
Na 12.871380705984269 12.351318451699928 13.767331458434139
Na 8.572243313093292 10.927753123986518 17.520038401501015
Na 12.337085344241409 16.3475229282409 9.71945909119256
Na 10.710715148656925 14.87974801429479 12.300680807829977
Na 9.570748003209097 13.054495295198599 14.844287333363889
Na 16.64026975560507 13.362632208963387 10.243820604981998
Na 15.245870710247994 10.500559688217919 11.906279526432789
Na 12.609487337620541 8.867160437801642 13.432023474811173
Na 9.850468041660713 14.014291175705152 9.040522724704527
Na 9.237672261063945 9.552008776139544 14.417568445161553
Na 13.076019036332218 12.960500781787193 9.994890440725342
Na 9.99859605568522 11.594333094659403 11.500647456382275
Na 15.412097991738435 10.730164057441078 8.501913007747172
Na 12.540978404690138 9.571749928732808 9.908576607277363
Na 9.897500806871603 7.977434913394409 11.491024977801917
