26
Energy = -26.48259673 eV
Na 8.971196140979815 16.51906925869267 14.86794991885695
Na 10.65772295534195 13.486797880009327 15.875205200273694
Na 8.546893551582643 13.40865827298318 12.940359446050104
Na 12.426707371079539 10.617758514666958 16.487016360657286
Na 13.985869361415611 13.663451133307273 17.95961129846371
Na 9.510241958947946 9.962906162915885 14.136086013640444
Na 12.417319447743568 16.589312379356944 16.017343987549136
Na 8.072439298723575 10.660779530769444 10.842360772560125
Na 15.810426077926758 16.670800915217775 16.82553192541313
Na 11.419668365838023 15.658779549454723 12.629417880892381
Na 17.362809734601647 13.604519338427853 16.470628075648964
Na 14.189277380373548 13.831393139363275 14.58857157409593
Na 10.368279869620178 13.350952260495426 9.890087102198843
Na 9.87361783380014 10.508408184577751 7.734491573706594
Na 11.28067014094971 9.268028028581917 10.734996546180867
Na 13.027834617514454 8.521406644783383 13.832286598728032
Na 11.92077074011952 11.971607302398338 12.823685028259368
Na 15.643256317335013 10.62729539203413 15.188014218124591
Na 13.998117883594215 14.344412818591765 10.808554927154365
Na 14.866110910040337 17.012377252906997 13.30087123907024
Na 18.26505152682056 16.35639364679564 14.224457273953801
Na 13.159108806253435 11.577605020965533 8.590219391797898
Na 17.09606890873728 13.280441848174824 12.820906060465235
Na 14.908906268475503 10.697487793153115 11.634633530957453
Na 16.56961781811042 12.84369126639831 9.16041562349935
Na 17.292614636706013 16.113731148745057 10.727055721064737
