22
Energy = -22.10240976 eV
Na 14.219707835507712 11.722069088486492 16.865253351919893
Na 11.767240147462832 9.388753770406518 15.747463343223078
Na 10.587197768645755 12.78158178720352 16.581342902483552
Na 13.985689899461788 15.038555054431914 15.904915688043594
Na 14.556471953258052 9.678005412972148 13.514284513494367
Na 9.402995898666637 10.44440246033207 13.326421772897453
Na 11.539226424236135 7.853577408510595 12.559439066562513
Na 8.272955243409923 13.669007769538464 13.64989430045677
Na 16.082055858865072 13.097315945495927 13.847365945690202
Na 13.783098846963906 8.67176725749175 10.10939668144761
Na 12.421463708532132 12.492946458847781 13.82076943823578
Na 11.720973856252916 11.701962880683388 10.767745523062308
Na 10.846182746752943 15.841450120895777 14.297534398426597
Na 15.143443387925235 11.939443842394589 10.699025027751249
Na 13.648652485733772 15.230750743758366 12.149696748985024
Na 10.086477412442978 9.213963678486202 9.283761663125595
Na 16.685391630203508 15.020615757716396 10.539959443685051
Na 8.063031201298402 12.073725941707192 10.48751332523897
Na 13.258902190078512 11.134526783577458 7.523113658624676
Na 10.23245759773335 14.92051936907424 10.852075443127745
Na 13.299523797508485 14.425077874533903 8.777314865747236
Na 10.14928359837411 12.62829042092975 7.63959355312822
