23
Energy = -23.10574335 eV
Na 15.204916993023245 9.743984774226274 8.18033880422467
Na 13.283048681449223 12.520177624659011 7.452727483554249
Na 15.909749619728263 12.853516956580163 10.092211190292886
Na 12.985740296760842 10.966503534378303 10.97298969560415
Na 13.833188052965875 7.3672987717773655 10.28863767170235
Na 16.44364035161344 9.548340030920112 11.535863901181546
Na 11.374214176269172 9.56683202532679 8.28375187449495
Na 15.221622374961802 12.24925528080983 13.596299612838171
Na 15.44175342851154 15.488738662493732 12.497776846619391
Na 12.685662810777064 14.496975495569828 10.250708072291015
Na 13.57947291189078 8.77639044790612 13.741574010936118
Na 13.184913465659372 11.197623984939272 16.18061750014353
Na 10.685109514149852 8.144864559968731 11.6682671627096
Na 13.292873580604427 14.897474673940446 15.66863137760448
Na 10.196656618468374 9.946935781845239 14.579308327783009
Na 9.871587330240947 13.145041090082117 8.273494201541578
Na 12.137008614172663 16.784600211094467 12.814853162215186
Na 11.606589511058328 13.003127836807012 13.355056300113905
Na 10.18209803654594 12.923714761606199 16.834768839370522
Na 9.622567605834934 15.7806409303205 14.95752920560813
Na 9.304999973868274 11.260017652432214 11.079436830551812
Na 9.266358733498215 14.871478516932216 11.37907050206316
Na 7.890336303690658 12.783151886435695 14.031676972815793
