27
Energy = -27.43746406 eV
Na 9.996709812838741 8.318313128838993 12.03620329545417
Na 7.833286190631185 11.028377347210233 10.572718849501262
Na 8.078188113621923 10.66081474103538 14.1112524433992
Na 11.379285129706007 10.014872672506721 14.84333019827598
Na 9.972463625535678 13.07629512629594 15.992799680935445
Na 9.437144898243782 13.670224471101717 8.841508943495423
Na 13.59794811842696 9.088889301679146 12.108720109569154
Na 11.25974880879231 11.47666704891334 11.06779238339198
Na 12.009637211005458 15.516229375546976 17.465491164307778
Na 9.105884795952985 13.750453950082534 12.625349493659007
Na 13.43200890661002 12.210761980329448 17.41370929566002
Na 14.895876746981829 10.086147762547023 15.152657159175655
Na 13.028032630436268 13.272971422017196 14.00681941406433
Na 17.353248202318515 10.598261280442564 12.869280861525425
Na 14.734471235739806 12.188086767304405 10.870282185260361
Na 12.930908907849894 13.549985952162512 8.069378643936748
Na 12.154560859491307 15.135747040608585 10.998016411917263
Na 11.177816195160771 16.380229723684284 14.22608464178346
Na 13.950884631253091 18.31258360784965 16.06759998665825
Na 17.274093102983556 12.089436118337439 16.567257950986953
Na 15.45222104889009 15.105351319246477 16.42368917224272
Na 16.453230343431215 13.82029420695025 13.330497840660747
Na 15.584849950398084 15.420268055716218 9.845991672118759
Na 14.638301517935902 16.759904321692705 13.014360519138375
Na 17.318075525510043 17.8284849908289 15.15026279523792
Na 18.28317484689274 16.492961407902683 11.99523582753083
Na 19.15568075047552 14.709835138221932 15.163605222792498
