26
Energy = -25.7685999 eV
Na 16.675952660998973 14.241597415104852 8.560069500023044
Na 19.586214532966085 12.831921823686224 14.365949766740417
Na 17.968938723759216 13.451583366424517 11.485964134296603
Na 16.93760411331236 15.132168420773633 14.433956723355754
Na 15.308095663514948 15.907206017060103 11.523378029964192
Na 14.26386684658572 17.493038339998424 14.41138097661863
Na 13.719351809700854 15.571651504576804 8.60790447153277
Na 17.28006311097818 12.734747691012839 16.84946124929069
Na 11.800057449578107 15.992457415869879 12.039337649323434
Na 14.695811941760105 15.039201174090387 17.071886007801776
Na 14.29504364227289 12.588608758154459 10.731495382748543
Na 16.195919159398155 11.492131963131644 13.69244706316104
Na 11.54401867859445 16.019150551320088 15.808329079379213
Na 13.596132574689998 13.819972196322476 14.010489738343228
Na 11.090613469464765 13.623734531843251 9.189107260837789
Na 14.686632681522584 9.117287344344852 11.573882714796264
Na 8.689747887885218 14.676295730459533 17.481661843072942
Na 11.873837029273457 13.817753206101813 18.58732680582301
Na 14.834648883506558 8.350745434483457 14.99311483839594
Na 8.599603536238583 15.282590604733114 10.724658502269689
Na 11.700997160952603 10.18199523920339 10.218925506148656
Na 10.598498695263963 12.408696261081463 15.717010074696747
Na 8.70632893592398 15.109363156898874 14.08362238178278
Na 10.327849637772418 12.59692737717522 12.342836625475424
Na 13.92364245854951 11.472509636464446 16.682926975873723
Na 12.374279392887821 10.38868710925705 13.727454999509158
