28
Energy = -28.92397008 eV
Na 12.624588401249657 15.133331215776808 6.5120609839642745
Na 14.679032605733422 9.573922594981081 8.370008307630952
Na 15.307893229922074 13.13913778223492 8.141291087366074
Na 11.859150094250843 11.953049923572872 7.878953694208921
Na 12.890114057971024 15.118476509851828 10.076541379896765
Na 9.666232023538448 14.681830501340675 8.5469263506869
Na 13.810864892324233 11.645376001196686 10.941621470782628
Na 17.148633911541737 10.795881423042985 10.580309091262345
Na 14.645187115280327 8.524340869793576 12.156550977909001
Na 8.50873885517089 11.19701674115609 8.873527415075971
Na 16.077900976374416 14.205263776396619 11.741184490547663
Na 11.302897011346952 9.312420903143472 10.39796912853983
Na 10.304716255998477 15.932088063873234 12.747896735709404
Na 10.415069619042422 12.674692291978165 11.349703006886601
Na 8.59684010781679 10.115010175508223 12.697780528305886
Na 13.90571692851515 16.952094012498893 13.00940890088582
Na 13.023074581047249 13.666910009971149 13.503667426126551
Na 11.978347083079395 10.210836272443496 13.903302591961234
Na 15.729644756949472 11.37087974124189 14.15467624609393
Na 9.835673166068206 13.000021633275532 14.973436656200999
Na 15.674927643730188 14.627532798002578 15.707665602515128
Na 8.630717324346895 16.12782278255311 16.190915569268917
Na 12.17544903587537 15.746218335846859 16.100523143257625
Na 14.381590054181983 9.017786164231362 16.475172179913034
Na 12.94337525441456 12.13433911690043 16.822886379313285
Na 16.375770940768188 11.810279688906405 17.741567451621297
Na 10.572471068610556 14.190515156715396 18.660552691699696
Na 14.220386811937631 14.427929320652405 19.02890431945491
