29
Energy = -29.51411912 eV
Na 14.35013390384781 9.233164537859953 11.286045188039669
Na 17.58728728900622 10.245630372508142 11.362844076989688
Na 18.627489057901958 11.592794235851853 14.423214356838944
Na 14.88241749259233 11.833828494754131 8.919514843417847
Na 15.376361333916035 10.046648475615326 14.445195880767637
Na 11.407997087129115 10.429215595845676 9.832922204088376
Na 18.161664804332673 13.066645927902393 9.480401773442265
Na 12.323167951365217 11.190962138248041 13.23015933454802
Na 15.432259699552775 12.870251481233288 12.279974946235868
Na 12.387018879941188 13.692068042309918 10.539684834984994
Na 18.527153429954694 14.68635551851804 12.501010337934696
Na 15.691217162396546 15.347378321868113 9.801279590464585
Na 16.689647635051365 11.198693853888582 17.349757093977235
Na 13.206644503738287 11.780209363628597 16.515649253326597
Na 16.386598300173745 14.03373346773612 15.395428821220037
Na 10.022119026705719 12.707788014148788 15.38769566471998
Na 15.011749880324793 13.906278592639358 18.524422854978
Na 9.318192351261686 12.16826628229063 11.886042089647631
Na 15.831006947350751 16.689938083041486 13.28762362396652
Na 13.072910483276686 17.021422618113878 11.018011542282661
Na 12.950711933565248 14.619332057905904 14.270433678516099
Na 10.134088913169805 15.671069787266546 12.210831767399641
Na 11.513815183143418 14.45517974613121 17.97675952955451
Na 14.945604612599167 16.911315356770324 16.56095259943044
Na 7.249319816652231 14.274342113102925 13.649716067376124
Na 12.584024277706224 18.131298837636514 14.096577626543649
Na 13.576936159665555 16.69022870953557 19.812516486843656
Na 9.493506984750155 16.076222354209836 15.548019569121617
Na 11.680577587809248 17.958784677936265 17.323805042862627
