23
Energy = -22.75189288 eV
Na 16.093001759916607 11.706448432523187 13.673158231546662
Na 16.808306008176743 8.915639987899368 15.912518329760733
Na 15.332751279474603 14.375164710841489 11.218686235437382
Na 15.653942683062288 12.167566886354704 17.20275572960344
Na 15.007036151118625 15.035964722067586 14.930025370801783
Na 14.619392482537775 10.843795361012296 10.353781948681009
Na 14.166610801249428 16.99717929660433 8.67085634125385
Na 14.137803046000835 17.520985949107196 12.376197565454016
Na 15.314279291850413 8.31266184609858 12.773032980621705
Na 14.057481385543397 13.497416877020546 8.007365075576876
Na 13.421984502865929 9.878152815810328 15.439076154065456
Na 12.37409578978218 13.237793567151916 16.576586928286996
Na 11.095300856338271 15.049435340835673 7.3917477847916695
Na 11.641332149067576 15.942628658918279 14.374900379140913
Na 12.718690731377118 12.634492476792058 13.015739727774857
Na 11.911213259359632 15.362600071615802 10.747499617190972
Na 8.979804317946014 14.13129561204224 15.861065237768535
Na 11.970035148506703 9.202909668964855 11.987913348573644
Na 10.10315896635038 10.85175941669492 14.770143260797457
Na 9.359213820270918 13.602922842584055 12.401871478561503
Na 11.249375347425195 11.966283191384443 9.612016530893515
Na 8.648504033031468 10.231561454336534 11.569004960129297
Na 6.725385879238944 11.872681210280264 14.337997138634716
