23
Energy = -23.33697496 eV
Na 9.389288572834184 12.06498790949855 10.36232694
Na 14.007017034907015 10.36232694 7.411206616006694
Na 12.153830052355328 7.233803989085864 8.538464772874615
Na 12.153830052355328 7.233803989085864 12.186189107125386
Na 14.007017034907015 10.36232694 13.313447263993313
Na 15.065933443004898 12.50672892737732 10.36232694
Na 15.065933443004898 8.21792495262268 10.36232694
Na 6.307886314692647 13.579633575578905 10.36232694
Na 8.510428856998244 13.526551713795513 7.37841131246183
Na 6.830119903964173 10.36232694 8.519527962903213
Na 6.830119903964173 10.36232694 12.20512591709679
Na 8.510428856998244 13.526551713795513 13.346242567538173
Na 9.693461477553166 15.458542489343138 10.36232694
Na 12.153830052355328 13.490849890914141 8.538464772874615
Na 10.368558197706179 10.36232694 7.05330759052278
Na 9.389288572834184 8.659665970501452 10.36232694
Na 10.368558197706179 10.36232694 13.671346289477215
Na 12.153830052355328 13.490849890914141 12.186189107125386
Na 12.351954093261941 10.36232694 10.36232694
Na 9.693461477553166 5.266111390656864 10.36232694
Na 8.510428856998244 7.198102166204486 7.37841131246183
Na 8.510428856998244 7.198102166204486 13.346242567538173
Na 6.307886314692647 7.145020304421097 10.36232694
