20
Energy = -20.03411156 eV
Na 15.180137248490535 13.882447360621278 14.513494457160725
Na 12.804661511003204 11.513153897863178 16.355150480883353
Na 13.015007264631677 14.941633876445875 17.18477249890787
Na 14.96975452749619 10.392930041000533 13.660283470342346
Na 11.48644979248979 8.926035184851218 14.334387196578444
Na 14.477575785717608 14.667850430056612 10.978111765419944
Na 10.187659213313808 13.48845471347809 15.65201389689833
Na 12.426678489432216 15.933550151609364 13.773302164010966
Na 12.237578224919579 12.341439181604443 12.863823468637495
Na 17.139450371294437 12.5985974270677 11.670193083917862
Na 9.560508778819942 14.419129015874361 12.19428463369256
Na 8.82039489607188 10.927784467293003 13.629882820880932
Na 11.737953021699967 16.606279260928886 10.215939547050773
Na 16.929430454099673 9.1524218212318 10.874262013048437
Na 14.257614506575225 11.125776570530832 10.009935890867443
Na 13.643424799753202 7.856256943876615 11.619808604792578
Na 10.825503725208115 9.695692711243163 10.843403921068619
Na 11.613391509688237 13.08902358070543 9.29339190152292
Na 8.910052900992872 15.108826226772388 8.695661049925391
Na 8.233881015772834 11.881325375964803 10.169162078864362
