25
Energy = -22.28946691 eV
Na 13.387075308792452 10.265518369774682 16.96848849247543
Na 16.86515298872505 12.756091078414142 11.518192997207889
Na 14.315647764255083 13.559241312001841 16.94128437151766
Na 16.12906304977992 16.13216289741256 11.152340595524887
Na 13.07292625042621 15.26133842471559 9.2364057151117
Na 12.391284467013554 10.42098981259434 11.994628065584866
Na 15.261510900773287 11.471762263169413 14.286800251067167
Na 9.776873181784792 15.876842779116284 9.008224867865142
Na 14.156348838411862 17.285769995993167 13.612318481161852
Na 10.650771593555012 9.093367161406922 14.752389300363186
Na 15.685450429024316 9.437399694235138 11.446295349839382
Na 15.153846868275718 16.89321361022192 16.948082382054015
Na 9.127591022396295 11.361363762769441 12.781900065191618
Na 16.4540570647319 14.767710027515264 14.431024194196562
Na 11.9182764873644 15.987286977624281 15.827389531680838
Na 14.0827601958984 8.130936958444602 14.125422646796254
Na 11.148979601898525 16.082990311607592 12.26045106750387
Na 9.03581279559069 14.77545156593161 14.65559176647305
Na 14.172722217425292 11.738238180648178 9.328015220969656
Na 13.669220310216515 13.81559524053065 12.354409678949022
Na 10.882923735807854 12.748858590533674 10.135640571964581
Na 16.282302313946374 14.257982966285155 8.278615745611908
Na 12.253331008017852 7.039774496012235 16.98282317655243
Na 8.083800112741564 14.33086745016258 11.44950522691605
Na 11.626374090476485 12.566437424578176 14.844882346654254
