22
Energy = -19.40460095 eV
Na 17.22168969533661 15.741302929612765 11.806498793683334
Na 15.037738771696553 15.40538704044566 9.227428058704074
Na 15.66252552676139 18.476335785284448 12.893451762596703
Na 15.267639918987689 15.84577778091463 15.336986299447625
Na 16.82626859123963 12.84142532993168 13.513671200982653
Na 13.037891884602184 18.53737701387964 10.595328787261735
Na 15.90570502358028 13.084884488700053 17.19415103679052
Na 12.736865913316807 18.37299143565163 14.563972315025815
Na 11.696927847867277 15.020852701567343 9.440087843798795
Na 13.702181592619045 15.54636274735155 12.399062677571234
Na 10.54143224109552 16.978010558233432 12.286384938104357
Na 13.916330896223363 12.417673175584827 10.879793952406247
Na 13.650215966648727 12.50841664786515 14.468121328097624
Na 16.39548286423208 10.081624579597447 15.762907279528727
Na 11.610018053877566 15.207450177663079 15.258769521801812
Na 12.910641353214755 9.58967177508817 16.26662246657105
Na 10.786272768542494 13.39297476412092 12.321822439198876
Na 12.530960337391335 12.799942036888519 17.742954437717522
Na 11.991725015730273 9.880347233955332 12.875865827452431
Na 15.398072366155423 9.780726026273358 12.485612903689606
Na 10.234945887183947 11.77023024742559 15.34095119699842
Na 14.744249142680419 7.134503840727482 14.778426853943298
