24
Energy = -24.25300915 eV
Na 12.541059078192951 14.808246233180526 15.228119962249409
Na 14.439091817640206 12.10543759196207 16.471829831850524
Na 10.96655245309103 11.725704734944248 15.812402149045347
Na 13.535565907158182 16.42785598132874 12.370179296640341
Na 9.038666176639868 14.47930928345187 14.726367669363809
Na 15.79516622294763 14.12601180949882 13.79745626300641
Na 14.480883036437742 8.671462170090393 15.185136077849092
Na 9.790530637180764 16.72959726312101 11.928508905878486
Na 11.072376009158836 13.481663790472755 11.867954248213357
Na 17.309520351037843 10.691854209772714 14.88283721464839
Na 8.50684270315133 11.24675076420912 13.200785904728672
Na 12.076324927992394 16.017199560668086 9.133114548651518
Na 13.64404773914534 11.273761279855341 13.013781785595288
Na 8.663182033502515 15.367804626405423 8.738151104620673
Na 17.156988503827197 11.646717600261773 11.48028057376727
Na 10.867405300240033 8.773661311516538 14.063038977294037
Na 14.472254896308824 13.680854928069818 10.382061646853549
Na 16.779387369263954 8.306170694129879 12.374406866853796
Na 7.060809972859933 14.572256346423803 11.749557181150633
Na 11.661684391923687 12.569767680651626 8.403200615930432
Na 10.975138675608878 9.991684557246627 10.764248245395182
Na 13.397451920236561 7.599544732444166 11.833729138305326
Na 8.301781288720758 12.026515539805086 9.631690537233368
Na 14.39988114479323 10.20065441392422 9.634480800455721
