22
Energy = -22.24231278 eV
Na 10.434688225492817 9.490491472355732 6.4268778817507775
Na 10.925145699894262 13.13562227507576 7.30293624439759
Na 13.626028668852683 7.743264273218242 7.379543703122584
Na 15.877639997562442 9.9767183391751 9.429542164922303
Na 14.390276984075916 13.431499015421995 9.21178012875481
Na 12.487712966936636 10.556722189709383 9.002565765388267
Na 8.238842680936454 14.549152542304261 9.577214403305685
Na 8.607702292195908 11.031380014766903 9.12876264921594
Na 10.292515499880698 7.766573288564946 9.569345290900408
Na 11.27121963609571 13.40571039507667 10.750778783230649
Na 13.524963154731164 8.041821284137862 11.346647032152497
Na 10.85385928819093 10.271137515741197 12.01460438979793
Na 10.45246534277094 7.08018536807765 13.237455803090828
Na 9.841926586142348 15.692163163466251 13.007280919405265
Na 7.625939578567637 8.95209626557773 11.856320538848498
Na 8.189471955625114 12.544872725954527 12.59994159088386
Na 11.501628283592058 12.825037981629833 14.39401091828395
Na 14.357839667535258 11.533578369778256 12.296380082576645
Na 13.708830940539967 15.030675823682978 12.569790198917223
Na 12.875538794926316 9.384392238117702 14.725981663587742
Na 9.21228488902872 10.084576383114243 15.075060626333558
Na 8.45455230508811 14.223402513714541 15.848252659795227
