23
Energy = -23.35546111 eV
Na 13.88392945071547 11.76884520571796 8.265057582513256
Na 10.006353030958246 11.714886521959281 8.425021411444241
Na 15.016024870209145 9.061724734414303 10.348010201379822
Na 11.798908973829432 8.426507063078587 8.463380455572894
Na 17.434272476326427 11.956631388228995 9.067913569447454
Na 15.583651780638872 14.930777493030837 9.408594001557361
Na 8.821000779279109 8.915373211213222 10.814587963611348
Na 8.625455555157043 14.964219424358285 9.411912948434315
Na 12.026652107919684 14.249999325660113 10.008430815607667
Na 11.89408724251281 10.631200642916863 11.010944649652075
Na 8.627993833525945 12.281349173536098 11.774597157081285
Na 15.124357333462433 12.38866882823576 11.692378694380096
Na 9.94485960845876 15.50138738695623 12.760950442083654
Na 11.950602708576852 7.2935104239348005 11.912213029748605
Na 6.567654278071931 10.261514035821428 13.987405290420313
Na 13.870787008937679 15.631957436837778 12.707588266427413
Na 11.885262225996497 12.764142835698886 13.45885479026962
Na 10.030773311499715 9.589404671900674 14.079616884214504
Na 13.789046245122499 9.765464722910947 13.92150820344486
Na 8.735913399626385 12.731603975919446 15.279310948853382
Na 14.951626909609002 13.104217469798149 15.19203942905092
Na 11.986438204676183 15.14197932812502 15.850232759292886
Na 11.93954993568782 11.419835970544955 16.654651776310146
