28
Energy = -28.68474794 eV
Na 13.04134547167285 17.098286975832544 17.311962346104355
Na 10.876986468238314 14.113142404761929 17.638333147523028
Na 11.807835538342463 15.230148098339194 14.461700271837394
Na 14.47535726521084 14.02972635252616 16.297008608070595
Na 14.937489290854321 17.389683581041588 14.356843444720901
Na 9.028235628677923 10.894500810524478 17.919509413131124
Na 9.210581475577241 12.522843308615679 14.803531115113469
Na 10.006894916909886 14.115580694934192 11.641985254452125
Na 12.833303799906497 16.605173960226463 11.373637160894253
Na 15.040089186508734 14.151091701395647 12.831778719683795
Na 16.23185790501959 17.718910317540885 11.03414946004671
Na 12.263309038634992 11.1444975445018 16.40871812743109
Na 12.33223419838118 11.827449379057482 12.991837471842862
Na 9.711144004827384 8.900630092228612 14.993924656524635
Na 8.919846285873707 10.385339153059842 11.963331958625412
Na 10.991681505169483 15.358059479547595 8.540683934478178
Na 15.526394033501571 10.825685812729628 14.854491370451582
Na 14.691468572863315 16.158829673165876 8.34193006172943
Na 18.22638898249445 15.877044187496697 13.194881014300183
Na 10.331335144254181 6.878274864959144 12.113771350172035
Na 10.133505234762323 11.819188928112439 8.934856820587317
Na 13.414619182025378 13.081331243011817 9.814611860923316
Na 13.188639437632771 8.381096196524963 13.562500320449757
Na 17.097611096795998 14.285865799676616 10.127404034905723
Na 18.11447874400019 12.292583401093452 13.018110689584582
Na 9.047693846103227 8.289803254297743 9.132419896864226
Na 12.23532901957134 9.33239124325044 10.3169469059729
Na 15.508268526817606 10.537669188000239 11.437201494424759
