25
Energy = -25.67751462 eV
Na 13.081622965569853 13.557430116882305 6.714613495634672
Na 14.724441492621166 10.245237106518642 6.7756480844363605
Na 10.854263037599809 10.341972656250677 7.131478337334692
Na 7.49329225202879 10.83078848605095 8.70874364581218
Na 9.164626100435704 7.4836196490661715 8.849502101942345
Na 16.067951899776453 13.072232483661791 8.674668808033722
Na 9.93003107973945 13.475168815126803 8.867826739843354
Na 12.746828041446554 7.9368627568242145 9.399420972966986
Na 13.12975250623459 11.467006695258542 9.515876013381389
Na 13.147201046788094 14.931205413872732 10.082575315289102
Na 16.021330684480887 9.705888822343534 10.183041383962244
Na 10.166554009587898 10.052498443525096 10.682678009601606
Na 15.024871378088616 12.55105867090012 12.298677382130164
Na 7.110163278972632 9.012517661265488 12.140696546655189
Na 9.774652820097934 15.598370439786407 11.794130854770142
Na 13.295806427301674 9.248833317494926 12.724637511926105
Na 11.40136969895941 12.596126643807235 12.323215719728603
Na 10.307047831348306 7.036669132877561 12.430675183931102
Na 7.750703992899781 12.474481486813565 12.01802253591781
Na 12.799162006960072 15.115653767606032 13.911388491371405
Na 9.888404737417707 10.030207614366223 14.35170104557294
Na 7.721871775181674 7.522809865730249 15.268455168243898
Na 6.629320817970777 11.033891162877094 15.226215127522837
Na 9.31050152710636 13.436092046242527 15.106563066088944
Na 12.960596733652205 11.745744887117663 15.321916600168443
