21
Energy = -21.30423679 eV
Na 9.50562177586409 10.396190880262997 12.135936242879875
Na 9.934210420176985 13.678182937479407 13.564007760772629
Na 9.104390659254019 11.158460261400448 15.743625036227897
Na 11.594143009716237 16.496212800955742 14.842053920111102
Na 12.283383629109336 12.285751639154466 11.116944242636169
Na 10.803165491093033 10.522582861537309 8.57492121622069
Na 11.760047513818904 15.848704724709867 11.20827642967811
Na 8.914310964106166 14.732886687463848 16.83565470454884
Na 9.149179301827557 13.440115630187108 10.082114263953335
Na 12.158907244957874 13.92889367318143 8.04741137241242
Na 12.893732768516456 8.856313239053446 11.16878429269506
Na 12.33098437920474 10.525147484350036 14.32728086187695
Na 12.044403135611859 13.167075129333993 16.65216173663866
Na 15.02099295860297 14.42162162873158 10.301319230040999
Na 14.747504309557938 17.109915778501637 12.738439339033473
Na 13.684571931857008 13.957446457345096 13.702428951752156
Na 14.43466361842501 11.116206737102251 8.49604740039738
Na 15.436463000133095 11.660160196957689 15.5786697593425
Na 15.09052901181401 8.354267609776736 14.04011586118046
Na 17.088124222140607 14.176513639986688 13.274710898566592
Na 15.622213184746288 11.171414587783072 12.010613510346953
