28
Energy = -28.92030852 eV
Na 9.983870593955231 11.522448424696554 7.850751120250725
Na 12.317352080521788 8.778693118870065 6.717035900087355
Na 13.60933836419013 12.001767289699202 8.115695928199104
Na 9.339078361051266 8.108356624129346 8.579771072970932
Na 7.280395801169671 13.59807875990422 9.693568305985844
Na 10.897842496218312 14.218882650997188 9.882239273485917
Na 12.14744555691945 9.487980958753905 10.103331978876964
Na 14.2683435921594 14.871947022931773 10.161150730047268
Na 12.401248966257373 6.201425998452423 9.45985304801453
Na 15.366312837735308 8.761324142628348 8.671271681952819
Na 16.034369974055732 11.727770448659946 10.716229062463539
Na 8.512772422689249 16.409976781360555 11.476291444162117
Na 12.807329395389173 12.030596607406995 11.999943085245048
Na 9.252954043475937 11.18083958574837 11.366400700326441
Na 17.746699121540562 8.757909559958563 11.625588460606822
Na 9.825391456747742 7.768244121777713 12.228934163087226
Na 11.989530978674262 16.73575834152844 12.500580555408813
Na 15.473163104753532 10.519207459214336 13.983684871626613
Na 12.17759497223734 9.149927375675622 14.168046662156472
Na 14.618747223939488 14.22564818287587 13.791353501381625
Na 12.540761557130304 12.141779403454894 15.918940286070129
Na 10.543702987866109 13.8904054823266 13.540583446684172
Na 7.1858381569683605 13.801104584902427 13.447339950368253
Na 9.096353537177798 16.809389128413763 14.886412370723459
Na 14.48189866738914 7.635360600532526 11.941845845104533
Na 9.181186959533255 10.647966566546645 14.809659357766057
Na 12.279406496201753 15.765145157387513 16.15850764046867
Na 9.182233374735917 13.793228701848935 16.74615263716114
