22
Energy = -21.84036132 eV
Na 9.938974671742583 11.18900456574147 8.460921960851604
Na 15.134525964782664 11.26828318711154 11.322123615189804
Na 12.99720312664758 13.01580875324418 8.936946601689492
Na 13.090534029360208 9.259858732131661 9.147664965225488
Na 12.601727853199618 16.595057403783837 9.917881077963095
Na 12.278279760831566 5.756374263012395 10.165518073898346
Na 9.81890296982327 14.343899675284735 10.42846807531164
Na 15.761109761254206 14.753052246382131 10.667096851137398
Na 10.045264560153413 8.22473380425342 10.87681690162975
Na 7.961914056016064 11.409220765522445 11.611569753723844
Na 11.478024184385214 11.293143199669135 11.612569870105652
Na 14.133318510970785 17.216837346085665 13.234373488510395
Na 9.485576650682628 13.543410773835317 14.01062965620106
Na 10.678458864535983 16.89180279030378 13.105959854591985
Na 12.796475846137707 14.154245212337555 12.37335341645878
Na 13.204971785061154 8.416051386417669 12.692175751760418
Na 15.704750642875673 13.545512914466705 14.143275256954665
Na 9.894449971544047 9.90788459466603 14.363981273376599
Na 16.190951788920408 9.912687918346446 14.333023980181922
Na 12.468774398791782 14.848624024595168 15.686736262360652
Na 10.392849136281372 12.181106902785935 17.123647898355838
Na 13.044482329845177 11.374920403865351 14.886786278364152
