23
Energy = -22.57543093 eV
Na 14.382989236677163 6.979627563364365 12.96458822393104
Na 15.699834732449034 9.918642905975103 11.43254738765673
Na 16.893889919524174 12.825147862275164 10.07571034430065
Na 14.755449558014538 10.029678279190351 14.742763653011657
Na 15.596166514707843 12.946275519115629 13.283128293514878
Na 15.41072466149265 12.810085736741723 16.74527536083436
Na 12.232600839329164 9.339224956209947 11.510884232004559
Na 17.024716453823864 15.689566554696658 11.997807438600832
Na 11.790008301927644 8.488856198967492 14.786807502728829
Na 13.462319227408155 12.268647641881191 10.02135723460134
Na 16.144404093803807 15.831337471346316 15.28245359640146
Na 12.041961296139677 12.804311034889421 13.0955933388122
Na 13.67050311134623 16.007937115157258 12.59362914988767
Na 10.101193933977548 11.561193825651987 10.071781305974474
Na 12.083155929283567 11.531834771100671 16.50549113387057
Na 9.520903443041838 10.709880470665736 13.506053970803348
Na 14.608773896410705 15.445468091387268 9.321092860869987
Na 12.797811589907345 15.021428576552896 15.787902246809937
Na 11.156031654671615 14.973409783061195 10.171191690428806
Na 9.569336317979928 13.666544486125877 15.62284175979094
Na 8.366268149120833 13.700077715402218 12.165376705111145
Na 10.412665515778217 16.3029739293247 13.589789245707639
Na 8.292370082674363 16.846589690320563 10.933325626226388
