24
Energy = -24.53510867 eV
Na 10.716117910418484 14.91076103639604 7.927603794616702
Na 12.2331842671738 12.094133975794957 9.483272260915266
Na 8.774807208436709 12.048903953724851 9.030856532342861
Na 10.789320958871201 8.916232927838294 9.910174742083669
Na 13.428712294789452 15.48123018247957 10.247952319224675
Na 14.466926387785398 9.110584970681462 9.352044337181129
Na 7.610544345332412 15.947299898834203 9.013645217699292
Na 10.475861300968385 17.900063259927535 10.28585511605016
Na 13.220416375725328 9.972153748683285 12.38128858313979
Na 9.837042118294523 14.620384343693598 11.33221941290527
Na 16.633626928158854 8.98356007437893 12.454314081886983
Na 12.695026517798468 13.248280998156698 12.894039538866375
Na 9.690318838758445 11.158865124659226 12.338498740969294
Na 12.029567340009494 16.750271016120852 13.273994599842704
Na 15.595362157228672 12.336824476887411 11.053754861368216
Na 15.577253940356346 15.112956103232928 13.334471746523871
Na 15.517849581082581 11.60632885380365 14.667943984245888
Na 10.80367220014172 7.9618835063359485 13.714743756699976
Na 14.525690512995505 8.143980018378905 15.091005910434655
Na 9.887124241416725 13.681202562635594 14.945165162978988
Na 8.521466639253648 10.330765960383859 15.543833023707066
Na 13.698562215638447 6.56304255982114 12.000390600912164
Na 12.026352740101737 10.933393421852896 15.671522349123213
Na 13.318317563648721 14.260021609684793 16.124533910667708
