26
Energy = -26.04966448 eV
Na 13.255041245756093 8.44684157066487 11.058553610438098
Na 10.991130194796911 8.264186273819746 13.740209345749124
Na 11.2843868732859 9.99739607281155 16.55136479210939
Na 13.721172692255847 10.291493681886356 14.097807348872733
Na 14.089641432841807 12.110582365598752 17.019876862687067
Na 16.02965100664699 10.554961904484404 11.652461486030193
Na 16.617072126033026 12.392751197334071 14.58335995929223
Na 13.081484223915174 15.122640222390961 18.292616081020515
Na 14.43830964848487 10.295059820878313 8.181762509011556
Na 10.94683074411649 10.757688783986088 8.11239630191993
Na 9.755755537251286 9.830621999897991 11.013625310827862
Na 10.130079465933033 11.75559832353373 13.682785335495577
Na 18.539103323354052 12.942938134439801 11.685691471732696
Na 12.749925952180268 11.941867006620015 11.132754304567742
Na 10.592361654034962 13.410624896687155 16.5495837164373
Na 13.129224177985375 13.77655597274772 14.076494107196671
Na 15.609845165155775 13.328237367798428 9.534968925445233
Na 15.946709358872928 15.186545626195391 12.342182191829716
Na 15.591568890755372 15.569519679093666 15.79162858743769
Na 14.026998643749629 18.44397234479503 16.923867974559297
Na 9.630970187017093 13.3921641808795 10.438585887406155
Na 12.350375120279363 13.782159010743738 8.095703799573705
Na 10.03976442414634 15.24837091024961 13.281489983389042
Na 11.099527541993842 16.81578306166812 16.047046803135324
Na 12.730359966243185 15.606309761677165 10.807547597330148
Na 13.438260961793368 17.354630245597114 13.480225730248248
