23
Energy = -22.67982054 eV
Na 16.307255335688314 14.715393377329644 15.61027367173935
Na 13.432100046783 13.297153182616208 17.313064376268834
Na 12.998538593429181 15.823903209756432 14.71686893115577
Na 17.449389886514616 12.302717883431391 13.139945806560991
Na 15.481358824913384 15.194982334863212 12.123592026804957
Na 14.156665574927972 12.554956918790293 14.050783801013084
Na 9.747338055250982 16.036970379509754 13.751647513715518
Na 10.843436536406891 12.983431519752378 15.156804061739086
Na 12.53895310009219 9.967796173206267 15.660520278343855
Na 12.067534782705101 14.439154940406153 11.58442497130549
Na 14.98944230726329 9.342938048965584 13.1075107462394
Na 8.860924943767982 15.449245396626948 10.58870849178358
Na 15.112961985934323 11.89234865679671 10.72622906705364
Na 11.833709558031467 10.97249023204382 12.21611907216402
Na 14.399169301634792 14.83775321457443 8.914200222711674
Na 9.264503769098662 9.722753735753482 14.274729427354393
Na 11.880210521266202 7.378809374915477 13.158294368217373
Na 11.13282830916791 14.859334541971894 8.234857110728129
Na 8.3996693971894 12.710139049357473 12.856174634867886
Na 13.336275251403613 8.657365420996921 10.036678240654686
Na 12.637475466125865 11.607491488313274 8.470615628399747
Na 9.494978309197476 12.062771719192963 9.701500538816646
Na 9.718050201323958 8.810018750814939 10.74231876059018
