29
Energy = -28.94506244 eV
Na 9.128892098803204 12.598064132637964 7.8324783132666695
Na 12.501437964102273 14.07038705366907 8.444773377515343
Na 9.454041926479237 8.977123855148355 7.979639198617849
Na 12.14510975255006 11.10869892610135 6.493218263787848
Na 9.464275887909766 16.11974488974607 8.822556960479664
Na 8.144835427717215 10.688522975842634 10.875890538178721
Na 11.676678504626869 10.676441218802388 9.887462684901108
Na 6.757544694250235 14.11018131076032 10.356263942434465
Na 10.040803155850776 13.663396970079013 11.150850304391748
Na 15.619048108967837 15.012011116936486 10.466922779123637
Na 15.180908416811933 11.366470332636718 9.410729852950983
Na 12.2713473159672 16.39890040685192 11.439786164820203
Na 17.463675187953744 9.03488957064503 11.691194370006516
Na 13.315451741540237 13.022657770688253 11.874893024226724
Na 16.736996789037995 12.264370523782533 12.774223116752381
Na 14.030639265870391 9.406270848141592 12.272547006456856
Na 8.538469256306328 16.477862782135407 12.418360806198459
Na 10.601826294144365 7.966667185395405 11.90574761784368
Na 14.952390549056195 15.226236462346815 14.181640165018898
Na 10.723190306257452 10.980635157893008 13.494663204710209
Na 7.954485326661968 13.111675579910324 13.89859648686375
Na 11.281726292599588 14.619947653447017 14.525726098265396
Na 16.37641391887194 9.451082268019855 15.144290895531801
Na 13.869430223650681 11.933443437673857 15.012586535942482
Na 16.898258303788953 12.929121481543286 16.375250422623246
Na 12.624815634911155 8.684747526151718 15.438434451539305
Na 13.66504191697707 14.263354196755563 17.563072836836103
Na 10.928402820340283 11.877465159171194 16.915021472447393
Na 14.395170614277266 10.7009369033689 18.094486804550098
