22
Energy = -21.98349546 eV
Na 13.658120241248772 11.32988919067862 10.741469
Na 11.269460691895828 8.493753297777735 10.741469
Na 9.083361365842093 15.20799717078575 10.741469
Na 11.505199456297804 10.74293834770126 13.871894951222579
Na 12.080358390139704 14.121810849986314 12.67413858723745
Na 13.994144603230179 8.426255936825815 12.96388857960431
Na 8.685106267240176 13.067829886343134 13.793939683928683
Na 10.55397140890462 7.301096407826566 13.96627853969347
Na 8.45880445758262 6.47096850029184 10.741469
Na 10.55397140890462 7.301096407826566 7.516659460306532
Na 13.994144603230179 8.426255936825815 8.519049420395692
Na 8.072761651725902 9.563043804311757 8.892276750310192
Na 11.505199456297804 10.74293834770126 7.6110430487774225
Na 10.069876760881334 11.914541912649188 10.741469
Na 12.080358390139704 14.121810849986314 8.808799412762554
Na 8.072761651725902 9.563043804311757 12.590661249689807
Na 8.685106267240176 13.067829886343134 7.6889983160713165
Na 6.60548894351595 12.449903931062298 10.741469
Na 8.841926219309208 10.012739584200105 5.4397988303826885
Na 8.841926219309208 10.012739584200105 16.04313916961731
Na 14.85013502359176 11.986917055721587 13.960079728047104
Na 14.85013502359176 11.986917055721587 7.522858271952897
