27
Energy = -26.9075702 eV
Na 8.758170370985441 14.8496382376252 17.90877101327436
Na 11.342508149989127 16.134291262772106 15.837027929006798
Na 13.810097560161205 17.20942931199274 13.79529169756935
Na 17.07985477834301 17.65382410227613 15.10462631259613
Na 11.940534188749828 13.979535996836702 18.648496226167072
Na 14.79880783697328 15.437881210826673 16.644143732854857
Na 15.117850784680513 13.14262795236046 19.239960912018642
Na 8.30185852869978 14.986925909686985 14.469012357274929
Na 16.674987779914925 16.940074854645097 11.698327724756545
Na 10.787926611793756 16.143081663062613 12.361913010006653
Na 16.973435009228787 14.387183458217995 14.028413168880554
Na 10.214692991940817 12.40577693523657 15.840636084098039
Na 13.073792597368152 13.732293798966548 13.80557209847696
Na 16.867764171704867 11.938891703923469 16.446205335667514
Na 13.682474002159646 15.458226365366423 10.750323377277285
Na 13.46133581749631 11.500733088618597 16.61124320161299
Na 16.285705228820326 15.809770368666417 8.489353390247816
Na 9.841115050370119 12.662783709074658 12.403549655181987
Na 16.743525950316393 13.341788320533059 10.690208923428067
Na 10.764004104047395 14.138813629549107 9.416848032817427
Na 11.94040879342713 10.216781215834622 13.878400770109348
Na 15.661776208157045 11.428070512516175 13.217023809253162
Na 15.136244779380881 8.733655989606254 15.228418593604228
Na 12.86558504212118 11.76141101435597 10.910685028982572
Na 13.966932789934773 13.277922932860546 7.974334772828042
Na 14.405449302454741 8.638232144783176 11.85877616376249
Na 15.579883846780172 10.438287464242096 9.200923334498798
