29
Energy = -29.39419617 eV
Na 8.754739439845252 10.659942318256572 12.250017764850963
Na 9.185800628939452 13.087087758971725 14.770440157666801
Na 8.665077958393917 12.542111630226247 9.351230963418164
Na 9.495077929679633 15.745729264091747 9.974266833150386
Na 11.633113299262968 10.687351341804012 14.306816231283271
Na 9.749815488583053 15.93640286556997 16.815428709787312
Na 9.787834717993583 16.22486590780834 13.32203208997702
Na 11.133177785499724 8.160866184677916 11.872871344471505
Na 11.187385086403498 10.352479631448515 9.086436815650654
Na 11.308176712763697 13.222221307131717 11.890213989848336
Na 12.039843938742498 13.174993222187712 16.758316372134765
Na 11.957298162286525 13.87088096323931 8.525450718610928
Na 13.85888201435065 8.079291972231664 13.909411602474504
Na 12.634623654744193 16.49525567501056 11.211704867024594
Na 12.744002105656275 16.160477282176398 14.885442254199
Na 16.49223672168369 10.245333633100385 13.37426948908485
Na 13.76730010325006 10.600910001401418 11.363634429923186
Na 14.514952237702644 10.625899585790956 16.493913018982763
Na 14.390882669001854 13.173363137142767 13.981974456323039
Na 15.285926379034706 14.088486776407834 17.326985821206296
Na 12.900009212856125 16.273608300524 18.390222178303247
Na 15.58404813833185 16.561681156381272 13.001465695911076
Na 14.796430088760205 13.891402819567775 10.589840488546619
Na 14.416935474826554 11.507597464104643 8.032608742319951
Na 15.46232628143108 17.68321713081404 16.42521087181293
Na 17.16049006093097 11.29117454066882 10.044701451556708
Na 17.683996268641373 12.100230325303517 15.934805754138821
Na 17.97643146512696 15.533418339662253 15.453385019867053
Na 17.63120329440017 13.671636219717623 12.610452498426827
