26
Energy = -26.33465091 eV
Na 18.480882076045187 18.02680495240188 16.170906165036474
Na 12.653841215224935 11.881618679013846 12.381111094525796
Na 10.221614743632593 9.303211348849146 12.608569303930414
Na 14.291788681752315 13.314508985227894 17.373445432930836
Na 12.077126399668268 10.331621145879396 9.505320364631206
Na 12.49033504044254 16.474997198945953 16.512160833665323
Na 15.265606406484913 16.42962126446172 11.179420089442479
Na 9.390044648922284 12.451794222541954 11.165335392390826
Na 12.403554750157726 17.622334771580658 12.973078552314314
Na 15.640512872242862 10.217281621749525 11.147134878461392
Na 12.876563511684363 15.42240493447932 19.856435256620948
Na 13.571989794580434 8.51946051331485 13.396149942046964
Na 15.45358452705004 17.421066885319284 14.84493595035837
Na 17.037666212263222 19.53821098188812 12.765406289633091
Na 8.794140647948737 11.671254403693268 14.757937352516667
Na 13.993052407968571 14.405097902012807 14.006721824334136
Na 10.680111861977506 13.611546043277155 17.28299845944299
Na 16.97304625343751 13.316932393446665 12.24312667683979
Na 14.508217193316765 13.18563718677452 9.63974888049365
Na 18.50667427417086 16.434898309822778 12.96989561254892
Na 15.694797288199034 11.127497450966436 14.7517552053486
Na 15.85563481646945 16.684046267081705 18.304419670342494
Na 10.37166442072997 14.73423295419987 13.86629777720208
Na 11.785204623639602 15.117713585019796 10.625084240314763
Na 12.105137684789256 10.907183472756579 15.640675791847299
Na 17.32665332645101 14.440076557894868 15.726326305716402
