25
Energy = -25.66178083 eV
Na 8.833715776010644 12.9347764279002 6.83205596694995
Na 12.397279504692309 13.651841735553013 6.437070339128973
Na 10.186523611200354 16.08341016415801 7.8987461945498465
Na 11.425367454101119 10.054659253570234 7.637705211831803
Na 7.694759232173366 14.106636424831978 10.130727290431555
Na 13.632713016905994 15.342985939542881 9.458376948894035
Na 10.972372558012504 13.117780725434013 9.567463611582939
Na 14.344641082320447 11.793176411041312 9.323454164301495
Na 8.457304653848837 10.55648173622975 9.93884352378352
Na 13.867850269400616 8.167963703884242 9.60387591992385
Na 10.402177051862568 7.426642434611386 9.96619477069885
Na 11.752687326796373 10.304625246381555 11.300575882979622
Na 14.97219051016967 10.179258760256202 12.5956526676312
Na 12.577951188448184 7.412220487525969 13.247883952579784
Na 16.21815133293428 13.624543025251644 11.843995404238397
Na 10.588879568738555 15.999315570565411 11.51082206997393
Na 14.499235159054411 8.727679639991123 16.099008244568143
Na 9.17717505585116 8.9179606387505 13.176459985706103
Na 9.610933213998653 12.7877464319005 13.065282577930295
Na 6.539054520740478 11.524410483900338 12.842105647095327
Na 15.181884073516809 12.258406387315935 15.366320116604848
Na 12.001725699180088 10.751159261442986 14.85656181023708
Na 13.006360002933956 13.478523586313425 12.668274562815386
Na 10.890811217889286 7.903180991604967 16.464784789104915
Na 8.642804980662486 10.769162593485907 16.042306407901144
