28
Energy = -28.89537125 eV
Na 12.524649603198707 16.01616936460361 7.787530594349176
Na 10.300314386116705 13.07479822519992 7.745378750017639
Na 11.874742211296864 9.701774440002685 7.300649127408435
Na 13.833974025977557 12.662500898375033 8.301069552947958
Na 9.192457776677106 16.278732824342832 9.34665976354695
Na 14.973743676853994 15.368740026559612 10.448358791287964
Na 8.428011793626434 9.520230695432582 9.2996703800813
Na 12.088246623738009 17.712078185012025 11.038761330734404
Na 11.644353013243657 14.367562350334707 10.692309369288042
Na 16.96816497614864 12.19131127679028 10.144405374971342
Na 11.301946265661154 10.756356948550607 10.46784206259204
Na 14.498415663106803 9.372048042718223 9.95172029100296
Na 8.378724183899989 12.783470632025626 11.11032861630753
Na 10.826404310878992 7.171789332375334 11.093237263763772
Na 12.728405706944837 9.031104563899042 13.391168813913428
Na 8.95093604294639 9.434602291582891 13.126051693368975
Na 16.60226092467136 13.553309729862068 13.878719914742433
Na 10.981757948879224 12.289222147708958 13.65030324731718
Na 13.23205112219881 15.163171220901162 13.892225057505955
Na 10.78147363959097 6.652685937180202 14.788537428504405
Na 9.545965725061537 15.528733091617418 13.367686045556637
Na 14.164662031544674 12.17233028281229 12.061925749383358
Na 13.824577478778922 8.148275434916725 16.44740903459112
Na 7.835184119283713 12.437513698493442 14.838804486794595
Na 16.112262142602557 9.76940622464989 13.994143769893276
Na 10.628047589235496 9.98980159091355 16.344074391463444
Na 10.90195365902064 13.931675451500531 16.57465521819839
Na 13.754731714455732 11.79902344727823 15.794792236106428
