25
Energy = -25.63663583 eV
Na 14.19205700789588 14.790247106354723 6.812669654885048
Na 11.000822404585435 14.014915495485436 8.066873237143756
Na 12.67656732776579 16.951097661634893 9.271023158627319
Na 9.579388003276975 10.401503831070988 8.06188096974509
Na 11.830804618261158 8.24815382648358 9.961075235334675
Na 13.277267782964152 11.061781716061896 7.912577595671269
Na 8.077391888305792 13.085066042585852 10.232281493135025
Na 9.071160919824077 16.76396593538732 9.052189489129178
Na 14.639989177946372 10.206523078392665 11.16579184423865
Na 14.14385777517409 13.737293430789897 10.152887019729425
Na 11.253309971032461 11.686557835166317 10.719852153534077
Na 13.916438314909929 6.927571486063112 13.000257052905424
Na 10.658521612354658 15.080166659913871 11.686376529481064
Na 8.519246567828938 9.521142345024566 11.439603544625129
Na 14.682849439802052 9.974749530248454 14.876870380035506
Na 13.86024623854896 16.044787302203535 12.792307345849437
Na 16.329936148404013 12.795613670182918 12.94518832670964
Na 9.056584595915297 12.342396861476807 13.650658926596634
Na 10.302992429063568 6.370382353320962 13.10033541911183
Na 12.93192660430457 12.783666126839105 13.52134766637154
Na 11.587480328518241 9.523870869298237 13.30517054962886
Na 10.90833386399557 14.88459515198076 15.341893333746803
Na 8.806964984221953 8.850260691903411 15.306729843186957
Na 11.376900184857906 11.21630241457703 16.338408161393303
Na 12.093389610889515 7.5118163782011775 16.060178869832214
