24
Energy = -24.521731 eV
Na 9.360864912787804 13.322791731279539 9.064598847664492
Na 13.003043871507497 12.569033824124348 8.977940485049833
Na 16.417963310412357 11.554607682897402 10.243818805268635
Na 11.738960079672593 15.49741335309602 10.748667383026499
Na 13.567770725946744 9.763641573217054 11.250331094535158
Na 8.478072784699718 16.992730129801995 10.141088645633333
Na 15.322929724341286 15.195099383065077 9.920255674600169
Na 10.5838746133934 9.734833725180671 9.28787376776566
Na 12.639160077018989 6.477379205398538 10.662728321969572
Na 7.851761475295413 10.939288441525319 11.401995476088226
Na 11.035875129844326 12.109889613784604 11.872288690921506
Na 16.288569121694145 7.654990684168992 11.422541018727955
Na 14.279766842222225 13.207765020301922 12.448011936880523
Na 16.0810990017902 10.348564397090776 13.753625013518102
Na 10.5670542263354 17.941672637559336 12.899649750727288
Na 13.863438046924964 7.384221536152449 13.854753812603661
Na 12.709050144770579 10.751052115193636 14.805527811669913
Na 8.48018744872421 14.494001908869421 12.417548622105047
Na 9.233153489330254 11.615343969945963 14.817742510163718
Na 11.49088771344686 14.557884342179735 14.471818215514665
Na 10.493709973920549 8.605976344405839 12.750474754544681
Na 13.948801599802085 16.726842501705992 13.156660448394707
Na 14.6798070797376 13.588472662791363 15.784953771626972
Na 11.520851146041265 12.603155755925343 17.48175768066016
