29
Energy = -30.1622551 eV
Na 17.93593020656336 12.124363307208732 10.0575547525868
Na 16.634161777015166 13.806367441644555 13.371558650202184
Na 17.013923934703822 15.755860251136758 16.85701916411157
Na 16.082061012560622 11.987832392062572 16.571225708263135
Na 16.546563897009058 10.068114250394895 12.909560967677532
Na 15.805875524905234 9.286830881929824 9.297560602477791
Na 14.404147479175418 14.486175814494388 19.144605332033514
Na 15.42403066475953 12.581282293264783 7.4519630162314705
Na 16.075433683533188 15.328462629131614 9.987221663880474
Na 15.508453971625018 17.392690892989076 13.82483963190879
Na 12.397328500333428 10.573311738299005 8.496966812068974
Na 14.629184401115985 12.176491671681546 10.770547956759744
Na 14.042296179689362 14.802124597529742 15.735669466464811
Na 13.055246018749633 9.016526476291698 11.765384409950121
Na 13.715538013206407 11.623649943780592 14.117021397576666
Na 14.138078400889452 17.82976613897826 17.464334575924934
Na 9.60784574639213 9.49244843888594 10.84227354435514
Na 13.391641876044648 15.2204430219661 12.218823731964244
Na 11.063448980281981 13.903174430562544 14.615769852649914
Na 11.166637668226546 15.590964938535803 17.846878391073837
Na 12.604407679930159 14.446307239338047 8.816588647166888
Na 11.239214311694495 12.38371470323617 11.395836554007163
Na 12.354599860018313 11.997815938012423 17.492082314238285
Na 10.610540923565498 10.207272018310388 14.466912871481892
Na 11.789189756675366 17.537187527611426 14.678744155205708
Na 10.074713474709943 15.893223057960286 11.751487831826502
Na 8.282937101628661 12.704409272873637 13.171315564799817
Na 8.532220088749435 16.093767253535237 15.323268225021089
Na 8.859422070323232 12.805568477313743 16.993412694548294
