23
Energy = -23.02791837 eV
Na 13.030292372789392 8.528471237432287 10.755876672540252
Na 9.659490137274148 7.5216205818218445 11.661449077914323
Na 12.065882895954724 7.344235346210551 14.150147315951877
Na 10.46689720906916 10.145373899028966 8.973025692389712
Na 13.763063968924532 10.578527304688109 7.831669684306384
Na 16.13007005104159 10.291827873594796 10.381015345005288
Na 11.16266652907314 10.88096254232945 12.965785166691637
Na 14.70295960589128 9.925307992018176 13.65540941926718
Na 7.880590866307379 10.466521819189493 11.43811238673791
Na 9.047573695076686 9.162857134064751 15.011350351916622
Na 11.989593108368936 13.528537029461734 7.488751524590201
Na 13.27966602449127 12.459833276243744 10.977348220148583
Na 15.220455984572153 14.37324813488016 8.923680258145207
Na 9.78976247368932 13.304987860524975 10.290440877346605
Na 12.442731558423024 9.862085967491572 16.503219773252713
Na 16.546253371954347 12.909615003880242 12.655680049653798
Na 8.244720733770768 13.346633163953047 13.458500411105588
Na 12.152183810502223 16.156824520620454 9.842552188947487
Na 13.9716782327854 13.07400373843753 15.033264862830022
Na 10.55091635604532 12.707741910361426 16.0625182207717
Na 14.734011309920136 15.823319121984197 12.226123148653153
Na 8.954679805379497 16.42129347989103 11.569689847053285
Na 11.481238759988651 14.71824483442946 13.216124446896993
