21
Energy = -20.64429904 eV
Na 16.534083182163187 10.924355294127553 14.5636799003292
Na 16.15114809490596 12.847682885930592 11.70954429751083
Na 15.232617548446727 14.482607191380364 8.801925767518682
Na 13.536558436438625 15.328890255737852 11.795872598150714
Na 14.404385432479113 9.557813728912407 12.25045676373559
Na 14.242734258702672 11.055095765840539 9.1593857320432
Na 15.094928123302758 12.1952113865121 17.38896512563907
Na 14.241741171979276 13.620347826228327 14.498476895403428
Na 12.667704525961744 16.812931537467563 8.947658923004195
Na 11.769850197395634 11.987483243383213 12.133889707702018
Na 11.94025947412819 13.42608354052439 8.438711326061412
Na 13.107068196394183 10.209157712578103 15.442540551844182
Na 11.866632476563762 13.146129015742282 17.101015326898924
Na 11.22516788081252 8.482864489312277 13.320470159554063
Na 9.320301605649654 11.665301958971273 9.534593065704325
Na 11.584118604798897 9.184602117987515 9.967824259126024
Na 11.01192353741985 14.746094863034084 14.175195494916665
Na 10.128103140296268 15.23385828281341 10.821709709273946
Na 9.75059096529875 11.303652246908003 15.085348770759884
Na 8.253170370579069 9.73059659480861 12.19145368209513
Na 8.084280091385972 13.156048463245641 12.580924255773777
