27
Energy = -27.96123728 eV
Na 12.660525144724993 8.585534016074755 6.987528428731621
Na 11.079272819010855 11.982859508135615 7.886915644271521
Na 9.381261912292237 8.71921096911147 8.423764570096358
Na 13.401940183907232 14.7526206833689 8.137508356811825
Na 10.599830940732062 14.587318447561502 10.40329795743689
Na 14.768098396589037 11.251025164999204 8.194376077507021
Na 11.808034443958748 6.356151506228854 9.925455918135745
Na 8.520901506532295 11.682648647947781 10.507238339369
Na 12.303085055245994 9.799549272523222 10.206743375721
Na 15.091573881900961 7.751115560068702 9.729425527400508
Na 13.777074535396684 12.961863459539835 11.061142265926232
Na 9.670096134338467 8.226627996766187 12.05348859158093
Na 13.705319413002883 16.553035838401172 11.324388797606652
Na 15.967001398767078 10.54405324281077 12.087928521733481
Na 13.43892523802888 8.073725162481383 12.958833116726204
Na 10.502261373735873 17.474840237420576 13.005784199343706
Na 11.087850093104647 11.496347631813308 12.829369797507601
Na 15.718189464111248 14.086762592018514 13.82084592213145
Na 12.20687229947111 14.54193770924062 13.82042495019903
Na 8.653699895735677 14.339174809971809 13.417829847851161
Na 13.694826250229552 17.418120544520292 14.872859969145539
Na 7.974375382856739 10.796598946372754 14.103376685483614
Na 13.969887244977066 11.230336257461495 14.936582629519258
Na 11.04749859601886 9.134228830796904 15.38472803859291
Na 10.373091767058364 16.151200701301775 16.2998698599107
Na 10.51073398653239 12.582499552147562 16.299530551462528
Na 13.701132416234053 14.533972485408674 16.934121834292004
