28
Energy = -29.18978496 eV
Na 13.156912342473078 14.541000458114436 6.878660371931018
Na 9.96228162550102 14.834546788575741 8.62448656104735
Na 15.87040904783477 15.427322646579599 9.138301349863216
Na 11.247129254128343 11.208799285432425 8.519536284335716
Na 14.971603372248873 11.792145577284465 8.561920035502911
Na 13.062459223992326 10.75341610078963 11.45379639376697
Na 12.829021137740336 14.005771705508863 10.205425506292617
Na 13.236601554958524 7.914712171462134 9.589154614847175
Na 10.134335177243209 8.824688643997533 11.301060731026567
Na 12.617773772317046 17.383573863184694 9.352163641045653
Na 16.087826546079313 9.2916296858137 11.432237582936294
Na 10.440218212828356 15.893085203718694 12.14989391327033
Na 9.47679958575355 12.425192419046107 11.447027531528688
Na 15.895388425925633 13.04241263700391 11.963405583968184
Na 14.374594010190092 16.39626652430264 12.33029405876696
Na 12.04962986823006 19.050423384075213 12.71972135267692
Na 13.196016947125722 7.493252246336011 13.238490519804275
Na 12.614482679620394 13.402428491016027 13.54529432877955
Na 7.9137247273371525 10.15787785359281 13.943976773669243
Na 11.286724874183998 10.318975037766037 14.327426037254359
Na 14.900660643986559 10.625557650555601 14.661550722836365
Na 9.448415036523071 13.461282802468412 14.936115430939097
Na 9.944037466359704 7.269217748274655 14.998306879518632
Na 15.323601012492574 14.305286384379055 15.352909679905343
Na 12.032813087668025 16.3459751342485 15.273905608312027
Na 12.900755767827341 8.519217023886972 16.86519975151304
Na 12.489262967981116 12.27245895372328 16.951743883237345
Na 9.562437900501791 10.069399847914463 17.26391114047595
