28
Energy = -28.71602589 eV
Na 15.545039841704426 14.685390605976247 15.693632791664198
Na 9.077258554469546 11.144748548500976 16.446265427478345
Na 6.74682786660063 12.797231027377533 13.69449465124676
Na 16.35009881887968 7.506318838497311 10.674127778589034
Na 8.689613394487676 14.745197278636738 16.226583040915727
Na 12.524092532980728 7.9108498054284615 11.643635303391518
Na 14.837112989857179 13.278260582843847 10.078689282440028
Na 15.011995725349903 16.032909048872433 12.38045805517223
Na 8.593001999419162 15.99220611019954 12.855808279703888
Na 9.251934546324476 9.655642657852331 12.782964480969824
Na 15.710355857363632 10.980926143803906 15.572187845130205
Na 11.869525754152187 15.942749276899557 14.526751599156544
Na 15.192140272729457 10.254870622341576 12.156653976305064
Na 14.128894222002113 9.930439997775816 8.784821333939506
Na 15.590937719975726 12.47231160985655 6.814815717622109
Na 12.267969753143127 9.78635653413323 14.643309071760559
Na 10.227586066219896 12.889165227596338 13.731193990164282
Na 17.53733304973512 10.899041535877943 9.53522853233699
Na 11.813571348086365 11.229120203602662 11.033161681391128
Na 5.8015927355850305 14.976288535506955 11.00973580866311
Na 8.81544865652134 15.949049658429699 9.146710499360715
Na 13.695920779855205 13.040890522605103 13.404905396348877
Na 8.657067078372933 12.807684640505505 10.604141382917001
Na 15.249777929461118 7.561706082732942 14.25248860597412
Na 11.810787803120178 13.118153922741843 8.060869894436957
Na 17.360009688447935 12.967113426823019 12.870448090382366
Na 11.709113715814595 14.958934098273524 11.049111299527619
Na 12.277358392814316 12.82881054978245 16.66917327648585
