23
Energy = -22.89080083 eV
Na 7.903427983061498 13.329006293366756 12.229866292408905
Na 12.941258333527797 14.282394935733345 8.80525574992407
Na 10.134757278135966 12.01911064853451 9.726901603971799
Na 8.642929982054966 9.618631412311107 11.915265518875993
Na 11.02962979185951 14.91388199007885 11.7925716078503
Na 15.632379580352117 8.600927605984776 8.942520765317273
Na 8.075760529169537 11.517247961020553 15.388114285687184
Na 13.053371235560784 10.77051348371862 8.304232701334625
Na 12.522381744212485 17.646120788030398 10.233377033797334
Na 10.866640270789233 11.779071805074912 13.454842775386613
Na 12.44404592387933 17.14721710679167 14.075974901164493
Na 16.027483497756617 16.04881330778958 15.078282902050196
Na 9.794172475478769 14.760387502080418 15.21970160039695
Na 16.280415623770807 12.171761791147613 9.66163434397597
Na 13.570335052630965 12.09512324314328 11.602536074583243
Na 12.30094126769689 8.900877247587474 11.45571161352195
Na 10.794570632771256 8.629623634844037 14.891597971964197
Na 11.352510569132969 11.748136803301266 16.977485905967573
Na 14.782038412694186 15.343547726491524 11.798209284794137
Na 13.311825422259416 13.871317771423636 14.948977009090695
Na 13.973247546401804 10.25276240660281 15.0243594673551
Na 15.919234674485187 9.458908064705707 12.245398754412225
Na 16.458830184479226 12.663594152203054 13.677064876020584
