20
Energy = -19.55642813 eV
Na 15.950505806510797 10.551492798253207 10.110778917013642
Na 13.401545624684427 12.937147747084358 9.824813215725227
Na 14.100811450573534 10.317596243160427 13.081797172867569
Na 14.496833215096144 13.999257938215356 13.223487448763198
Na 10.948567797510432 15.284379496447361 9.189975526061257
Na 17.15158026457145 11.855820208971075 13.18810030088838
Na 10.011220403252882 11.725968389547905 8.959303417127677
Na 12.468000053805822 9.669468300205379 16.06728993226041
Na 16.56255147775317 14.044358913813253 10.50036067984479
Na 12.15545031879357 13.258617686022397 15.494863381241673
Na 11.211651369756607 12.090431206709384 12.374908318495848
Na 9.365375051021115 10.899556064681178 15.234421097337798
Na 15.29365847370238 11.769544082393416 16.132296514705423
Na 14.028140880103264 16.424630812674387 10.42963636856951
Na 8.847110383600866 14.174792545282124 14.628967151852676
Na 12.59101920084083 9.659195272305226 10.113705493615488
Na 10.89191676959144 8.503337606970254 12.944524944438772
Na 11.543944770553738 15.514670602196626 12.791396863738631
Na 8.24837544934678 10.554222842089041 11.794593498569723
Na 8.477501340694426 14.131832851715739 11.268177792995585
