25
Energy = -25.59995849 eV
Na 13.102060860104272 13.831620516102944 6.706782873547809
Na 10.020794391012979 13.117976673368782 8.28690158970042
Na 12.499249048422058 10.234549487477555 8.109166150072685
Na 15.780586723611234 11.870826338126903 8.282346638954829
Na 11.802916217843892 16.32082346111394 9.220624154634754
Na 15.370961013023448 15.583586273658467 9.030631675923772
Na 9.026330082591189 9.633693567776948 8.828627787788722
Na 13.15251883500952 13.199142234671331 10.13739454884239
Na 8.23619176657794 15.791693104361235 9.707441701161342
Na 11.546685937243117 7.564308333240371 10.63971880275872
Na 7.860150505156606 12.411591650702269 11.048038586446879
Na 14.406963818234544 9.869240064378086 11.113717905945371
Na 11.021447332409634 10.980082094518634 11.304863149297518
Na 16.26837815246474 13.048836847423075 11.728097484855299
Na 8.620218191437024 8.766330395994158 12.588937244110205
Na 10.458788551635813 14.633787543082324 12.193956098324074
Na 13.781903506700953 15.717507680044488 12.444361253837188
Na 10.205547827308212 5.998211082370778 14.11020690108752
Na 12.150294852982963 8.903836242025314 13.999238811419215
Na 13.448493967582614 12.257201518597407 13.743761567255634
Na 9.662003067620535 11.928762989891569 14.414056897731273
Na 11.898986615714373 14.646587105333623 15.541912495648596
Na 9.099506477862182 8.80620100624884 16.13139898684721
Na 12.007077210035234 10.963278505171646 16.902331534670253
Na 11.959476984364906 7.307857221268469 17.173017096088305
