26
Energy = -25.74386359 eV
Na 15.372076920161957 15.647255158553506 14.48680943085384
Na 17.76680265459419 13.171087488054482 14.57168890391894
Na 16.5750098682254 14.43949231739995 11.334601812902779
Na 12.289534485542145 17.573718941506623 14.165886291783865
Na 12.746767456644148 15.065754077139113 16.641316297129286
Na 17.05221269239872 14.531495910907486 7.950340449761709
Na 14.858628981535269 12.529298114438308 16.444760432294498
Na 15.998430761448112 11.165382851970673 12.583272433988943
Na 17.10487772591595 10.076632066707463 15.775826803645367
Na 14.258441191143207 17.12935644925428 11.534916008167714
Na 9.239458942344921 14.048410504523716 17.234242404146
Na 10.15051973455557 17.267542312379422 16.78998577008589
Na 13.25359103426293 13.675234194598861 12.608938463609055
Na 13.864102735218465 9.444566442804813 14.834164709265073
Na 9.903319394251072 15.057582905304944 14.066171649093258
Na 13.837311259573125 15.211798404548421 8.76820163523209
Na 11.001327694721594 15.631102669279349 10.91527667168615
Na 11.647070099655052 12.058639738379252 15.249504158056675
Na 12.992728765787675 10.259357813758243 11.622402244137566
Na 15.121072374377132 11.886044073880607 9.159474426668451
Na 8.129392164867316 11.632718491402887 15.073878108869636
Na 9.813273135822593 12.392392694382433 12.06447975355876
Na 11.650317427159111 12.583188254676031 9.227011452147734
Na 10.043064078797414 9.467941748578761 10.179982813262558
Na 10.270899127921368 9.20980699461846 13.645736292620123
Na 12.933206191329877 9.381293508649222 8.28463145264395
