29
Energy = -30.16253583 eV
Na 13.00504599317152 10.057655155897347 8.43372937870504
Na 10.523917837098045 12.601751963958032 7.646870452504724
Na 9.237858153219399 10.59268606593229 10.176741254206213
Na 13.107247600815757 14.827295440801281 8.248721329623896
Na 9.671260549960348 15.968909278642043 7.9355932554447
Na 11.793581819442712 8.379596790391687 11.565012867729523
Na 15.765744970322917 12.507434589056539 9.631919416782107
Na 12.706109965144169 11.887274363488217 11.128780518106202
Na 7.336798070391916 13.61897514436132 9.074607700853464
Na 13.961941072385814 15.315884606584378 11.593265225005066
Na 6.900885625681692 12.71434598341281 12.38639839036094
Na 11.606554956122833 17.598911235433363 10.1949111549143
Na 10.259374680777093 14.116216625609761 11.136512581475158
Na 18.499121971064252 10.945134988964185 11.748095227436712
Na 15.41435697142578 9.274912616403167 11.25354579064092
Na 9.775131256314152 10.860142130791212 13.588177096896016
Na 7.95283667081118 16.420635689125398 11.577185269539909
Na 15.917971737055042 12.751922711613833 13.240141314931366
Na 12.29566725167908 13.456307056631145 14.286450241280175
Na 11.226904088951516 16.692069085901597 13.549739866314026
Na 14.677148023907877 15.664826341435221 15.113714714532003
Na 13.415929557557728 10.17858328242202 14.138970975435159
Na 8.915707088387082 14.152868861622622 14.7782796388637
Na 11.126569822387856 7.784805590274167 15.238283644083857
Na 14.419918730320717 6.90754957996278 13.870680449272308
Na 16.880411137996127 9.560099751406527 14.675318206791257
Na 11.331438687940013 11.143974890784436 16.848200725154324
Na 15.028739488165652 12.160872732936655 16.620845545729654
Na 14.06131605356024 8.673847278215185 17.134797599446163
