26
Energy = -26.21800165 eV
Na 13.659070978449751 17.173809232093365 10.469858181850212
Na 12.407878752002011 17.205862141263243 13.976833596036824
Na 17.620698218135377 14.022390723768634 14.155290188388589
Na 15.929509495671683 17.246262696135222 13.928309541888213
Na 17.287105076918227 15.948386682144609 10.691615637571093
Na 11.491599957648976 15.880779230833857 7.906904069218032
Na 20.083216216519208 14.035831324406791 11.74198079291024
Na 10.163636111627712 16.23252349766646 11.160890668289401
Na 15.715025289271775 15.191121539427263 16.941052465383247
Na 14.009966161672875 18.28502955023828 16.854985831456503
Na 12.060966397913417 15.096502824621817 17.012554299325604
Na 17.026277780535644 12.476935373116323 10.870368902937278
Na 14.643299611814456 14.263550902801592 8.78319013356903
Na 14.39232021050588 14.497698894377875 12.370824557672702
Na 11.538782348196213 13.142645445638472 10.404467500373809
Na 16.922654463640527 10.590868247556187 13.874661934059725
Na 13.887681946622813 11.050506961987733 12.106659978787386
Na 11.072893131213027 14.022627559077035 13.842389191051934
Na 8.223612859700392 13.318521166896556 11.94266679067727
Na 10.65910845413018 10.75167641455583 13.57932488451457
Na 14.134829196322308 12.738651526075568 15.22495290142286
Na 17.071520616621164 11.723857930209796 17.150208390540666
Na 13.877409397608846 9.535248771594853 15.776493287178441
Na 8.210857655706247 12.924221507096567 15.479238238099299
Na 11.030799021433976 11.585397980927166 16.975022512565666
Na 14.021120590833661 12.026818347880084 18.74444423823041
