28
Energy = -28.94415014 eV
Na 13.79546329834711 12.839133657752399 8.014301284520792
Na 10.04393722037404 12.331516809157952 8.4059275838714
Na 12.854810491283638 9.593538244229135 9.221761863801735
Na 9.40688162134837 8.775310738193745 8.247308974964714
Na 11.585768068932278 15.608435752148605 9.450156374193165
Na 15.765755404420911 11.407806439998986 10.85971336849057
Na 15.054437056837553 15.159592343697938 10.618971215532122
Na 12.406259186750313 12.66842305950883 11.165987729098363
Na 7.1979409097082225 10.841305948407745 10.118936718893515
Na 11.10248040503322 6.825692243136977 10.611421204239056
Na 10.226859719261846 10.085665004678058 11.581578118904938
Na 13.626653844143602 18.325029810327415 11.166936990323983
Na 17.829560512987268 13.844163524922816 12.700353658369565
Na 9.122980863280521 13.724504727084808 11.773690149494357
Na 10.288982775086382 7.3916853967028056 14.060343541115065
Na 7.6910443880345305 7.723058612653996 11.610668220447119
Na 11.851827581375352 15.87430099478143 12.998039547045419
Na 13.21754156299596 9.81562722430631 13.41417281466071
Na 7.968782681266872 10.826605604980122 13.926397547727463
Na 15.667365027272954 16.659060269362758 13.801166609442665
Na 14.525183653639468 13.3007560681113 13.677248174484234
Na 10.890987232199285 12.917548288674364 14.712728450667742
Na 12.840213735588003 18.58586902657873 14.822300561332863
Na 10.819836730916604 9.91959701187424 16.30345952647576
Na 16.767781410669578 13.931013604749243 16.26018884347589
Na 16.812212323852005 10.768116245992475 14.283902049008661
Na 13.995222153077448 11.593294592576402 16.58715295084996
Na 13.313157268236557 15.333275882330126 16.275113055487353
