20
Energy = -20.17808393 eV
Na 8.999563251324002 10.40902906613701 11.22414959616838
Na 8.176275967599373 13.358475584183404 13.077086382891316
Na 11.413294762689935 12.024638055964184 9.214520471596149
Na 12.431659970930568 9.329226782479717 11.35114234378005
Na 10.329664271229767 15.13946706656269 10.809443169936593
Na 10.018577663029886 9.765242888253486 14.756067642253212
Na 9.57959486017978 13.154651710901614 16.2871648875563
Na 15.803251007457982 8.711194378963468 11.902528068756718
Na 13.402382485193327 15.053057051302128 8.590431490404233
Na 13.683622278048071 9.686476227802006 14.78100133219223
Na 13.464368556469008 17.294697926113585 11.762946816067524
Na 11.367944713508376 15.601604887086632 14.33410753477493
Na 14.833775653193282 11.527593788157773 9.671998671594274
Na 16.299234613514205 12.050174322124251 16.41180499911447
Na 13.354935271821885 13.986033674323812 11.725748849971962
Na 15.567985809497234 11.96596884416776 13.108074164501785
Na 11.371681609339557 12.147297278792097 13.151091815784598
Na 16.389888621941132 14.85480705693519 11.045270530570226
Na 13.006242681934493 12.920423663782227 16.161415655959843
Na 15.02774406125126 15.299700121161916 14.572277296089606
