25
Energy = -24.92228816 eV
Na 16.77204546927074 11.162831971967403 12.268563762097049
Na 18.7479292722186 14.203706776433764 12.699429801088279
Na 18.64218053095692 16.082898097336322 15.589718104880884
Na 14.740287473787786 8.306454135718411 12.025695201028872
Na 16.555656475398198 13.063276090552037 15.319450897346666
Na 14.098739639881677 11.111885353429248 9.848354391700761
Na 14.452224596415345 10.177967982324718 15.021329851284273
Na 16.08038321408147 14.065566645529417 10.248557163830542
Na 15.868228201827433 16.12345764721581 13.329828413598548
Na 13.751582192068053 13.130849255488542 13.008126066866714
Na 13.24050749571303 14.165936566635276 8.104092198800968
Na 15.120582513985195 15.838722149208477 16.849372030097314
Na 13.111304379894996 16.2041366587739 10.972126654676229
Na 11.018708990195774 13.146530469900814 10.76469155755008
Na 12.834539494022271 13.03423510603846 16.506443622726138
Na 11.73975410507168 10.17016139094424 12.520828663667901
Na 9.98582152352549 16.027550251742706 8.833844880801564
Na 10.614875747581317 10.272165863480604 15.7274286653602
Na 12.488431306775242 7.2039345677424755 14.705911341787996
Na 12.421323266357998 16.091853804284636 14.604811922471812
Na 9.7893558700987 16.337626915558367 12.287645980518871
Na 10.040192916943882 13.414396350666939 14.231755199280546
Na 7.6200830101498065 13.970725298371823 10.866977302934567
Na 8.157201426935794 10.900099926695125 12.663314957824
Na 9.217207900401482 7.681200310409835 13.525863800440082
