23
Energy = -23.48141122 eV
Na 17.49869418587674 13.859646726305357 14.409849264759544
Na 15.178330420934454 11.748188910706308 12.538308998607418
Na 15.404628232120695 15.252584110673258 11.802825488208423
Na 15.515129232185085 10.954572341343026 15.826102619904793
Na 14.49326355376968 9.156671909092168 10.078690068403223
Na 16.203321656450484 17.289014114788518 14.763073612873661
Na 13.565301585874124 8.608851780894408 13.58390190116285
Na 12.069818338815677 11.429897408887383 15.087025048786733
Na 14.186845446373693 14.36058116828323 15.246085399221135
Na 13.78840472623821 12.795417115764575 9.341373903500868
Na 11.726836097469386 10.694481156542636 11.451713386085357
Na 12.215227130893265 13.87198643348838 12.345005212137941
Na 11.1951943204652 7.347234553553742 10.652982174732047
Na 12.838924596968932 17.21167378986931 13.415070301989731
Na 9.757626998937154 8.977017590106918 13.68692535581916
Na 10.379346329369444 14.610945308212806 15.176619423335506
Na 8.739599824324744 11.512370599084859 16.185510968378914
Na 12.400236222062611 16.128324364057807 9.724377826702142
Na 8.803214381990811 12.426676664832673 12.750145916901403
Na 11.512497949005676 10.062917892975056 8.059290397111184
Na 9.437274694926401 15.865162991990621 11.834659352475626
Na 8.567392056418015 9.685166730673307 10.187293975742136
Na 10.13355246004374 13.187806070618446 9.406712465221554
