20
Energy = -18.32396033 eV
Na 12.006905667706931 12.80320553836983 9.458430355828847
Na 14.991092463784792 14.861112032505146 9.50366845114888
Na 15.326095780780687 11.332881035148263 8.968238680496565
Na 9.116867793869538 14.323620927910426 11.02158819681211
Na 9.369567709748019 10.627671488581303 10.471368600350255
Na 12.319563240418383 15.574959263453632 11.74238636538202
Na 12.736815871199536 9.654908683205228 11.01305498807587
Na 17.70463613871046 13.250466133585508 11.204528874152167
Na 14.529473224586019 12.472679801120664 11.976539665677697
Na 11.061464321646906 12.226461050945696 12.88329436383192
Na 16.642426751869586 12.45636175253598 14.660215589333816
Na 13.769397717446429 10.187321114245083 14.52486362133379
Na 13.486131024922246 13.961836173629992 14.94251531162842
Na 12.837527198048381 17.349380449610056 14.691874292523444
Na 10.570412786557739 8.977425034405336 13.765739029327957
Na 10.067101922758 15.189134309011816 14.420005211479095
Na 15.706809264455439 15.711565426210704 12.894818096260925
Na 11.101735221893469 11.699260982446171 16.29219617966572
Na 14.442343017705936 11.863264149716024 17.505347615286833
Na 11.695044037576006 14.957895809048724 17.540737667088305
