29
Energy = -29.27716767 eV
Na 15.462340517078053 17.97791615944597 9.177684266123698
Na 14.849052679752123 14.464857256421832 8.959015768984024
Na 12.130511998862605 16.692944977792646 9.359350757900861
Na 13.966807167493288 11.216110728535181 9.17430673142641
Na 17.035530485489577 15.772387896340197 11.516240516837588
Na 13.979504971649403 17.2396230321127 12.37282190788626
Na 15.793810104162091 12.501960526491308 11.758840855413832
Na 11.281764736030874 13.26203381350045 8.26104719104133
Na 12.548828908733862 13.91935836828457 11.616854366456467
Na 14.402200815524889 9.220678339408535 12.064763663585598
Na 9.180163556220695 15.41654870516379 10.532495086078226
Na 18.26190673454289 13.706328979270374 13.903526368155415
Na 14.896341785353714 14.54229028855668 14.407885572393264
Na 11.175838378285494 10.654116002748857 10.952985585218297
Na 8.263246828860845 12.169116413219605 9.952056151062175
Na 10.721514318638901 16.520166468548553 13.318627603781716
Na 12.862783008419433 11.577669884635075 14.1051864942744
Na 13.097879547470116 17.17223854311162 15.802467742235645
Na 11.160830982583633 8.44165264019727 13.533532684203566
Na 16.29598722324809 10.810528214115575 14.615035416974235
Na 8.025061980037163 9.854940712972565 12.620756998509204
Na 14.128500609980113 14.394868347706469 17.790485339141128
Na 13.858077583330273 8.518801008242948 15.564775715752916
Na 9.471798517412022 13.114191723847622 13.145777594018641
Na 11.34537128618296 14.15764952732998 15.816167369009317
Na 17.213639172855864 13.197599793856366 17.081065506577982
Na 15.467595250540427 10.36809825609191 18.069823550244354
Na 9.680504737098085 10.912198205623538 15.758068562823684
Na 12.255683513572684 11.431873426586105 17.804680697836556
