25
Energy = -25.13909348 eV
Na 8.390339514509135 14.486158386520794 17.498985969388364
Na 7.735129584143395 15.024142785298093 14.03245565996896
Na 11.718807135901006 13.423326899811444 18.25685446117191
Na 13.299983754262696 11.153652373872836 16.005491436341593
Na 9.879502172945545 12.293572300971713 15.323617123710692
Na 11.14371344392814 15.510680985220594 15.204154172954162
Na 10.342061396799226 16.211508724979847 11.809032465909711
Na 15.096000488470688 12.329096643039263 18.679702375743968
Na 16.846627452140456 11.841238984107132 15.339586996152306
Na 14.485094398691349 14.49999855242698 15.760565259629605
Na 9.498631191512327 12.718578529742382 11.660044992628185
Na 11.41224710625232 9.770366624026309 13.387933001345885
Na 13.86080895605749 16.406119237308793 12.494140413233076
Na 12.850861711922791 13.134906975288493 12.939441183334699
Na 9.38268300243312 9.12370338907148 10.680883161436345
Na 16.426643267752862 13.96433962293988 12.503930641874728
Na 14.995959557769536 10.238886928375043 12.748421843358566
Na 12.677779504335124 17.687937764578585 9.31211001816122
Na 12.47850538031714 14.325284754337737 9.52994256927449
Na 12.957398909162883 7.794605812175151 11.004623401593307
Na 12.164818233645244 10.95712468169686 9.969678420123648
Na 18.43426670854964 11.070082013779562 12.034578906192367
Na 15.716227242342114 15.666840035851715 9.312102065519714
Na 15.451909813549198 12.098986113129733 9.654783418519322
Na 18.5602041995928 13.496347041088574 9.461865332041402
