21
Energy = -20.70777613 eV
Na 16.879455152021997 11.836518481054842 16.01461905817458
Na 17.173743410630923 13.11193608084508 12.711069754663004
Na 14.842783399926637 10.430441480850876 13.582923463055579
Na 17.634981883191184 14.443622163980276 9.255324709401881
Na 13.488092760656453 11.226461739651198 16.884962305516428
Na 14.522000211659826 14.173834964538095 14.988399168246511
Na 15.233403201068304 11.826062322209557 10.086338342685623
Na 11.245844688032157 9.811193540505743 14.58921509020162
Na 12.475701114287125 9.642984795033144 11.135954939020277
Na 14.505762129376837 14.66810952959189 7.921907766162605
Na 9.95614378608172 10.536623570499597 17.91613352969794
Na 14.913705110217531 15.478616733052592 11.45133511616671
Na 11.9832831803784 12.095354100238978 8.619402758136081
Na 12.16358529610594 12.834253812901451 12.278583528775524
Na 10.93338994819899 13.43964976082081 15.943168851006996
Na 11.659514208848352 15.734658055526475 9.98519158609042
Na 11.931062889282464 15.998792511480248 13.516605186516736
Na 9.147528505465063 10.661857031360348 11.828118705956186
Na 8.013596973202601 11.370000317208598 15.252127313498088
Na 9.05060267667642 13.471447160530216 9.816390265434295
Na 8.838509049711666 14.289859726642709 13.173531197279985
