25
Energy = -25.63065178 eV
Na 13.747325405177468 10.783430333087344 7.012658022947181
Na 10.946418081920951 12.917248019908365 6.307905739033784
Na 10.385315906506145 9.64669530480082 7.704840822443493
Na 14.092881825770242 14.322412871120413 7.99427396619855
Na 13.110940581656871 8.822138724324796 10.069310394905823
Na 11.815881321635498 12.234599577997669 9.516815688827624
Na 15.411728208381714 11.852101013197988 10.305310468912078
Na 8.4001936535877 12.377814107642049 9.183845206488764
Na 13.177115810586054 14.899493400398022 11.521466779883157
Na 9.741296732520398 9.895083561865745 11.491363118592991
Na 15.513654549217195 9.194265704736782 12.995880453505123
Na 16.447698706152913 15.278215581498472 11.054015679159303
Na 12.21748821649168 8.056746354220047 13.695555603816738
Na 14.769413713059539 16.31150702507716 14.526436429988685
Na 9.952445367954379 13.778744426593274 12.202434460589235
Na 7.242333546035905 12.058146957455712 13.02588841499042
Na 15.763249563578237 12.906337621724187 13.747929808916426
Na 12.79118526765074 11.298738653836416 12.651903595805937
Na 12.38100893654163 13.86126673408399 14.875142580767696
Na 12.098072167454681 16.22625340839507 17.295982874223032
Na 9.089874781751806 14.334540127424052 15.736291329810484
Na 14.850985969779657 13.914254720200974 17.329545774520106
Na 10.12356338940312 10.935500992362451 14.956499353704515
Na 13.747860290043786 10.635063633966267 16.052930253532534
Na 11.487079351269806 12.764412488210745 18.05078452256532
