20
Energy = -20.3648208 eV
Na 11.77059802274807 10.0115277946798 14.415623088351097
Na 12.705396175132343 13.891381021973572 12.488784034390083
Na 11.616696391083616 7.123680245024585 9.309451879358754
Na 12.092952944870609 13.683939683666383 6.369788569905304
Na 9.784021895345301 7.694417078039131 12.315248676137303
Na 8.680976993884489 9.259210424272021 9.236784676443566
Na 9.427169099114225 12.715048360572231 8.45548926580868
Na 11.763849904586277 10.217450842446455 7.428414153276815
Na 13.738608972166137 12.594299389613985 9.290503245420856
Na 6.603674931143696 11.878402034934545 10.475676872632729
Na 6.288102885569617 8.53382873977824 11.7302547730556
Na 11.524129830343897 15.39552158086931 9.463905676084043
Na 13.429800004442754 7.563994343627496 12.303037211798365
Na 13.880301758818877 12.596390312119732 15.555331783426029
Na 14.561722296008787 9.063733611692118 9.31633941308664
Na 14.66872063083926 10.900826635428896 12.448157315953734
Na 8.411236154404481 10.834664183835944 13.356248348102804
Na 11.314895533652487 10.741033866641597 11.014665181780448
Na 9.221261194655778 13.928534928567842 11.791174305918231
Na 10.384542001673298 13.24077254270042 15.103779149552585
