23
Energy = -23.36825996 eV
Na 13.484124832412402 10.117773152904958 6.231706486513021
Na 13.24733975373266 12.847255842182465 8.790806664993237
Na 9.956228788600452 11.938968713162925 7.484131600095348
Na 11.758939394016487 9.257683360811852 9.22184767437727
Na 10.433441902288706 15.189704033836492 9.30504729847999
Na 14.003946969682378 6.943599590958711 7.811343374526207
Na 15.333213163271488 9.953201362396221 9.252460832930412
Na 15.897278649294645 13.289936619587884 11.128851887637188
Na 10.505656939041268 12.09273702304207 10.94345469046499
Na 8.206112884006123 9.613870237056537 9.907590867706107
Na 7.413021364599137 13.169425074189041 9.88411996608593
Na 13.644155577095534 7.41643834997527 11.544208129550887
Na 10.419996631458135 8.726311747058901 12.610901449599373
Na 12.769850420364076 14.844306087020703 11.992991130285198
Na 9.12865820531255 14.780807905175942 12.801050093998558
Na 7.85027150315619 11.308356541065402 13.142536700371107
Na 13.530303643663714 10.939006203629043 12.026508934814562
Na 11.156509136735588 12.177181359043594 14.336569031467597
Na 13.035869335952322 9.25155190772059 14.955509411837298
Na 14.453268690400376 13.124580998925207 14.610494155746386
Na 11.397408948187747 15.551221902159277 15.373807068893832
Na 9.34465240372927 9.675233710933009 15.932121208367851
Na 8.633353647795543 13.39445106195922 16.31554412605362
