23
Energy = -23.39537181 eV
Na 11.302515670508955 14.104862988721166 6.658530690152549
Na 11.468073109946696 10.364647903356476 7.612534354784907
Na 8.318257376199762 12.13958473657218 7.976355717319538
Na 14.206818202251915 12.759738506437891 8.50755068707016
Na 14.786598358939386 9.072281928250675 8.402361748995286
Na 9.007466977746137 15.571182336016928 9.18929460129477
Na 12.676943058633196 16.044982287316845 9.309122000865061
Na 11.009472587596917 12.958601110452005 9.976667252627564
Na 11.578875757304573 7.316134261107186 9.675697112569232
Na 9.186281424787698 9.674498668459856 10.538089876696544
Na 12.893914926522537 10.31047830228104 10.945330084858146
Na 10.631228880726688 15.328560317307835 12.516608656935746
Na 8.719982222613979 6.456170604096422 12.272743787431002
Na 7.845097065572896 12.761252292135934 11.633997731235068
Na 16.198712404266516 11.20131668734212 11.164749113424358
Na 11.489426480239295 8.223529656248548 13.34298858725491
Na 13.846106994555575 13.798897621065235 12.107428701288656
Na 10.741802088266937 11.824720822364325 13.314923733332934
Na 14.034949363957898 10.870773225796187 14.239393320996948
Na 8.133597445840257 9.608604808928614 13.917598627262448
Na 12.421198486739696 13.856074239096943 15.474783190742706
Na 9.493815827913917 6.717425708875951 15.839239511099288
Na 10.974793608647584 10.001609307548804 16.349939231540866
