28
Energy = -27.9602004 eV
Na 15.335472616868788 12.15523501996682 7.708787992425024
Na 12.268788977245292 17.1452860389155 10.230596843688602
Na 14.721876798208333 19.179028295019844 11.368667805175013
Na 13.044718799118444 13.803328979608926 9.925337663759192
Na 16.625371596401312 14.315317033484874 10.162221120485734
Na 12.807379874694432 10.320582794037803 9.281959755811613
Na 15.5332388982167 11.100893987620498 11.129274633029437
Na 10.975214164308571 15.108869700226265 12.61707809064728
Na 15.974781999687947 18.47456591421505 14.343996579818258
Na 12.314951979383737 18.168552821344974 13.819402370129135
Na 10.522221469485885 11.874284057045458 11.568123866703132
Na 10.085209418554827 8.508124368467344 10.632516255382573
Na 18.09477356554613 16.165636837181548 12.77106437262271
Na 14.551732228109588 15.704494163836008 12.6153135841486
Na 16.853196095112196 13.077267124395709 13.630363567239407
Na 13.364824985218997 12.495238207283945 13.53574682298687
Na 12.965844103943656 9.150363037952014 12.559225664120694
Na 15.762674586028757 9.856359591095195 14.457077172292992
Na 16.264827069444923 15.474849115634322 15.969252173405344
Na 12.512320868564888 15.177109626981398 15.734520124365472
Na 9.800089728421515 9.391463526314029 14.010995812354974
Na 10.075706290348723 12.73533473532762 14.988866132688202
Na 14.036586181289227 18.041526488768977 17.16499481721109
Na 14.906719683035998 12.387934094615687 16.663083998935214
Na 12.615600941789166 9.92169282762441 16.011791361692413
Na 14.230944274703802 14.96393326662588 18.835873883998346
Na 11.694509449452124 12.708560952507256 18.09514761501645
Na 9.359580236986183 10.146202866762374 17.41210373858269
