25
Energy = -24.80065901 eV
Na 8.248077399483167 12.070558976538399 12.905068954392842
Na 10.73241899247952 10.201435893963264 13.915368161839524
Na 9.15313048776157 16.952075263479177 10.26561519258167
Na 8.855747212297658 15.652974965391147 13.423297722195796
Na 13.368029232518444 8.551898242504661 15.03444190885656
Na 13.022932588016465 9.032231513532288 11.326535019688407
Na 10.583098779438206 11.04543564509325 10.017927719771668
Na 8.364034084181325 13.678440649412392 9.911905944010332
Na 10.105779588979795 13.280729605932354 15.640146726432437
Na 12.678801466761723 11.391222718076843 16.893315992686762
Na 11.421735904983354 13.618562521618202 12.298950499790147
Na 12.073246668008064 14.656006684604343 18.216921071704267
Na 15.668260380703854 7.281057667300488 12.779497330431166
Na 13.995241663035245 11.692457559125812 13.64637887704271
Na 12.186779252553896 16.047148254020573 14.925490888672757
Na 11.614139015209169 14.478931221312948 8.92640203073961
Na 14.799048694321339 14.167796272501757 16.187251395198253
Na 13.887675411307129 12.238971307845844 10.05064504063629
Na 14.714532808516369 15.00388592991523 12.758220058210949
Na 16.3606896390944 10.347069386749943 11.42202235027332
Na 16.77894518783891 9.713399251388644 15.039989664017009
Na 12.291769615781181 17.048486451555398 11.527100332386164
Na 17.216961955204898 12.977666434350606 14.062268688185823
Na 14.816354788731402 15.689272077719691 9.35654145841176
Na 17.093988008404935 13.602370676654038 10.606093790708414
