27
Energy = -27.84596917 eV
Na 13.243458434772183 8.768819464589997 6.2606305459762215
Na 14.63454353497311 12.193791062068202 7.031603090908306
Na 10.729143334605164 11.581524066114273 6.895454528867076
Na 16.03238195505253 9.218559666798624 8.567598741473041
Na 8.445140612985098 14.003140246529462 8.7703460766011
Na 13.386670122634415 6.738088006806563 9.248222498681299
Na 10.061701527870023 8.134526576921033 8.53271489514249
Na 6.70242276520868 12.58458994243834 12.149067703051152
Na 12.799137724643362 10.157606839804933 9.337374211925306
Na 15.150841623880803 15.355733514154203 8.77834006219735
Na 15.322787347927784 12.35775546301712 10.58552329933992
Na 12.035090432627548 13.827853252326063 9.357350934651441
Na 9.474062396870147 11.185176666791367 10.253989477697708
Na 7.458332974266503 8.812600870470183 11.762720640184275
Na 9.78285967927026 14.353589757390191 12.20273989135833
Na 14.651533633244995 9.020548078121406 12.135574270084904
Na 12.255142303800392 11.723770560938872 12.308226872062678
Na 10.357459209082492 16.545130924256682 14.850519937681042
Na 14.932198869173405 12.041370001171549 14.341086551758014
Na 13.322262420677731 15.070120930764823 12.488869084315674
Na 6.294484069290813 10.517316697124722 15.265166985433101
Na 11.037008050253373 8.187102755876683 12.01820811031683
Na 8.654192377538608 7.804382728238197 14.951917395227687
Na 11.56602429565391 13.310788934021605 15.419877433463636
Na 9.32781741243418 11.00704642694872 13.92135741670416
Na 7.914497865107389 13.891730166126157 15.39958957796567
Na 12.356026988431148 9.534558362465098 15.093151729207309
