20
Energy = -19.17616466 eV
Na 9.331147297903472 14.131204586420322 12.267162436931102
Na 12.274681959464754 15.257787665652017 14.691897193587078
Na 9.716901015709949 13.279274542040426 15.696201673889039
Na 14.847089860073016 16.384726593863917 12.67346919064861
Na 14.358605826002139 12.344596637011922 8.361707213880866
Na 7.134609902245471 11.834788111199618 13.612114124397834
Na 12.570726567402875 9.878098325680407 10.1173333419898
Na 12.592268839267422 11.537871680430586 15.250642351327299
Na 9.561047990194693 9.881776595214864 15.213760947258349
Na 12.084404212855205 8.406778097380236 13.405271916969205
Na 14.495775017846992 7.227277707429745 11.30870136368782
Na 16.390567068166167 13.16437415275905 11.434819664064655
Na 14.987700840021066 10.292905159924352 13.182356311423357
Na 12.942154282867065 13.110075375473226 11.964589455397169
Na 15.276908817782298 13.40080972482622 14.591599553959927
Na 9.939943483424537 10.794570964940334 11.92788937718482
Na 16.09885288989732 9.902172080129132 10.008522758905753
Na 14.385635348439653 15.483742220618064 9.423105102666423
Na 10.939579844661633 12.84665068335951 9.254134411587083
Na 11.361475776525003 16.22111867546916 10.69853525521335
