24
Energy = -22.7762149 eV
Na 10.979266369954125 10.816686523026945 7.228032735073909
Na 10.980770904738208 10.808870362078391 14.701890868672523
Na 12.799071554168059 8.396335304040782 9.110628067364111
Na 12.78846316162758 8.400102134342818 12.80522066102859
Na 13.88649936296565 11.731649872544237 9.135379820684243
Na 13.887548222744808 11.75515658630616 12.825498575131334
Na 10.968493168907498 13.850243635429885 9.063174667709196
Na 10.950476465266723 13.826997482200602 12.860119598925307
Na 8.092581352689452 11.73613226309792 9.110423973769997
Na 8.086606357518985 11.756260684696748 12.825007716380735
Na 9.226160697354938 8.40284337219511 9.055253534244777
Na 9.235009451569173 8.414624177073737 12.756534277338282
Na 11.003731492986226 10.860121818836827 10.958544475341983
Na 14.57197887499045 5.881735735443909 10.98576738648792
Na 15.759391161702805 9.233753383661309 11.002359300739393
Na 16.855989904781048 12.609888605980736 11.026152733501599
Na 13.958335952312202 14.747044545855251 10.849261847923474
Na 10.85071720092406 16.806468786336907 10.971229727959233
Na 7.9439944686045285 14.798751078691692 10.963846125641576
Na 5.135225776762404 12.633254786648903 10.988845415301107
Na 6.251252694282407 9.271532157050217 10.971167221192543
Na 7.4610586678844975 5.951807070640528 10.86936114478853
Na 10.99345107679919 5.90839190030823 10.928516669574536
Na 13.115816553391591 16.583213626193402 13.695825714982705
