27
Energy = -27.8360739 eV
Na 15.013064057970222 11.393579428866632 9.124324385784648
Na 11.641164205306138 10.03961782150371 8.661077387832988
Na 12.353171454454143 14.021027401900984 8.919311429210547
Na 9.521489061921574 16.369786647289768 9.851111048333712
Na 14.38094588351932 7.839461476087498 7.992089139987191
Na 14.99517725756241 14.465662211811004 11.353987541772227
Na 17.091083442651026 8.642494929375196 10.203573940845803
Na 9.254656689506962 12.683573513722827 10.560136734897123
Na 12.538614686211965 11.747793277167242 11.591264176067517
Na 10.057388924325133 9.257468835550831 11.901769295316713
Na 11.424920067661311 14.970740449458553 12.296410869224532
Na 11.506532181677303 6.543779208053418 9.75558613688551
Na 12.892943623846163 17.52214978827101 10.549331912714704
Na 13.881855960695534 8.390340375594269 11.435997516834286
Na 11.563438427621714 6.48537599638592 13.475024178114982
Na 16.535760237309855 14.539696719391161 14.609363134789177
Na 13.72933446282099 16.956427934670184 14.135318445076091
Na 10.377142325585968 18.245469113311618 13.04153608290398
Na 13.427958995968083 13.270520662099957 14.589118381011435
Na 12.823772575239913 9.825956977693858 14.605469967571993
Na 8.098547499552163 15.478493808611493 13.090860392946992
Na 9.824385255326014 12.242101198730547 14.045907729955978
Na 15.91597139909567 11.285379521950405 12.72871534014854
Na 9.658058172357068 8.998850641927442 15.539918513038854
Na 10.619616983049465 15.587569935751974 15.741942789519635
Na 13.784182510177263 15.282830870722348 17.32404678841187
Na 11.393903686240856 12.218931281755063 17.18188676845809
