26
Energy = -25.74382393 eV
Na 19.21013576220127 13.16069212343752 15.334729567293374
Na 17.829513170775172 12.966535366892497 12.159405652319007
Na 16.806185813921225 13.337246294925157 17.800495951591664
Na 15.195537871539972 15.673417251379066 11.344136797106286
Na 16.43784165748158 15.049434629740624 14.615091348914971
Na 16.213289675672744 11.384910265078155 14.960795156473491
Na 16.024196303062872 12.840303334121375 9.37037341709182
Na 15.116318753067052 10.584072647933708 11.862764003177793
Na 13.7954725544608 18.98857669893331 11.249830557809279
Na 13.904383968647153 17.192410364924985 14.279399285126694
Na 13.610061950120915 10.632460594492672 8.549616818520605
Na 13.354447419849135 13.435449574898668 13.496247741692978
Na 13.817671346999827 11.520698284360353 17.637005446984222
Na 13.613453304454202 14.884094788592824 16.736070833703078
Na 12.621965534058504 13.64089032110326 9.933409130227012
Na 11.748753439212882 10.468037537989456 11.567705678564279
Na 13.161120379898522 9.979884344390006 14.566625273379012
Na 11.08781109598644 9.429507230930799 17.348834878553344
Na 11.138643840706527 18.97216738034859 13.520188346056692
Na 10.663838383627168 15.914730000451412 15.02757199620363
Na 10.901879337608543 12.782957287030264 16.15580099328939
Na 11.544975359624612 16.263384877128445 11.539268471641583
Na 9.950559923147017 13.42189495688403 12.635282717410073
Na 8.250954327260965 10.635013005912342 11.303061411179055
Na 9.543798648290078 10.153005448294135 14.3858470701963
Na 10.217041696704996 11.343187882940107 8.597592542509524
