24
Energy = -22.55084461 eV
Na 14.963314878187967 8.804744031141727 7.328341993675377
Na 11.309668991287346 8.807514379682406 8.582389040270144
Na 11.985311093453838 14.740785522576987 8.623364019518194
Na 13.525811110255898 11.468998124811282 9.15111483625834
Na 9.77259761488209 11.988083613365202 9.15724193236073
Na 17.023897748464385 10.298559455636008 9.811825606307679
Na 6.4538664207942205 12.840712378974208 10.626180268844418
Na 15.14199191373074 14.395782142767619 10.659884023711204
Na 9.112068434228851 15.08987346778857 10.998238874127349
Na 14.364130143142997 8.278828507246804 10.810143909194874
Na 8.309927562527749 9.325391953009962 10.885292842239451
Na 12.493254184186261 16.660271637030124 11.713371771730959
Na 10.43056957396634 15.008732896741414 14.477531547316344
Na 11.532903796654924 9.890764548067144 11.937984615865675
Na 12.027795628370853 13.246324415143105 11.831115043005324
Na 17.164552195820747 8.683524116200488 12.98369475836828
Na 8.934592214070687 12.055002305924274 12.98394430635795
Na 13.605609873385653 8.661745344802883 14.528315638616053
Na 14.91029213903893 11.38613040158258 12.73462982323172
Na 6.732874501625482 14.568262354587429 13.881041939281022
Na 14.14648959649959 14.60690855196648 14.290735805007746
Na 12.116888526904313 11.8363939538198 15.2813390722959
Na 9.839850526114915 9.218765986615258 14.849228731874804
Na 8.657127839717283 12.693286417829801 16.428436107852534
