20
Energy = -19.15855719 eV
Na 13.640811879932938 16.387062947651284 13.782787072746444
Na 15.365412352019224 14.784057662170891 9.389386938850848
Na 11.77577457890391 15.563472287607722 16.64863015713291
Na 15.360333401972111 13.469338256914462 12.754719035092391
Na 15.099988781121287 14.237044529855448 16.210966854137716
Na 17.325751086654922 12.075406836464882 10.439527207741932
Na 10.094003268190676 16.087204629571257 13.557739845618366
Na 12.179391858529124 14.695763555601967 11.064263224478792
Na 12.35866791874237 13.90041183049478 7.765768317699912
Na 12.236037154192417 13.207466457189842 14.14165408509524
Na 9.176910364312754 13.500419038379887 15.775068291044299
Na 14.044764974153095 11.625997295070148 9.73009016394716
Na 14.51838037870309 10.793088975843597 15.119761084190591
Na 12.41954909004864 12.293225964131357 17.52133307209659
Na 9.365278619882135 12.740307381490172 12.327281940987591
Na 10.450991204475619 10.327919463113078 15.53002170285142
Na 15.49934996997044 9.464155665812099 11.848340087152097
Na 10.676845827899028 11.233798951293188 9.290701438213564
Na 12.004857096433824 10.192951938696755 12.533337487852581
Na 12.77014284933352 8.437554041353108 9.851407346996234
