20
Energy = -20.28916055 eV
Na 12.002710246038799 11.267093778661922 6.699965581714308
Na 8.912228154866861 9.12256484727806 6.900533288064204
Na 12.214393347909933 7.76524778394983 7.872508076186208
Na 8.686575934687538 12.721990560301146 8.073084014269945
Na 11.922114769143707 13.586550895917236 9.338038422757492
Na 14.128616739224514 10.377141671920251 9.367265323434369
Na 10.294124551928666 10.179091800048838 9.621795818490344
Na 9.097480204617495 15.66963574692311 10.026793422356757
Na 6.7639254138188365 9.912451711826261 9.89725995599975
Na 8.911566107854135 6.92741301366473 9.880090792633922
Na 14.537048513129735 13.069031874748537 11.619271036667945
Na 11.626237961214471 11.135901849426338 12.221679621383904
Na 12.02995600043339 7.709950757930986 11.440063352258832
Na 8.184796340085914 12.614695656419844 11.63576940950363
Na 14.759022662507126 9.58156434578109 12.790924023024226
Na 11.09081096510798 14.435894951705956 12.73073799320821
Na 8.514824379874806 8.926943695787129 12.808917878580575
Na 13.07941173951897 12.067418529829972 14.95607781177598
Na 11.464999890824377 8.735470883668413 14.810468607667133
Na 9.303176751663266 11.717966318659485 14.832776244471841
