26
Energy = -25.84503156 eV
Na 11.932229263541835 14.80969289999611 19.53679193596122
Na 14.236074448292186 12.287419433047523 18.517356125412753
Na 14.246958174063835 15.960494673628329 17.335920286732456
Na 10.524039738502875 12.458537723101927 17.66031945810258
Na 10.630377884082922 15.72756132472442 16.292387059477097
Na 16.538453112572125 13.505355221678327 16.240035560962333
Na 18.31223395561764 10.837505675838404 14.883316586670645
Na 14.821206077705897 10.420694099852438 15.432195346045617
Na 11.269481097721945 10.14057727840706 15.360227674223728
Na 15.280186243821197 16.065621161158344 14.111385752412048
Na 13.045276643851523 13.347860964919214 15.150056292999466
Na 12.733252660672438 18.28948025047339 15.132212187771898
Na 9.609458324581288 13.085437188553515 14.153196122569907
Na 11.40655490786521 15.726827098405913 12.98940972499428
Na 14.10781715063852 13.640959846103494 11.84479971344416
Na 12.754014694314721 10.481016219302068 12.45538955809281
Na 16.166306774040038 10.704838671546593 12.163057729744466
Na 10.678815956463398 12.937059560264702 10.790916518238275
Na 17.603288161854888 13.78339100126439 13.007251116371918
Na 13.592944664692869 18.189366663488105 11.85851218912611
Na 16.159095897618833 16.14255920997941 10.733626608466523
Na 17.38763032470177 12.917244879907269 9.605887967768068
Na 9.250569516952323 10.114444349986428 12.308263238556833
Na 12.21553138760259 15.820611445705497 9.667188368080174
Na 13.763126434950864 11.2481907126017 9.330824494959506
Na 14.698926323114804 14.34130162599981 7.998916678654922
