25
Energy = -25.62578954 eV
Na 16.16519146355395 10.577039186165806 7.600270500257778
Na 12.782752053011311 9.93792084829739 8.447274744920989
Na 13.573021526051422 13.451146869204548 7.579308420159435
Na 11.102095116381971 12.81576489264131 9.99786356900578
Na 7.686481221309669 12.888671179103644 11.082556402450637
Na 15.032896355044311 12.295517728416034 10.462395476468176
Na 9.538500129083394 9.694005163744587 10.417104406885327
Na 13.227022198266761 15.595503247875474 10.76756682745876
Na 15.571558088308638 8.58727841277606 10.480393032909097
Na 12.328312634612459 6.915573734012865 10.511506938017963
Na 12.64934848914908 10.028849883194715 11.943031169494288
Na 16.05229810793779 14.475085668274026 13.077374993648457
Na 10.987978610143054 18.537322934345546 12.50296400340347
Na 10.044072317399046 15.23423873668612 12.547677383930342
Na 10.424303960668347 8.01514017135952 13.60650250318773
Na 9.694692724308695 11.5607278669586 13.522027002856547
Na 12.889971805865173 13.130795681257778 13.239850033555008
Na 14.139075034608975 7.367392450589375 13.653792078839105
Na 15.693390476135097 10.80598608256756 13.746020024119748
Na 7.541510720471062 14.472641974708006 14.74696946536252
Na 13.013615406704357 16.438881634300564 14.536526170112822
Na 9.579591000833517 17.30730763386148 15.517211873128304
Na 12.59213469455085 10.346511904421655 15.536624527328424
Na 10.891764520878144 14.007446324723643 16.067925482376836
Na 14.604064748444829 13.318893194235251 16.214906373844727
