25
Energy = -25.65268195 eV
Na 14.29779514787212 9.518478774907289 6.8678183580569705
Na 10.512692310413456 10.844771195732124 7.807403480026519
Na 13.04238817857642 16.324684635335437 9.492625481033551
Na 13.794339319207168 13.128630187900402 7.616523558761623
Na 9.900092883755192 9.844919761762402 11.11447512423514
Na 11.984697882112556 7.63319110587727 9.052443287698608
Na 16.7153401114867 11.210953998750256 9.072920783527106
Na 15.62608753991694 7.914277547196181 9.925673661280614
Na 7.741961555289228 12.311061866357102 9.870840947037626
Na 13.361877510443152 10.622494928128834 9.955124636362285
Na 14.870197527308678 13.775189351099101 11.073479451289273
Na 11.071059569490451 13.51904485293913 10.001432205790161
Na 12.891518835357758 8.244751729246314 12.643123830228747
Na 15.868338022046155 10.500836279360833 12.536187615221356
Na 6.871804727251452 10.717085969012023 13.12674725823612
Na 12.470638818618223 11.803548307568631 12.939254779836286
Na 9.286981224305276 13.150688928256313 13.011376749606267
Na 12.149139661918865 15.348225439573396 12.985939686057103
Na 6.088931513654706 14.200993078941602 13.453563456687014
Na 10.10499334335291 9.921129912200442 14.786939403450098
Na 14.92179438926535 13.481922558287447 14.644789169263442
Na 13.764165648219189 10.108739268343754 15.631397627036936
Na 8.880174983944624 15.65469415489084 15.423561608891061
Na 7.788179988998613 12.415565144701649 16.217174698962936
Na 11.339227564863673 13.148539281300758 16.093601399092346
