22
Energy = -21.61095341 eV
Na 10.742708049635139 7.804614109908617 14.618346468035357
Na 12.491665142177597 10.436788612822646 15.840227072331194
Na 9.189189699004682 10.878271848401884 14.799723433304145
Na 14.138511307103935 13.32122403481314 16.917859273785076
Na 13.64444498286319 8.836050245635736 12.924710417590237
Na 10.67947735355826 13.588248929825284 16.45211545071371
Na 10.398598620985505 9.610725361254735 11.779489058124678
Na 14.923444233300623 11.98431434335341 13.82575095653279
Na 16.389370254600657 10.117665764880545 11.266312121352197
Na 11.658857397333941 12.747262165250499 13.138152070613705
Na 16.27688184312167 15.160204178398493 14.714027497694321
Na 8.330779255139158 12.680617934103095 11.91822214760192
Na 17.37920955761848 13.432957390132092 12.035754951605528
Na 12.959886589765816 15.71803462718449 14.71068665205283
Na 9.507960690525108 15.532167283493237 13.704756399052485
Na 10.722243640703619 14.852402397087513 10.371979393423294
Na 15.842620458305968 12.814585218757465 9.029301517733927
Na 13.20265990434703 11.284518449113564 10.449369954153276
Na 10.077557092606233 11.732882167931457 9.036676214106341
Na 14.192721191814545 14.819206972081911 11.424733024256913
Na 11.933465466120687 17.429463836598647 12.065757250001317
Na 12.79447481050599 13.78656410131945 7.9488207282936925
