27
Energy = -26.78286531 eV
Na 17.235862694088933 13.467654970253921 15.076102479252556
Na 17.43667398132562 10.180797367386232 16.002484433281015
Na 16.610678800497436 16.599835201259644 13.993026089364802
Na 14.728344036024295 8.43244213047247 14.77556108714729
Na 13.952453122937023 14.215780900561803 14.100743290728222
Na 15.929701007108832 11.145505090890158 12.909961344532357
Na 16.455512484086736 14.35512449675847 11.459878967382577
Na 14.353250618944015 11.551704693625124 16.437131799265114
Na 13.751748094277337 17.09488135961797 12.180932158065827
Na 14.355004879853912 12.092402625511092 10.077034660570535
Na 13.979081840918155 8.641713134555602 11.454763859580831
Na 11.371258037659512 13.067033653657267 16.11769780583776
Na 11.476694819495291 9.47502129941343 15.49137327236046
Na 10.382691732984147 8.675424810895178 12.244265404226258
Na 12.329316050464131 11.514610607819817 12.878560011379074
Na 8.914222009102522 11.545829927265942 14.287600369239431
Na 8.311367954185478 14.615303427419363 16.05477945799971
Na 11.029458593599255 16.08612685437186 14.277785643910411
Na 14.26603798837467 15.488925615515843 9.095911687232496
Na 12.005098547110636 9.967237132403648 9.050459528971311
Na 11.865179436325121 13.428883239650764 7.9334723542761605
Na 11.573751181271136 14.490392960159497 11.209301646757948
Na 8.954328886363747 8.52395565595432 9.142383116631235
Na 9.279004663006063 11.643242409643014 10.926209937554088
Na 8.326896766682294 14.633192342032205 12.574837895514188
Na 9.05858542067436 11.528966694063243 7.511427459048237
Na 8.589705224093466 14.568036095893351 9.210521640768892
