34
Energy = -36.04150224 eV
Na 10.490712259577514 12.099672066636384 7.316812672625193
Na 9.618294643646662 15.886096869876063 8.182785508029188
Na 7.653382355439731 12.976368795778 9.566837549012092
Na 9.775425223128757 10.062637509452248 10.48595216372119
Na 13.04829527041605 14.715017000345044 7.874354616550827
Na 12.014473265218461 8.602151076227644 8.072801707214264
Na 14.046347233525184 11.539822615142564 6.200621015989514
Na 11.810912632050556 17.21186849698407 11.017597662065112
Na 13.329560344466524 8.487816948005573 11.528573490922854
Na 8.616211248288584 15.783908701975507 12.11492858050229
Na 16.273066425158127 12.997332810361918 8.815535659726686
Na 15.583470979976424 9.378830661287546 8.646284725016637
Na 10.819730426453242 13.698815403251663 10.480431814859584
Na 10.26374987919556 9.027096772257902 14.044269876759696
Na 13.217155727923709 11.507117861369526 9.542274576202052
Na 14.263607268918022 14.469160276189545 11.462388808228821
Na 10.523784771126738 6.601567634817096 11.13158072419992
Na 13.981716719421746 11.93218381851064 18.136610396297698
Na 12.391635742721173 15.385243750153947 17.172979835447407
Na 10.910385291626794 11.98021844671727 16.260908442423354
Na 11.771399385115732 8.708778266075072 17.496682625931502
Na 16.155214651965075 15.171232053149101 17.123117589260385
Na 14.037755717600682 9.692138071465553 15.170835236302416
Na 17.028474698137728 11.835757829209754 16.04670819346391
Na 10.890204925903044 18.02293293117752 14.644694174945663
Na 12.190335740007281 11.538380453786948 12.828854598467208
Na 8.891003907445326 15.11037290603221 15.963759931387077
Na 17.198319991613147 14.576543802907297 13.5984541367198
Na 15.815544802514157 11.314184204790461 12.20892412370321
Na 11.464401627380322 14.80225684146925 13.791393119264502
Na 8.79294493461959 12.295394727466212 13.257151284171076
Na 14.255361638790356 13.293360631178835 14.960636260102225
Na 14.316576151952681 16.86623375136501 14.37476652682206
Na 12.522237032827926 6.391198928740103 14.441185287817003
