32
Energy = -33.8582881 eV
Na 10.291251239294612 12.798236483440894 6.238819093085982
Na 11.841352947557295 9.434156592621472 6.913005712270346
Na 14.012164488998202 12.558411232551038 7.21780502873114
Na 8.419845465662068 10.260205615856236 8.055050414054554
Na 11.76184984872309 15.197658011101707 8.676526580749028
Na 8.168050522246643 13.625569379530775 9.4215384267301
Na 15.445798554796772 15.60158455713329 8.894794061610263
Na 11.131244471496908 11.777033022813983 9.348269470863386
Na 14.369973030430867 9.780977081904162 9.579112693030323
Na 17.1763013906983 12.327163582020821 9.715353447750697
Na 10.876244505950865 8.418410186468444 10.382935392865527
Na 13.941684744904855 13.230885738793958 10.697193289692821
Na 8.611495868892147 11.104444205979144 12.03786938832239
Na 15.840695717166804 10.92859883765367 12.849042503382766
Na 10.54944838728772 14.287425908647808 11.995494093578534
Na 13.325337075816662 16.45006606588978 12.140830293591316
Na 16.56264459794235 14.581579323984258 12.651822376757835
Na 10.388850012325786 8.769455909836392 14.561342180689909
Na 12.25528980647893 10.827956113057484 12.465766258656707
Na 14.691514176486157 16.146120147252866 15.8569743069338
Na 19.127310893666547 12.340065942244781 13.109897985929582
Na 10.484461055136897 12.252652707198088 15.066610026903202
Na 13.721217466321283 7.870213559624788 12.87772517017993
Na 11.03890218546342 15.744730311917493 15.31986996631828
Na 7.646541322347921 14.008588555137042 14.042644846403784
Na 13.563135680424775 13.504544569378517 14.162017629915974
Na 13.660122758559583 10.296099779764806 15.869064295864582
Na 7.5222528673681435 10.925469000781975 15.988223772117609
Na 16.49089616246492 12.800230934949118 15.9525715075227
Na 10.595691772324018 10.356292106558833 17.94645104451694
Na 9.00601873644328 13.765661588212257 17.69944529477317
Na 12.851438197375574 13.398538898747688 17.634959397260577
