32
Energy = -33.54842563 eV
Na 13.733261782899561 10.165275447941445 7.477831532165758
Na 12.757166019132134 13.89063195267026 8.282881953455107
Na 10.851045883849386 10.945552814279301 9.704211510720267
Na 18.048638246059554 15.926274200340327 10.350746404561335
Na 16.444133735679745 13.215149402812317 8.311832213092494
Na 11.337239133449751 16.74467112271402 10.497792333434878
Na 13.266793587299547 8.25041829019615 10.46146121196454
Na 9.915269447577712 8.096068441779744 8.287383457727406
Na 16.80688170739541 9.673090951078724 9.534187014163304
Na 11.7706196739604 13.685439738199491 11.704564236458815
Na 14.317666048135234 11.628420205673367 10.559598893993803
Na 7.268813642681033 10.45944311634155 9.829465133805254
Na 14.796459097276879 15.368317495997694 10.893269256148015
Na 8.810559839939021 14.001292049892962 9.803227114233682
Na 9.280923516368908 8.470982242168976 12.005878599434153
Na 17.618942954391883 12.559376967874936 11.813506191340831
Na 8.896461735940417 12.027051406762116 12.623076748622791
Na 12.116375591721756 10.200897991437943 13.119861948435164
Na 15.629587225562917 9.672680139325193 13.1691755803745
Na 6.199836433970305 10.496233798195508 13.467571168930947
Na 9.184230839592823 15.548943188458065 13.479905307198282
Na 14.508298528771956 12.994041855720825 13.729491775046425
Na 12.857567298268775 16.20888943732191 13.98372768561266
Na 16.807384662090637 15.557689229565382 13.925072445382694
Na 11.249822155008763 13.09554734338278 15.1036142202381
Na 9.46426798430051 9.985008655804284 15.519369594178045
Na 7.789770493398586 13.208552094388066 15.929214361895164
Na 17.183250754073427 12.225992810480971 15.506552799341616
Na 13.652798631573564 10.727237826539989 16.301133990633662
Na 10.441026554415672 15.775109536574977 17.05114425806501
Na 14.020618535949302 14.510194009052604 16.94174303364
Na 10.580716810451985 12.291954788215847 18.23793657689269
