36
Energy = -38.15719568 eV
Na 13.957853164349137 13.159248518970436 7.129479236624874
Na 12.515042858544462 16.71903349857669 6.884764654456554
Na 11.409992474804064 10.418303006217661 8.100363287607106
Na 10.798336777728517 14.342746808504938 8.550329700716118
Na 15.011416667509657 9.575223447204698 9.03931004710273
Na 12.54672508488655 6.8137043405775595 9.294193866226475
Na 8.180084941280725 12.277770015095625 7.921978858989954
Na 16.77777779126351 12.53185605965946 9.953924786822288
Na 14.311490771065417 15.819414037547292 9.932458354194756
Na 13.401090781415853 12.367414453620741 10.41187036826137
Na 9.308536028769552 8.191263802219261 10.309507288601772
Na 11.240700699126636 17.630920869834696 10.339778827182714
Na 17.95083189928957 9.11868840300906 11.259755873344783
Na 9.758344670114672 11.742370175760556 11.047119047156503
Na 12.37794048592229 9.242413801043492 11.493992170808912
Na 8.31154580464862 15.132935195060826 11.242028894061427
Na 15.050983786060915 7.032032224515899 12.116695316918698
Na 11.672496431794205 14.743404474276202 12.106741676413558
Na 12.364524303933356 11.694392211521656 13.73510203392986
Na 15.266671065326024 14.183604398730253 13.05147653616544
Na 13.707584357033213 17.36084500366812 13.350144681979504
Na 11.444824251331411 6.164313753783311 12.68178827753464
Na 10.003207451546377 16.884222277843982 14.12415118076837
Na 6.8300368723062075 15.342282664290062 14.790598637851685
Na 15.461234772491512 10.644513824092536 12.806109067206037
Na 13.317376524302517 8.528012576490719 15.095728278526078
Na 9.216546673836424 13.039227683626816 14.346712332920292
Na 17.00440601536714 8.397056547637698 14.899325171975333
Na 9.813685568385546 9.320553837725956 13.948539778413812
Na 12.336701504170973 17.366523240655642 16.994769460792575
Na 12.492052463736572 14.4981319986023 15.429809084048907
Na 15.533825420630762 15.705544290865458 16.408466391249828
Na 9.616958689376348 14.883959457224844 17.387792544617838
Na 14.960930216265226 11.849025879869222 16.259628867729372
Na 11.254381579355288 11.40473133842398 17.0553001232756
Na 13.074296649580914 14.154751380801294 18.780700793073347
