30
Energy = -30.85436948 eV
Na 15.771951605975833 13.285342946894302 9.503311776203835
Na 18.726491484797275 13.559053400774426 11.525733158459067
Na 14.1823552830052 9.92544703524872 8.87586400397861
Na 16.291506734438677 16.491774097757844 11.10571724996009
Na 12.01396773747113 12.856069141751123 8.602885995167206
Na 16.720052279839123 10.579554797290527 11.697670389973943
Na 13.188637928747557 14.915799102984856 11.555628545950531
Na 12.82351243066971 18.244371056140285 11.246857384985676
Na 13.43195442612638 11.528995091381914 11.733673871085458
Na 15.868000161608647 13.707526537343407 13.506501424161405
Na 18.21949050787509 11.807953747495887 14.819203622477902
Na 13.758737625276286 16.127263076125573 8.3633094333503
Na 10.636434457541451 9.75255389686123 10.053731239546948
Na 13.17479767781769 8.021739508267787 12.040925070488978
Na 14.622686889953597 10.340263303864702 14.87812817601615
Na 8.965984675566299 12.744434345666514 15.280620494653991
Na 11.518665262883271 10.573700869112795 17.106150877575633
Na 7.514983979016379 10.526670749871514 12.66009621754045
Na 12.56363080206022 13.392599219194521 14.957682653185556
Na 7.168433890421602 14.174769919672254 12.508857916064295
Na 8.502005697757083 8.907117564419385 15.736047659520175
Na 10.431799244341963 16.004489979443584 13.692874228954448
Na 14.296494301085662 16.798213417061415 14.221391121232893
Na 10.258689130701228 12.905520458746379 11.949142811893564
Na 11.001812521759057 10.189328488653903 13.77407866113222
Na 11.777140618682388 7.33073192359628 15.360117209022565
Na 10.229758159534844 15.79284613677172 10.026270834133733
Na 8.008994439825269 12.170762412850372 9.449723766379638
Na 7.335292624419068 8.545340041073434 9.756591006776311
Na 9.45994507598422 7.263975388865906 12.475420855310803
