36
Energy = -38.2686101 eV
Na 12.647152937516754 16.088204177282748 6.795884344710654
Na 13.000486792072213 12.435174180420264 7.738982552705903
Na 10.256204582944132 9.643446185378474 7.665940514325073
Na 9.565044825289366 13.731529297792676 7.416166871904772
Na 12.99498676144723 9.53783965514744 9.895120919922267
Na 15.244843792061687 14.912733546389045 9.311151037154666
Na 16.16928913429481 11.020310177933705 9.62245063824287
Na 7.255828088688346 11.151654244663517 9.314435714293209
Na 9.504987420909242 17.40320563034149 8.451769731751842
Na 12.166018654872321 6.409339457521403 9.2956607212495
Na 13.60002025896135 12.718758302574175 11.38697965845852
Na 9.519510182848014 8.58023057283013 11.113374048077837
Na 18.382380688887224 10.0159674925838 12.46043050786091
Na 8.061878223669163 14.731674200327962 10.570742014179142
Na 10.37952066135078 11.969463260440646 10.207631572676876
Na 11.747777492856173 15.288994027244337 9.869142519889307
Na 12.575608593788765 7.16410547077409 12.797872754282476
Na 15.733062769021005 7.442901277845352 10.369729461014725
Na 11.523603683719514 10.548492280675898 13.311815631022231
Na 15.071669344095074 9.908334825257132 12.87617738415364
Na 16.706843164295417 13.440932827512073 12.674080311897486
Na 10.76359017780695 14.10479125020328 12.937541498419927
Na 13.878266458035743 15.95628544348503 12.85525580628085
Na 7.986324203044182 15.559619548362301 14.204676121347301
Na 10.307388803552252 17.544976614796195 12.132604524775818
Na 9.861250506609599 8.621910205350275 15.302569580716261
Na 8.048695220304802 11.615685229479306 12.885935737108083
Na 13.469574841260021 12.72803936356023 15.093049373645101
Na 13.690163185848123 9.037936260283841 15.859625268654815
Na 16.93543785965999 11.480861883303941 15.490976689698085
Na 11.492376758265248 10.716827871212784 17.882866645363276
Na 11.520341083092303 16.27483299093253 15.559807233602868
Na 15.403429928197738 15.160553131698688 16.221455630863748
Na 12.096481237137994 14.27446183631986 18.350170777762617
Na 9.719509582431327 12.83034848191961 15.94346684912021
Na 14.823089867689573 12.052216564681444 18.237097119391926
