33
Energy = -34.86568261 eV
Na 11.745983913208784 12.789345950215324 6.328175305366061
Na 11.60030994442883 9.126846114512661 7.257619699947154
Na 15.080784262400671 11.323607991290533 7.6611468891159795
Na 8.680435466795776 11.530198293271063 8.186498930908282
Na 8.149349654674081 8.06097153972373 8.191409624130653
Na 13.930752860445729 14.683448821942521 8.748962583992522
Na 10.01457643603419 14.726380620724184 9.16493945907183
Na 12.027294033267838 11.653180871999012 9.489639183040183
Na 17.580424499664836 13.67991989543751 9.684429202271861
Na 14.119625481673266 8.696541671263814 10.161812731230858
Na 17.63462048677426 10.150468373074233 10.461487732796785
Na 6.6592488741184015 13.605808174758883 10.631949603023665
Na 10.351701663054211 8.555815837286254 10.727706149297699
Na 14.972875962952294 12.133259020166177 11.134719854163222
Na 6.90836557987005 9.884781502445477 11.212627952558252
Na 9.474539625461889 12.073676905776495 11.666873779298802
Na 12.373454089549199 10.315806548274837 12.778309931814047
Na 15.534382408857248 15.540684170471215 12.318478699330846
Na 9.05094630125654 15.476117005930153 12.890274801914357
Na 12.233871260427808 14.364227704631812 11.835508021864987
Na 14.161567330397263 12.81685336914173 14.383176106529083
Na 17.66265983236686 12.671787271056605 13.409064121211333
Na 7.214937261259963 12.614882761094707 14.368120322906407
Na 15.685218655403725 9.557064494226756 13.636902233305452
Na 9.280336674693205 9.495769401424933 14.273823073334663
Na 15.898796536906817 15.144492688622451 15.964113417908253
Na 10.761601835676963 12.833140063205196 14.72982406311075
Na 12.476675082619659 16.047983539761006 14.928273322656086
Na 9.281373068208142 15.069260282012278 16.76735299679596
Na 16.054959077241445 11.565164337541454 16.85327107206656
Na 9.361933958424002 11.524331591382838 17.515473992618166
Na 12.599785497848556 10.06341824755991 16.269007501071915
Na 12.712445691999406 13.50059824773528 17.644860949308356
