38
Energy = -39.43484454 eV
Na 13.61166816655016 19.749086366409664 12.453852060433887
Na 15.62452935572441 18.91816718207823 15.325412609375013
Na 12.076276767991935 18.046207873041837 15.435821825405357
Na 18.916958815585623 18.418299790575887 14.527363980281814
Na 14.607740186314771 16.52316475284272 17.551460951573986
Na 11.136053201303344 17.444814973638003 11.88127683845882
Na 16.77792627810119 18.43253911903455 11.813611596290627
Na 14.110800533422077 16.97523545828511 9.953320706121158
Na 10.725559955229654 16.020520310741595 17.819507434702658
Na 11.3252575690408 15.578166832085838 8.435407397849842
Na 14.234328067614603 16.323109428769328 13.384737427697114
Na 13.281643946877063 14.28817123043702 19.656622351422968
Na 16.97248892883938 15.375988245883395 15.175671241974072
Na 9.761821116068466 15.578472197498764 14.376625890789656
Na 20.536506511220637 15.454561168045608 15.149886830933259
Na 16.52548035287843 14.885800676051568 11.31981169288148
Na 12.84972707857338 14.15785073851476 15.70599928149592
Na 15.617844148131347 12.861778285682233 17.51790362983562
Na 9.90973448703075 13.339424316076595 19.961312960277503
Na 19.240385275946746 13.456629758420844 12.70804717532683
Na 18.903230880208273 12.640049464896011 16.14011130710465
Na 12.21224004688819 13.967539068549373 12.108381102369021
Na 9.400950722727272 12.929355598208867 16.527778544357506
Na 17.124266847316118 9.83478106507756 16.250852848565994
Na 14.246129357725396 13.377492208429384 9.21988647867419
Na 15.612202209378738 12.331838797744904 13.95662165902461
Na 12.215666911480929 11.39107085400986 18.08470786188858
Na 16.87831530047531 11.485851443468599 10.787379283199083
Na 9.010584847355261 14.92558568955303 10.988641120932478
Na 19.072414022635392 10.069977556946906 13.365715267102871
Na 13.519804530794797 10.827124979477693 11.38123979155068
Na 10.959499912988893 12.200197621482534 9.30949901640573
Na 8.69059437447576 12.409250387444333 13.127915914198569
Na 11.796743283388901 11.218631646344713 14.463156696570344
Na 15.834891078668049 8.90620537189038 13.109510408465301
Na 13.91412591025342 9.141386941371948 16.289919633989562
Na 12.51661466962029 8.032138550691014 13.271620119044488
Na 10.032013588388233 9.645840063692788 11.581940928565768
