37
Energy = -38.2761591 eV
Na 13.164183699089316 11.219208416197619 7.906501051476509
Na 16.028115354632572 16.24220194421377 8.882786067782648
Na 15.322776956491204 12.792706177507483 10.005663967625818
Na 13.040280565957314 14.818572376968042 8.564352024527999
Na 18.58962388873068 17.902773673872222 10.384232058471225
Na 13.566178796364847 10.238337762304235 11.494378860904888
Na 11.060266789730614 12.494375272791881 10.262569477701211
Na 17.404466915855675 14.845377493575096 11.783221118209907
Na 14.144041906991513 16.650742232844493 11.958546977072727
Na 16.154051124548737 11.957434998143356 13.205945762200644
Na 12.919111155442163 13.582713471109948 13.102046973858531
Na 10.89889817359999 15.999020507830082 10.930690614205169
Na 12.09152295049723 7.651861187538844 13.513504711620929
Na 20.229837254147856 16.505027723397493 12.997197109039446
Na 17.03455518342846 18.198315973140005 13.42272665888231
Na 14.931105126146013 9.11465907726726 14.716012216900944
Na 10.62272121754952 10.755553699002938 13.410466729233208
Na 9.190395142976785 13.831629151670565 12.947926758297598
Na 19.030520124889485 13.563986941616573 14.623720214904301
Na 9.249237978190678 16.246907847209364 15.631215087656292
Na 15.853644869919412 15.179724418735937 14.957422013263812
Na 7.947842242980407 17.103774925089066 12.500196520385824
Na 17.3480151390654 11.076613625771895 16.350626070807678
Na 11.746856022708945 9.7092836607708 16.544740147632076
Na 14.01938132470644 19.319749675256016 14.429182395980824
Na 14.121238964057211 12.413207536944313 16.16557389426101
Na 12.650691614073752 16.202971414496584 15.565066396393455
Na 14.71017044598717 9.211034309145944 18.240049656722704
Na 18.93269635885645 16.92711640456659 16.156150422808373
Na 11.03805648939131 18.402272441645152 13.374428264718988
Na 10.696811702485572 13.07222809699488 15.97179976922492
Na 17.73847415193136 14.417010474491388 17.93792201638335
Na 10.649122773070788 15.411644226565663 18.59717534133912
Na 15.706658168412815 18.016870644895345 17.071271750907375
Na 15.677097055684104 12.26719763057318 19.36804723056761
Na 14.188453285927796 15.253040050136455 18.459936312236106
Na 12.09171190084651 12.19386869759515 19.084488152453467
