37
Energy = -39.2466158 eV
Na 12.898695255344286 10.371283301487791 6.176125606985579
Na 16.008723860865697 11.178015306343156 7.824133498725941
Na 13.224022143040445 13.287512969569082 8.284042254765406
Na 10.822591423835592 7.826155172948422 7.8059445171393325
Na 9.979407040677863 11.18556130226701 8.196419118187817
Na 13.004540535845912 16.889006147990813 9.117711233818326
Na 13.644271391674405 9.083525066009965 9.404524270784835
Na 10.00917672827391 14.448991329825425 9.724655704179472
Na 16.206798315160455 15.02904116188724 10.006199313650384
Na 16.900882024791034 8.918093747863525 11.291702579121795
Na 11.795151232024471 11.516264987282453 11.089189076599789
Na 18.551789941489822 12.131727664911994 9.992933135192084
Na 13.228370725937083 14.776165156104394 11.703635762584017
Na 13.376449417654774 8.657660850664355 12.892367037616479
Na 10.12879390626731 8.361138663846484 11.342856581097955
Na 14.258582408480564 18.030177828802945 12.413638114099186
Na 8.147561872239518 11.646390123069313 11.445310233316013
Na 10.55281305461561 17.29966021874247 11.916231747094155
Na 10.344377837386373 13.974750151348472 13.339909823458623
Na 7.640282423978862 8.896482549482084 14.068788279006744
Na 7.383542092511816 15.208578950728324 12.217699323457422
Na 7.562727356484152 12.598726626790503 14.97437693104568
Na 11.468186483021682 19.36926716677863 14.457995473018146
Na 15.24040259087279 11.831738792419403 11.320823516641276
Na 10.550830465062075 10.628143117500388 14.214909123661341
Na 12.710963085492123 16.11714247522751 15.11156298283783
Na 15.99098096691992 9.538900886442612 14.748259113316939
Na 18.1136169640296 12.029977015655131 13.403969076573366
Na 12.873735505132414 10.175625760760267 16.865918639427665
Na 16.081922414977537 15.13629486759437 13.872864163319617
Na 13.603816195229944 12.547110147030414 14.455101132407131
Na 10.837871123133999 7.374656126284346 15.1186782539113
Na 10.582364314795644 13.321266758523091 16.79254899647113
Na 9.15190074772448 9.932309216899784 17.27927079281025
Na 9.13286899967842 16.50466521329897 15.32574408505124
Na 16.59953398210198 12.559411272035524 16.50264305783687
Na 13.823245232156932 14.05037196449282 17.733107509697824
