32
Energy = -33.06926615 eV
Na 16.837214850683996 17.83585589241927 14.062003902096423
Na 17.55442919057193 14.608644497472634 15.507030235645479
Na 11.937521027767982 17.383282759562075 9.40823422560822
Na 17.182837301362653 14.374244123359082 19.075957054069825
Na 17.324122758479387 18.017228935735087 10.482852784104178
Na 16.612028796416062 17.644476476867496 17.717734024425745
Na 17.677060810532854 14.73847523669177 11.939954559166683
Na 14.888622872430357 18.789840799705505 8.079176484862696
Na 14.351826079991651 15.51713626186888 13.055378910321533
Na 17.79981062926184 8.25183982885874 15.114912026010947
Na 14.12882905862264 15.410651444662467 16.605706730093665
Na 14.98320698492266 15.542303947420276 9.444477955593955
Na 14.18478653861018 19.048815228235757 11.637762081929383
Na 15.12396547401935 12.336058277997216 11.158606727322601
Na 11.08180527020843 17.241823308989893 12.890145142724089
Na 17.943040259833335 11.5142078917714 13.436868856205932
Na 15.265807307136027 9.174386415765703 12.902548850099626
Na 17.65051973891563 11.368636263334336 17.139806857427864
Na 13.415305952449796 18.612853984855395 15.011209228065734
Na 12.43814092257327 7.993993744768564 14.63696658688242
Na 14.752901054476677 12.353700394465198 14.835511406889792
Na 15.897560869718687 20.653258091223453 16.023942862106207
Na 11.872000313667805 14.11604162971311 10.96531224222119
Na 13.40798286632992 18.984169686263172 18.454502693246763
Na 14.907788892263508 9.149241758004475 16.761769521310434
Na 12.095502547987547 11.035014803909183 12.756312043508323
Na 11.306009764191863 14.063084301029537 14.670121850349947
Na 11.813871364902866 10.98991969653314 16.517811710161357
Na 10.870533467573543 17.076232005246865 16.724013875932485
Na 14.004979229088251 15.823750076046476 20.05205363277427
Na 11.316830871266546 13.967654053307179 18.4626385591204
Na 14.437731678194252 12.310172211374764 18.65458922077155
