31
Energy = -30.84862867 eV
Na 12.63627892409905 14.838055345724774 7.789351193018494
Na 11.177616195485466 11.722056878129932 9.014524865459196
Na 14.627164312234495 12.011971117250424 8.387292093866765
Na 13.76618177732438 10.42294665623201 11.42646066231092
Na 9.946261459164974 14.90601976885358 9.907141591513897
Na 10.556668613905767 11.240621363241134 12.303953721462637
Na 16.003985600807717 15.275516807070609 9.169864651221786
Na 10.10951900556186 14.413989126222479 13.457203152466562
Na 13.027959995843307 13.935486015153437 11.171158614351002
Na 18.794088360219753 15.01817011492474 11.66103847172124
Na 9.91489255369686 17.70502593365493 11.79626423042859
Na 16.369484686040117 12.617402876498323 11.50097702154171
Na 12.714485530794112 9.387831356131484 14.531121285744533
Na 10.424251923373035 11.669494850300167 15.765672337891896
Na 13.109819901043986 17.3555465644296 10.24415202265521
Na 9.664213323732715 17.620133055865796 15.185316111966928
Na 12.680368536328412 16.94064930301493 13.762170192761907
Na 15.624587719276677 16.089777650392648 12.590187831089043
Na 13.6392601932095 13.083361805701218 14.46781698209733
Na 15.994737551518279 10.515151773390174 14.09951042515569
Na 11.38495806348219 14.859760742915066 16.599126342498725
Na 19.367392749913808 11.684998138478603 13.25918629643163
Na 11.618134114167031 8.900721400418877 17.784005944375426
Na 17.287407861745354 14.007445666274537 14.776802748145267
Na 14.92688172320982 9.956709219897169 17.326057099819373
Na 12.480801494361145 18.144109257832966 17.202011815718226
Na 12.49760020232053 12.19640167057817 18.533568869624805
Na 15.05117043739786 16.19887145251697 16.088984968383468
Na 18.238512475680974 11.09882965039277 16.686043975068497
Na 15.768480455497588 13.321213246484419 17.78824900665111
Na 13.4901775640087 15.49802591095784 19.245119448807543
