32
Energy = -32.63141753 eV
Na 20.04450320679229 11.978457056019144 11.823639503044852
Na 17.273950237974855 13.937727549188926 10.728054993183521
Na 14.310439252124196 15.575654293705758 10.398275505832238
Na 11.22214582647531 17.09227328082852 10.315056071068454
Na 13.69705306982461 18.572296762883404 12.29823843482786
Na 16.7214973994129 16.830585665216038 12.668788253606854
Na 19.49161799892615 14.934047801456058 13.354547996419699
Na 16.9846879767695 10.513677699753336 11.694141324760537
Na 11.248990139024436 13.6502503775863 10.177139269628194
Na 14.307121020345047 12.139135050955574 10.24568687546535
Na 11.697198984110798 18.918686058709934 15.157111585217466
Na 14.497808593818219 16.835479610400647 15.2710293464569
Na 15.142746625214434 13.450077350410938 13.643968098134565
Na 18.192689089612966 11.758354430073734 14.870494640417153
Na 9.337975886633068 17.953102767729273 12.971637137242938
Na 14.047148918646382 8.737960845256628 11.3572258461039
Na 15.377713555308977 9.706326355653234 14.67655730995409
Na 12.125490144270504 15.325077508873676 13.270394843952333
Na 11.385074334749094 10.179748001821268 9.674399015350545
Na 12.351540347641631 11.24045136168921 13.098719514227785
Na 8.992245698479886 11.208952184846384 11.996636309453056
Na 17.351033218686087 15.101946545372893 15.979224709520972
Na 9.724237369573332 15.816561423600614 15.873916602344595
Na 12.799419908360218 7.609631385386966 14.391515847298145
Na 15.098323256705642 15.48410922021495 18.516288350839673
Na 8.770813267010993 14.580849829440833 12.615231601479572
Na 12.242202511030905 17.104870792659465 17.985819518072
Na 15.61045040575628 12.197899438716489 17.085649466218477
Na 12.72975435586918 13.983148033895661 16.386628379733615
Na 9.811843253159932 12.456639003394653 15.4017865856185
Na 9.810093727981371 9.139348302620606 14.646385272915778
Na 12.501202941674808 10.460811135621276 16.51879561641915
