36
Energy = -38.61014874 eV
Na 11.374046173818957 11.095057130323102 6.855017059685183
Na 14.05320928296974 10.745906768632075 9.248461019532932
Na 14.296392810919466 14.078645195117405 7.726738735479455
Na 12.519779360378193 7.637897977869949 8.232773706067885
Na 8.735538746217673 8.4504572718135 7.719962195190436
Na 10.556917062128772 14.755331266522418 7.0705161407442025
Na 17.2855199904471 12.338220511249498 9.646336650451346
Na 11.499340499154115 13.148609417486021 9.772027143555423
Na 8.30031320496412 12.06381378787899 8.605623849274558
Na 16.61367874009105 16.09528596497393 10.084582851237187
Na 16.101762049988263 8.187654472582802 9.640960192281142
Na 12.896926346318564 16.546297270483908 10.054350582874873
Na 7.363842071570177 9.267634507150543 11.185995372838466
Na 9.873975545422711 6.596576920434634 10.709899297107217
Na 10.616363895581697 9.823396788211292 10.154913180420378
Na 9.22224149602719 15.591403958029536 10.69689642250138
Na 17.47910377622967 13.953312662214364 13.145832077680295
Na 14.644652536075123 13.700840335806504 11.29797093092774
Na 10.87976794400366 17.772843026277933 13.559761659342627
Na 14.580976573129165 16.68401632630048 13.323756521705699
Na 11.665885566337153 14.642765622243644 12.988276220335218
Na 8.882028767407192 12.29679873968831 12.281585975668477
Na 12.55444707124135 11.230217765381369 12.562937776185237
Na 13.268521291586346 7.939559069185368 11.856389485477138
Na 15.95571101333537 10.477966109746209 12.69465749303514
Na 8.652611920719966 14.951353537428359 14.889692099044655
Na 14.373481361014765 13.374650643258601 14.915929530450024
Na 10.041218524872708 8.901714114183221 13.786369859093686
Na 11.918525347972041 15.5500415948375 16.42930835809631
Na 10.92043661790048 12.23192341517001 15.37131490525675
Na 7.615379669534588 11.225497872120602 15.43830836917663
Na 13.489997444597485 9.596938837797918 15.456650273157884
Na 16.529222747431472 11.319508639311856 16.351874290510395
Na 9.361691331200602 13.294390951235577 18.150682125070006
Na 13.109898421446847 12.19093406247601 18.069088796546342
Na 10.27715951190325 9.753102180514444 17.535123567935237
