39
Energy = -40.78471028 eV
Na 16.39884661542146 15.208187008285432 19.84736521867805
Na 18.002888096406323 15.134158168065516 16.853108101021927
Na 16.050431368271813 9.15128712524818 17.106683533257453
Na 16.257675304275747 12.086239043696645 18.711608577652914
Na 16.78308972653813 9.071488961663169 13.737414092420874
Na 18.56891802981236 11.646712664520749 12.10198636310887
Na 20.276951472216826 14.248283965661313 10.414515556576413
Na 19.262996696956975 14.762806780567988 13.722090772712763
Na 17.393097013899467 12.087447780327192 15.378659783036587
Na 15.524179274626142 17.702850882886146 17.529389872292708
Na 13.15578100003259 13.948423303616769 19.403672785901897
Na 12.88632989067283 10.86014856177666 17.97811144852565
Na 12.974381791747529 7.813592388021002 16.170142563136697
Na 13.577349347171296 8.14616667002413 12.811602403652628
Na 16.808273110014 17.349404187963348 14.268317280748525
Na 14.65132935186559 14.462093675555131 16.186904949209072
Na 15.395504319030662 10.653853020986169 10.976799109956808
Na 14.09007147342349 11.311853603706936 14.585347789822997
Na 17.786677754902676 16.613361783778984 11.001597521976324
Na 11.29123752745307 13.526504016698262 16.497184424613724
Na 11.93077979889572 10.827058681351774 11.668978016554936
Na 13.38043414786897 17.653000909832986 14.770850118985345
Na 17.07733653435024 13.273939103192024 9.310890089943934
Na 12.414501951490902 14.429179221455252 13.105351818483099
Na 13.779937824077132 17.22890184451836 20.681096765492804
Na 14.452044514636714 17.043915049538807 11.709806196051005
Na 15.9217673770041 13.963269963738776 12.745629332762823
Na 10.775676048545806 10.282269036642862 15.0963529073434
Na 11.917219753361662 16.8806852179853 17.823891598107952
Na 10.275256458495017 13.22357397328999 10.170169772793013
Na 15.283884913920796 16.253899253871456 8.403523897697214
Na 10.792748396807662 19.563558403652046 15.963500758753714
Na 13.703431795836588 13.470203929091321 9.974533576332018
Na 9.280861954247262 13.021857025550313 13.63019753471513
Na 9.9450777537686 16.264520749526934 14.982734296626022
Na 11.776401905030209 16.42030185862177 9.618145833612013
Na 8.753170413706373 15.892964710488824 11.647686317173903
Na 9.17291235243589 18.624122908284974 9.590445163799547
Na 10.818009217921347 18.71227770880036 12.557997891956653
