37
Energy = -39.15482457 eV
Na 18.783507490884293 14.464970948512452 10.431987487019523
Na 16.209508735457902 17.045550742928782 12.147337019942146
Na 19.332811317097523 16.159528083598452 13.812575038563919
Na 16.633391561504244 18.46209747741784 15.46251830200895
Na 19.00032474423567 16.948377131957418 17.672935377169626
Na 19.744873308402504 13.752262308338668 16.560576541111832
Na 13.328334413148895 18.939597602422786 13.38507165853001
Na 15.604707215425167 16.941652911435238 18.83605648737431
Na 13.533954108984757 16.87805105378861 16.13724526686379
Na 18.367176450444504 12.498732787186734 13.559064805966981
Na 17.6701544173835 10.838543573041093 10.562747614998537
Na 15.717403791145326 15.92983519177993 8.834959339539019
Na 12.77386094729909 17.444233412848384 10.152219468980972
Na 9.97568143139979 18.926055403181067 11.927486932363175
Na 15.678958216458598 13.607248938384295 11.490334804856374
Na 17.53004783115326 14.011059431225217 19.342318384281956
Na 16.493447338668467 14.91576037775204 15.47180664346471
Na 12.988159392915517 15.355410624737656 12.945298697600865
Na 10.2676189416622 17.05271867337366 14.98317187751508
Na 16.94209468119158 11.402405676772624 16.78975467717007
Na 9.832369803129895 15.44768458157471 11.460338409959997
Na 14.253791889639334 13.73747958146602 17.888017606649125
Na 12.633539004574125 13.868304850518346 9.49879061381542
Na 15.785329423253264 12.524509677965932 8.082819596409669
Na 16.165252104219032 9.541324406693505 13.678451603316564
Na 11.487135936780119 15.814803040663893 18.687717535222756
Na 14.273123094569193 12.298727631845782 14.314068160472148
Na 7.2090448476928275 17.148761316966276 13.343377805267036
Na 11.444954848662361 13.833028607089936 15.760909633580948
Na 10.982376378916829 12.188236633391083 12.339334584641275
Na 15.03817861220775 11.219524844245788 19.96564771939655
Na 13.983170097300478 10.654577723031764 10.674118323671104
Na 8.301220141353252 13.834348153068202 14.406634876098366
Na 13.585144473833337 10.04281185690887 16.870742412510438
Na 11.296112786612598 12.036913718279203 18.83843572489653
Na 12.50977978531116 9.219869023197122 13.513970719422606
Na 9.998636449005502 10.730670994334538 15.592479272452328
