36
Energy = -38.34427513 eV
Na 12.159816133529224 12.692889488487875 7.334093434542458
Na 12.391427834955957 8.705439892700571 6.9179263223270935
Na 9.374280180031159 10.685541609172803 6.658176279260347
Na 14.858088142509624 15.030382232628634 7.6986193534645375
Na 9.015506538442073 14.172381423825476 7.86537254703024
Na 11.958697410114588 10.227232034285601 9.926600433616866
Na 9.444373414307968 8.09160014368389 9.143369771887626
Na 14.541575538721009 7.7032169167440205 9.773133966323986
Na 11.818818033451644 16.0045792645097 9.340219917863559
Na 15.219626374843832 10.899036036667997 8.02179446152825
Na 14.965055789623365 16.321559634503817 11.26937537751971
Na 7.762134868641287 11.395307651630553 9.747025944849204
Na 13.951637323108354 13.046795857281333 10.452158960825141
Na 17.258564151158613 13.498483853266913 9.897969028538444
Na 8.5256054729437 15.948511304531165 10.984121960547148
Na 10.40029543207085 13.076501036864023 11.148264920180644
Na 16.42187688480808 10.265475101147189 11.376145681519967
Na 13.37450500414293 10.795493220320106 13.362746155722684
Na 11.689377099849223 7.210155494149085 11.861149457079172
Na 9.176857364065986 9.648530008769233 12.467039414407978
Na 11.682042049078095 17.573502398395732 12.667006790702267
Na 16.225480451149686 13.638561754055456 13.3890153652885
Na 7.416952306352753 12.864870528470478 13.20799779063593
Na 12.694420570147603 14.442927804023372 13.446830402592276
Na 8.074058874402102 10.135449991700819 15.86879882076481
Na 14.79779871914687 7.6448653079008535 13.58598850389658
Na 16.72356824285675 10.485313662022229 14.935946753615257
Na 14.61327405721847 16.539553521757465 15.082815074240951
Na 9.203751830069173 15.715323424592356 14.398252890640164
Na 11.219044002555618 8.460225505382763 15.220914561801907
Na 10.539993678068724 12.191627710735206 14.76941199592527
Na 11.607618446367816 15.029265158371219 16.840414731813876
Na 14.280176670712738 12.816685925061693 16.34044199664165
Na 8.246712537750012 13.508143167485748 17.070499231476806
Na 14.095591942141182 9.242104864744519 16.9387259532816
Na 11.209351721283651 11.230422160750996 17.929590838267647
