37
Energy = -39.67998115 eV
Na 14.60527720358132 12.349534036671697 8.490849579372684
Na 11.339473773749706 10.684147286384826 7.699882087431623
Na 11.813386391654284 14.738363858454969 7.506988889919652
Na 7.9518622825010095 9.059846195444981 8.391766764481607
Na 14.387332067385492 8.528978892033996 8.0568522518906
Na 12.535062636302346 18.15227325524867 8.76798194500986
Na 15.374701489894743 15.78487705203682 7.573103512362711
Na 17.112966411310314 14.016432376953405 10.723173765243136
Na 10.032221203445062 16.176179063878134 10.491885961392438
Na 11.5056881747124 12.957688387528021 10.368652813463639
Na 11.039144279893863 7.171605911624905 9.518859767977824
Na 8.460653373679067 12.864199105564742 8.827314106129217
Na 16.48891158651728 10.186794547298911 11.030620697902522
Na 13.922454541929204 15.664591537478449 10.580736198053428
Na 7.863651048315477 7.230505862406261 11.66976520551994
Na 6.287643192301138 10.565067739093553 11.281273031546837
Na 9.588440626253172 10.109832227167404 11.0060398156248
Na 12.99859835752325 9.771778510471728 10.836257696187268
Na 14.249014700064086 6.693638026359143 11.365195112508514
Na 8.512446143453053 13.323157202091062 12.61692721542868
Na 14.424585478326376 12.596508275645041 12.244593461243413
Na 12.395928170418495 18.05117948005307 12.722284578223535
Na 11.834755361681365 14.699591144086705 13.341852367434264
Na 11.191350982905155 7.620226168635458 13.333440683006096
Na 11.342770529117004 11.1812750791427 13.594729793150801
Na 9.387464049116533 16.59975636831768 14.446290784940942
Na 8.284609302726805 9.812248619762725 14.429815949217268
Na 15.275497576262485 15.576973183417445 13.969520269782603
Na 14.454856969394772 9.266335063254298 14.199102236993294
Na 16.990928301216517 12.14627687794322 14.447895698303956
Na 13.551615438244335 12.616967782683629 15.605528559559191
Na 9.891603654806469 13.171957851918485 16.192330171485782
Na 12.454698410560237 15.932582557737774 16.541450718765237
Na 11.591046079256985 9.748493980472297 16.72411326939764
Na 15.686196112077212 14.171591820287023 17.49972996496375
Na 15.229146856949836 10.495140310433442 17.61426711905097
Na 12.475832235131087 12.815219354675596 18.82074294969237
