34
Energy = -35.55100797 eV
Na 15.512532343680363 20.41291334125405 14.408900395917444
Na 16.719300350766964 17.934959065564808 11.789986667546447
Na 13.48173659806304 19.598881795739125 11.708246638695025
Na 16.89441496364412 14.656173678733712 9.937983690727963
Na 13.770530479445275 16.426035388665333 10.147179272366325
Na 14.506540136251193 17.876398759891643 17.318792540410332
Na 16.99216317384971 14.67136732872694 13.434494034721235
Na 13.844384461094078 13.344925206524172 8.102362482716437
Na 16.831995838014603 11.344415149955402 8.636845429787247
Na 12.211457997808578 19.45211142440409 15.060213394111042
Na 10.960296140391204 16.958096255516573 12.54460191731283
Na 14.090885684614216 16.490386487410543 13.98254810714944
Na 17.514697956141028 17.814279445613938 15.290587516166509
Na 16.41408802263608 14.885504754893745 17.117406798925405
Na 14.049994971405216 9.868096919014855 7.210500881236531
Na 11.00601407238882 14.235587551424617 10.244539748221271
Na 14.099850076040969 13.012774896141316 11.690797583531122
Na 15.342579976882737 9.381231874641625 14.49987268785977
Na 14.77880610247114 9.252857931146142 10.75340495792177
Na 11.678103927299228 10.759978878926564 9.511263608773534
Na 17.66130335725001 11.851684925831853 15.492095580258919
Na 10.945773175284998 13.691405353567506 13.841443915848682
Na 13.397287327615192 14.506892380237945 18.72507302060845
Na 9.090587253829968 11.53028747002321 11.756319080546264
Na 11.300465546297628 16.25718250378286 16.39640084688689
Na 14.043400121356889 12.878923119670695 15.273437448853308
Na 17.251647472319224 11.330669157691169 12.0826496464032
Na 12.15666310248309 10.21361355485024 13.090456860642249
Na 10.588703621692547 12.917391300211202 17.37032410357393
Na 15.285680038675896 11.241137441671734 18.095091692990366
Na 9.288068822820827 10.484263573026272 15.146745496897374
Na 12.422297882933139 11.15498710040363 19.978309301517704
Na 12.498232481832659 9.622823738238019 16.73066180325931
Na 9.456710378628847 9.816406793385404 18.609193197152557
