31
Energy = -32.52392947 eV
Na 14.61334939939334 10.518313913185821 8.349908163790538
Na 11.531532310241891 12.779460891832022 8.585143167906171
Na 10.829240008217273 9.088260564714956 9.183841340396699
Na 7.962427360126965 11.316873662391767 8.526304353009493
Na 15.052339358527307 13.87801969077792 9.76066704191821
Na 12.857828744210583 16.712831542475797 9.438442732742779
Na 13.712078571176743 7.575207231767197 10.883728709916502
Na 16.728534449694948 11.096041994376986 11.471841984888654
Na 8.665862231258092 14.655408084745872 10.153107752126965
Na 13.124114175280045 11.005110238725697 11.25374537905359
Na 9.64586046814269 11.49945996805825 11.452152791453296
Na 11.899039460146883 14.336230699239144 11.744996663071577
Na 7.798877582770913 8.577925883565277 11.14239383772232
Na 16.444336054225495 17.104885934975762 9.666109685315632
Na 10.454674750215984 5.856808416481906 10.757358114350355
Na 17.681341966672502 14.67465327630194 12.215531139456086
Na 14.566406685189378 16.77209673269664 12.644368227574704
Na 6.3601979046758546 12.108015910764243 11.708593149987808
Na 10.929787093258408 17.437304252696684 12.637559933377869
Na 14.786728832561806 13.247309133684054 13.405353050070042
Na 10.934790326615488 8.375544991369827 13.049414831695815
Na 8.889443947592833 14.134888379118374 13.803207673026039
Na 11.615560177542399 11.747142662760577 14.3131312439727
Na 14.507770266374282 9.61600644104601 14.24478472081032
Na 17.487614333489596 11.95500410740669 14.987395925971285
Na 12.377473965988157 15.224631618534218 15.203545461598514
Na 8.176079880964771 10.39456948031715 14.516294655660726
Na 16.19803154505834 15.291243626051859 15.657426430491558
Na 14.220910296789215 12.330677936137953 16.769705693868662
Na 11.091928329882919 9.148175018481965 16.483333302646106
Na 9.874470958503352 12.560529150105879 17.00924427691689
