36
Energy = -38.17495264 eV
Na 13.702969312776432 8.559285052911827 6.452101553246359
Na 12.950622390826606 11.925363013166079 6.847652774184997
Na 9.39009745263864 12.656635204041285 7.062610306082904
Na 10.444809367937204 9.200998643635273 7.885112872975943
Na 11.964663488999582 14.998593959954466 8.631241754542064
Na 16.33904766018015 10.568785680182017 8.204912519023303
Na 13.59753279552325 9.115252468073813 9.904890228193578
Na 11.097896868596079 11.913505365436434 9.967774042830264
Na 14.546656405806576 12.89401667093118 9.937712113746008
Na 7.788395400646978 10.90479026912007 10.258545248987861
Na 8.585522194210858 14.414298183727992 10.279922830423002
Na 15.260664221967437 16.137966261133233 11.032879761802473
Na 10.487672839767251 8.843880611281623 11.692877206153904
Na 17.830292626721683 13.330946972298483 11.038806387014759
Na 12.088006057782358 14.70097300416673 12.183536994643529
Na 10.404150512157882 17.465383349340396 11.146865870323449
Na 16.355037333476012 10.186772371520998 12.014384921507489
Na 12.933304304072669 11.173264020826096 12.81755421610576
Na 7.5789718118362455 9.396964037369358 13.608043383170104
Na 17.16051015449783 8.485603276161847 15.081620171883916
Na 13.901678184696124 8.01314285761946 13.633424289373119
Na 10.856123728358186 16.889264347653114 14.814367557063225
Na 15.311743124048675 13.43275225197215 13.433210090328485
Na 18.061607869265107 11.940487717694309 14.813679059600172
Na 7.870690441201435 16.005201118695854 13.316157923982184
Na 6.2746828209488 12.840838622826203 13.585254931302211
Na 17.809007491392492 15.621850084324942 13.98824398026471
Na 9.592080552980816 12.397223545394672 13.272497399065672
Na 14.572525741053239 10.770123188879268 16.049904084493047
Na 10.976613926436467 9.72271402261624 15.294570928997286
Na 14.404470043079199 16.618025721018682 14.581878001999616
Na 12.402598035805454 13.636215630716368 15.510827779030228
Na 7.868506428964333 11.097126185988737 16.608733061384864
Na 15.794648802872814 14.075873328622134 16.860207740804093
Na 8.841394277213306 14.335326673702493 16.277283914882453
Na 11.191824067722406 11.967575023457986 18.147732837048068
