36
Energy = -36.67056106 eV
Na 20.24073192971657 13.485054757001457 10.35519906683006
Na 18.572991688668168 11.74834106723253 12.805472945868061
Na 17.01939532657973 9.920926249943953 15.218448254433609
Na 15.544370056108688 7.97719705309014 17.64891082686466
Na 16.794685652334444 12.725232343890433 9.756385471953402
Na 15.263789248842063 10.660421864637929 12.228588029853857
Na 13.534428746136792 8.898140321924597 14.806699772921169
Na 13.43955384774625 12.552765390728245 9.911940780092847
Na 11.767651659650621 10.58776990168728 12.488202549436132
Na 10.077638031167194 12.377886661267066 10.17015322483014
Na 19.243792459498586 15.301355758551079 13.29533588867301
Na 15.977016912093454 11.483152502891295 18.349932377514467
Na 17.759259879745848 13.318361662907725 15.863092357821047
Na 18.035538134490345 16.05103536165791 10.039237424796918
Na 14.668646514502575 15.904085398528025 9.912891464617493
Na 12.792897184808483 9.926011553454947 18.127590639683362
Na 15.890131890370878 14.232271212678054 12.835622785798007
Na 14.27172729481769 12.325101727981583 15.3520989921468
Na 17.539809778389397 16.8140080898006 15.78020764737575
Na 12.31878918763024 14.096479188843617 12.943349210665827
Na 16.46635769166826 17.752468687283127 12.499579177205181
Na 10.833126271088133 11.429487152055964 15.827730196269071
Na 15.861614461960874 14.849943519261359 18.37623566672018
Na 11.305283928748429 15.703287560067084 9.948335270262776
Na 14.087675318356052 15.89196065567335 15.442719329696917
Na 12.64023212778667 13.292131364606563 18.397478773762955
Na 8.98756121945141 13.015972542214612 13.494071862180206
Na 12.966965298978916 17.665089136005932 12.42112172530533
Na 7.868099800398247 14.925991872076228 10.661520990439668
Na 10.588356207257025 14.919002196437164 16.06474757111032
Na 15.68473397011644 18.218645818873235 18.228954586633268
Na 14.815808224637856 19.339503689529263 14.970771915639519
Na 9.655761213191548 16.592197849678513 13.089065563276236
Na 12.498822029447835 16.65497908129645 18.524400621934706
Na 11.34973326089259 18.320908302462968 15.486248125196713
Na 12.922950682095566 20.176498385718048 17.915335078461535
