39
Energy = -40.31855597 eV
Na 11.284652717708006 21.088394427660436 15.307502967572976
Na 17.294486794226874 20.067637935089884 14.188797648367743
Na 15.589726367038411 19.282231305496257 11.274131569638538
Na 14.478408163889753 19.557148127011402 16.087871454381222
Na 12.740635321690705 18.70500181689115 13.080096625152139
Na 19.478263097494352 17.481428566794666 14.148498884401972
Na 11.654901472612607 18.82178158198163 18.034221911817628
Na 17.454677585446607 17.916755184021167 16.997348017110713
Na 17.5721868833434 16.53408529632632 10.884703589979006
Na 9.718864284773325 17.985854698820457 14.896323113419202
Na 15.798398704888573 16.838722770477986 13.952503467426729
Na 14.631305837342275 17.266395907798877 18.857077418994805
Na 13.951594775671786 16.212379219777926 10.865939985081942
Na 12.892483003229732 16.26970561666809 15.833249425080087
Na 21.81094643943169 14.794068035030952 14.448847752744408
Na 19.549919941797253 15.24705184196234 16.966276147971705
Na 7.683721255370845 15.219675448693932 13.729089777799857
Na 17.345338327658386 15.454409919431402 19.678307437612997
Na 20.709338693572676 15.460461871702314 11.431304540832514
Na 19.992358798097317 13.016384438397347 19.560660720774067
Na 10.986481801734847 15.750832501106967 12.664165800152757
Na 16.017031538028913 14.336015727075832 16.580436732784893
Na 11.463868776997844 15.568770845407672 19.15629616104088
Na 21.877054608762254 12.395722640647898 16.85112890724812
Na 9.581547708445509 14.79298979184532 16.46935328887111
Na 18.292343088601502 14.036713950876473 13.696759611478107
Na 14.23122312589317 13.673178841302331 19.60112191524891
Na 16.101520700937154 13.376441639329435 10.891777891143283
Na 14.010686035522093 13.647150272832112 13.725147840541936
Na 16.91940856728484 11.756029304823658 19.75825235012494
Na 12.370001347815185 13.203909351049486 10.66038231595916
Na 18.482069690119616 11.732673920308565 16.476944195725483
Na 12.442958891835273 12.843081112084272 16.749556662606075
Na 10.473193559173978 12.543749590961918 13.847296998936658
Na 15.099758968568421 10.697074415930343 17.135645491346004
Na 16.53107775005086 11.055665313531923 13.79045483187957
Na 14.47745852719138 10.395509562039043 11.179376139598421
Na 13.10632189316081 10.141678909641513 14.472614808921827
Na 11.132031411712388 10.004542104570598 11.562547075108688
