37
Energy = -38.38419263 eV
Na 13.610977225717665 18.694148077431244 12.75587716794101
Na 10.38669473081625 18.729998317590862 11.152370476694276
Na 16.40865226092658 17.300896310629128 14.414571675032736
Na 13.17494130569448 17.03620831841268 9.57221168151225
Na 18.887656132508425 15.490258987004703 15.883750224719638
Na 13.185861672291095 16.814034407702977 15.926286528049173
Na 15.853575483333062 16.008545829631775 11.355211925885218
Na 18.464060550891002 14.25728389970499 12.80087869368614
Na 15.905869411991112 15.605328266334569 17.576901843177954
Na 9.956895664141419 15.614128012698421 9.407455079640359
Na 15.526351378482158 14.924604413003932 8.1544431511321
Na 17.623952192710036 12.907996631061742 9.78799336496226
Na 12.344733702213473 15.417225793378924 12.644333948732756
Na 10.33226345359665 18.05656615861086 14.512563828408414
Na 18.225058596189363 12.066619735357005 15.694586405094661
Na 15.2963761474837 13.892521239425388 14.369185360755715
Na 18.840839198965448 13.790978379717165 18.833610590755033
Na 12.47139110247482 13.66624761590284 8.051645219820216
Na 14.27365575302223 12.836626164189246 11.036360352514228
Na 8.756933211589939 15.43083053162645 12.67028579477797
Na 17.053737426019804 10.886246071573025 12.74569910187986
Na 9.367116208266054 12.18319160990408 7.977378299870256
Na 10.227353428220631 14.851950810620188 15.853727706352839
Na 15.852173260980878 9.845169853937254 9.660214488030455
Na 13.10721614334527 13.513508034341351 17.079290032845968
Na 10.607450414355236 12.745124639973318 11.1568508567948
Na 15.927013669083069 12.085036291344277 18.51371104036974
Na 12.238149472472404 11.949897079688732 14.120842239756993
Na 12.385801195760765 10.288396395211796 9.393602061415192
Na 15.053510397098748 10.501473585595535 15.518303289147296
Na 14.068922211911834 9.007050659655366 12.540073177015376
Na 8.695973207549983 12.163576264546078 13.965725658061583
Na 10.16980165524705 11.656776494372869 17.116869336485006
Na 10.550150898732605 9.452958157278928 12.333690717848633
Na 13.064001936458345 10.192995362205027 18.43847292624608
Na 12.248869780788432 8.50248321132196 15.388463709034783
Na 8.862883107846857 8.947415686295633 15.397737519058753
