31
Energy = -32.58725492 eV
Na 12.023517175498377 10.855711890254437 6.305294712679027
Na 13.842707705683509 14.032001981482662 6.576299578412564
Na 9.31079842944745 10.692438535099027 8.845889693246798
Na 15.390811108837413 10.851033594758066 7.836825490471908
Na 12.790307458464916 8.703715471705408 9.374281748405501
Na 15.120983385666154 10.671941970880782 11.46127179771471
Na 12.526849585788582 12.329872573545362 9.20058356320436
Na 10.099347841118059 13.917418664800735 7.179123596505517
Na 12.25687628507295 15.887620392391087 9.49074571978512
Na 7.791259801181391 10.898668760832301 12.096468410104942
Na 13.088256674268507 8.121609480114758 13.038092309593987
Na 15.651711981262784 14.00842717729645 9.999640126600772
Na 11.16672416191087 10.831893689087549 11.904629840510225
Na 9.75412708978551 7.870514716830456 11.18903685955567
Na 12.944432316687351 13.758981574126844 12.193901751456636
Na 13.488113562831604 15.404443460173631 18.592201887125857
Na 13.244195041800127 17.978159088504096 16.005323870577275
Na 10.256561185874903 15.854483989349221 16.877296873189017
Na 16.382261363811942 15.89781333051048 16.289354820660048
Na 11.382839394719719 12.370275459030092 17.60433037318433
Na 15.401431282821004 12.474216676593892 17.305856936922172
Na 13.195809434668483 14.644168691736596 15.409492108273387
Na 11.029010114577682 16.517322744061104 13.191819226146944
Na 14.94042758015904 16.545872445127465 12.916937370491127
Na 9.810455591133065 13.25715479814237 14.378312537244753
Na 13.409008629649499 9.351126930384677 17.31959820691039
Na 16.39589744320063 13.316689057348674 13.743366864749795
Na 13.300552881392175 11.353347826449182 14.61950037949502
Na 10.23361023485591 9.751127581899631 15.22308740788692
Na 9.423545196584286 13.962870146341873 10.749409793553301
Na 16.30410659893074 9.845613838825004 15.038562683026738
