38
Energy = -40.45564296 eV
Na 9.468751577635574 12.046321310260524 7.150257848674189
Na 13.419985114215352 10.821714563813385 7.110495572541421
Na 16.351579235485854 13.398994555783787 7.1016668508655725
Na 12.751044142096921 14.575213787499868 7.797351860582652
Na 6.894585588864099 9.546642883220835 8.135559296547179
Na 10.444760441302074 8.74942728902495 8.744544151961078
Na 16.993153970473653 10.089452957461775 8.549871805118308
Na 9.580482390909067 14.923290157475332 9.785079999832242
Na 11.576938149198597 11.868737611617442 9.759601441983316
Na 12.301933912269003 17.742730366202203 10.015138077877795
Na 15.754486782809142 16.012373742259225 9.875564552652675
Na 15.028318413574578 12.465291299579885 9.923458919821236
Na 7.9161481386847194 11.596458779607891 10.562431081297081
Na 13.910833485646869 8.84623953635641 10.313309458602046
Na 18.353380370673715 13.210608901917967 10.285441739987586
Na 7.890072175441856 7.973447003179806 11.45750010086778
Na 12.879121692474143 14.78490087025371 11.358727567961866
Na 11.482478540858986 6.351388249153522 11.698198363179621
Na 10.757072804941334 9.5771593280542 12.15188046794257
Na 13.985142970275033 17.35407758406393 13.465047539615995
Na 16.851489247655934 10.540710597785823 12.380075976595462
Na 13.603117946509292 11.57623014305061 12.733064430273673
Na 10.228909498881528 13.019828445133884 12.766894173290549
Na 13.759405645672661 8.290642095005767 14.02567362442518
Na 7.168936802297612 14.278995486693887 13.010659240217201
Na 16.135605025940617 14.140934202206454 13.150174071311458
Na 8.000384095669574 10.721652479167899 14.234140755724772
Na 10.283770483523913 16.62276111361868 13.354597742853608
Na 10.189517395432317 7.703217623405691 15.038491157620719
Na 11.731087552305237 16.8897186450902 16.69786576924364
Na 11.547161154452809 11.011269191653309 15.294345051148756
Na 12.755876058744363 14.283480917865921 14.77019395989418
Na 15.212654751894771 11.561146871364658 15.849429778238443
Na 9.374504699849345 14.021339963051354 16.05039229479891
Na 12.982281603352193 9.188183256367727 17.724910596656176
Na 15.182558669900304 15.403509205905141 16.603219598863564
Na 9.558561121887998 10.538317774008373 17.789188376107347
Na 12.47101764417339 13.050700507812588 18.062666000798387
