38
Energy = -39.37651881 eV
Na 7.846064886819411 17.539233577939914 10.965741142575416
Na 10.516388371157385 17.830144965072456 8.814812133713728
Na 9.80545189498659 14.732933977594952 10.838554845360822
Na 8.559435071964202 15.959326839570123 13.934881202067297
Na 9.304316834927931 12.119042888558555 13.199953609353178
Na 11.098699899859092 17.889550481239127 12.303441481901759
Na 12.24492893650091 12.42800040636249 11.12052285147375
Na 13.101231071356551 15.638451682755687 10.178139828908227
Na 13.84943536036107 18.998365391729884 10.05912947962059
Na 9.435593517786764 10.690476934676834 16.363685491297684
Na 10.134476221609 14.133053940706725 16.312342520708416
Na 12.767225164211464 15.169366030601394 13.81949976293538
Na 11.18488473935611 17.604048960703935 15.759348139111296
Na 15.064126425733678 13.320406545646616 8.904937674552786
Na 11.776402332830552 9.16391854391533 12.322255699508458
Na 14.22832992593346 18.677102756019714 13.466745267567097
Na 14.685557048793296 10.072926640995968 10.333151788563393
Na 15.412975579938625 13.383826153911508 12.4730807445266
Na 16.335284595891814 16.63081659101016 11.27132684445456
Na 12.279402952387521 8.729656726807413 15.805544320090538
Na 17.577686805281164 11.002730856877474 8.362182661251053
Na 12.971965304655521 15.382336582165932 17.691906576888876
Na 12.40197799920986 11.926342200319255 14.660672390897677
Na 12.107204341956932 11.875607023406571 18.28707123052628
Na 14.357585064423846 18.683398304721607 16.88330908639722
Na 15.07742809114706 9.944608898424974 13.748697249395887
Na 18.29689944444325 14.078336358147707 10.007134373180083
Na 15.304195469255149 13.322703774025873 16.04490105392939
Na 16.297657474616233 16.345452004159807 14.792518366895164
Na 17.90665164063852 11.014673093037699 11.79058899882655
Na 15.073264341619236 10.083675563387336 17.221127431820886
Na 18.809393458427447 14.373845986226597 13.3010972936734
Na 16.22997402594899 16.31748799463773 18.326613469995262
Na 14.987062751812639 13.183791892185164 19.585919363070875
Na 17.99095011588866 11.222501713112173 15.137663139915263
Na 18.727673199980373 14.429382708410555 16.691638226365423
Na 17.859121554430796 11.470235185805281 18.50822590064353
Na 18.35620315657766 14.432640718231982 20.227940684441002
