36
Energy = -38.54162315 eV
Na 12.626977620296605 12.377800839352934 5.934468108247614
Na 15.846305220254134 13.984335726580031 7.099571684597297
Na 15.11839768084047 10.356821824139713 8.083635326414552
Na 12.648216599937896 15.924269364098562 7.270253412440135
Na 11.402047329476375 10.049127933057811 8.635426072435504
Na 9.80333101491583 13.314732284548233 8.244088985779076
Na 13.266575650546258 13.246993716865848 9.142263784985083
Na 13.452009531849852 7.3265316187785015 10.399069724777831
Na 8.193503670797979 10.539529989720515 10.38899992278716
Na 16.604044928457885 12.86997230466595 10.528598851739174
Na 15.06391294204963 16.249199156067906 10.197002818060238
Na 13.893557986340545 10.644131181400937 11.341848536858238
Na 10.783640593379296 12.481564375536411 11.419465224518445
Na 9.659048155041102 7.031091594097169 10.18406283518538
Na 11.314810313111442 16.063230566750708 10.766355127223703
Na 8.072467582418762 14.522136501877995 12.030873654648856
Na 11.380002632736476 5.8640974588597645 13.323818948562275
Na 13.86540849394669 13.982653996858092 12.561973175932984
Na 8.720740485670717 11.448398765742295 14.304886614176025
Na 16.726568043563226 8.929529861916434 11.305595754646717
Na 10.912719115320337 14.52915806260744 14.226872615865444
Na 13.247630712437047 17.195383969554793 13.780501091107833
Na 16.525898369432504 15.501773013585018 13.898827660336547
Na 8.133507631694869 7.763798106900229 13.472383505135332
Na 9.47832953812402 17.528569163085727 13.78870736784483
Na 12.410594341269665 11.401330557546874 14.485827166445198
Na 10.964595393303751 9.13306995861973 12.330735289564801
Na 15.988487115472209 11.54222950743581 14.165262069971941
Na 8.027578919158938 14.958263768724159 15.872446996652867
Na 15.134897438426318 17.044206633526038 16.96617271306076
Na 10.671746151578914 12.66203118831642 17.29357695131732
Na 14.059991552607555 13.948032138606306 16.28849888073141
Na 11.415728878227508 16.4526460490828 16.97439319978248
Na 14.078323194786462 8.155446500517966 14.042493273097241
Na 10.786961744181166 8.588077455357459 15.914738247620852
Na 13.742217818880277 10.410609256151533 17.35707879798245
