39
Energy = -40.72936176 eV
Na 8.076619459162789 9.149392729324665 12.020054593034232
Na 8.081926323083389 12.330205225804143 13.784184491814775
Na 8.736868349662016 12.05567296046189 10.34435321826595
Na 11.436711427721606 9.911565120325106 10.783731899050995
Na 10.490923287881559 15.347721334226076 18.47158794943784
Na 10.35514200219088 9.569037360034779 14.548781810901188
Na 8.51502143463663 15.451703016873463 15.139662135402302
Na 10.199055064185384 12.463845097975021 16.6429004563582
Na 9.495488996274482 15.041738201453153 11.813262997444982
Na 11.61399491689976 12.528412851095334 13.271768979452233
Na 11.816240684375513 17.11827987111913 10.099996500779437
Na 11.706804756606182 13.49170564822893 9.687779109143742
Na 12.194708262700154 15.347410391129708 15.45168449427409
Na 14.413999396128672 8.57274601373187 10.124969866111446
Na 9.71550142148986 18.25270745746087 16.757618553083926
Na 13.751859909881407 9.407481878482587 13.437285725510673
Na 13.269557931039648 13.31905512231822 18.211358342633375
Na 12.9911555504536 10.261967475648177 16.63842280020175
Na 10.722643527537803 17.785959581669434 13.358438558792768
Na 14.970187962905866 12.642168099491485 14.896381621705766
Na 14.124648475099969 16.715907976709136 18.26555960444269
Na 15.93663369427392 11.213783101154238 18.446287188108528
Na 13.626431577354682 15.183497380880878 12.42396848435687
Na 16.87804202414832 7.686106848778874 12.461610031711574
Na 17.502674200825336 11.053941643936684 13.040251647681501
Na 13.018279092126406 18.913400440590678 15.92846429559429
Na 14.034757554242297 18.820855830367453 12.652981126083043
Na 16.352054490085017 9.113433810345308 15.696433162532582
Na 15.020215737207751 18.46568045475802 9.431756097444532
Na 14.665639010397289 14.91903650039387 9.053933829764919
Na 14.559014319021058 11.982735702681078 11.128112088714383
Na 16.71157147165921 14.48375956154785 17.421027226063085
Na 18.698979977978293 11.687159919179798 16.302740828632256
Na 15.572177183092602 16.632356991370546 15.001353500759333
Na 17.70875442314094 9.9037561080582 9.756958292571754
Na 17.96510242178453 14.305142659103788 14.039154572744945
Na 16.83940871670538 16.670991286835143 11.852918142855236
Na 17.65747662041 16.406895684403146 8.491194740542763
Na 17.64246421676461 13.43110106179039 10.373252393494736
