37
Energy = -38.62671798 eV
Na 12.815547746994074 13.24231799161975 19.409688265945753
Na 11.5050506864534 12.026667237247938 16.624257938953843
Na 9.914305283835857 10.559113716957254 13.901733887850222
Na 11.794865554081145 8.394953971550853 11.819095094951633
Na 13.389324022890571 10.000488145471953 14.522281240085865
Na 15.145582069647928 11.308343704571989 17.348557376432954
Na 15.071157117508248 7.780526070829444 12.386812748824898
Na 16.25550417789715 13.473038422730102 19.92600906689234
Na 11.433226348903329 15.826140081195458 17.30703063756375
Na 9.759999840180317 14.187308612023198 14.576421089360789
Na 13.857092750142476 16.47982364102679 19.92078611182437
Na 8.005255617911242 12.660244499464687 11.908147519321016
Na 16.788124593679076 9.235496571526363 15.030212548530356
Na 14.546294875598472 14.590241683192728 16.464879045222954
Na 12.705904162960946 13.108504258623263 13.184224015389303
Na 10.922122745426044 11.514967072769355 10.448170813957207
Na 9.554029591850373 17.664609339496163 15.101276669361296
Na 7.682803952676343 16.000662200979413 12.439182641178661
Na 10.30520536697972 18.367816204456012 11.852941802843713
Na 16.92946679218529 16.478133329426893 18.33519259653651
Na 15.96876495029257 12.390107012217634 13.798342110592177
Na 14.247691322302442 10.86603569189873 10.921051545776267
Na 10.670675483985733 14.985144811294676 11.011105151771318
Na 12.513667961253342 16.49997875311023 13.922575267184097
Na 17.909195915308324 13.66925898919348 16.462822202518378
Na 17.596794388971002 10.024018991994568 11.48519046985699
Na 14.305063367407705 18.05858028347148 16.553926352937076
Na 15.369052282481846 15.441891130540212 12.463251502958785
Na 13.51635892384247 13.954330710796834 9.4469376562692
Na 19.390980646491748 11.411807784050783 14.229487894159641
Na 17.422437918185494 16.936299299174998 15.074953672938186
Na 16.92637240234334 13.09064625841539 10.133682079165856
Na 13.315546649252662 17.55914606628299 10.457680605604944
Na 18.76154763275013 14.544493517990556 12.955822004342684
Na 15.071094431500654 18.919266686892808 13.307761570516933
Na 16.23142868275605 16.279974661682584 9.064604883457005
Na 17.999956000275844 17.818318209150352 11.750133606921354
