38
Energy = -40.28275812 eV
Na 19.07078251035894 19.27237148241265 15.733408849912577
Na 15.513877919494828 19.814424727037082 16.699146402628255
Na 12.143958299546885 20.740565498821024 17.713141332806188
Na 20.383065296207665 16.695074045944466 18.110009885572083
Na 12.822737159397608 19.978189523609373 14.297300811915264
Na 16.216423432382246 19.05129462092363 13.371343321917116
Na 16.95228615566516 17.354676939386326 18.781954950066826
Na 19.353664626616833 17.700837221838153 12.293289103764211
Na 9.491198050444757 20.603389930089936 15.367474050100007
Na 18.365963612370997 14.217178302678821 19.83273310362027
Na 13.474705402231193 17.675270493652754 18.978333921700276
Na 21.400030934336026 16.35983991519418 14.809975579965752
Na 17.771058535067592 16.155036387670634 15.51857303935637
Na 16.50216900471662 15.634098476267011 12.456781261196216
Na 13.428759960689431 17.3218913050892 11.868404974523832
Na 13.975061584712458 16.607670608066456 15.363697733888605
Na 10.66194106363973 17.611418962215524 16.799398920030406
Na 19.779013074533196 13.479076020103566 16.57701922728184
Na 10.201677196888554 17.722368595324276 13.208711447438882
Na 14.819408116795367 14.78259574501254 20.790620432028707
Na 15.574731040151356 14.159801481013963 17.43946137895883
Na 17.508596827358975 11.195833604479157 18.26346734252123
Na 14.663803246552321 14.789384222863738 9.562156013207817
Na 12.073214005366228 14.534643168632575 18.21286100195641
Na 19.573248769752986 13.916847540239441 12.86124099130113
Na 16.55827904152486 11.709493319298934 21.647466686852137
Na 13.8946155425559 13.642586834510547 12.97185188476613
Na 16.819390125084105 12.329304990370705 14.688136033863511
Na 10.905566434356105 14.634424809115886 14.737787804578614
Na 18.449838781824106 15.198445460329813 9.675080451319598
Na 11.168512424302486 14.647917699949426 11.050173224599217
Na 13.972525079162601 11.498229720184098 19.298654436756202
Na 15.256144423871326 9.349033645192753 16.36519188374979
Na 16.77150105550193 12.22215697851938 10.998081943978129
Na 14.5078906040854 10.04436981412648 12.944252984371236
Na 13.073272132052956 11.969602663033386 15.896956287202809
Na 13.224506463149964 11.561920073296092 9.957924384713985
Na 11.116851553463851 11.433784568800963 12.883236168357023
