34
Energy = -36.01921261 eV
Na 16.566300854156374 13.2766312754151 8.715855715775607
Na 12.637570297637346 13.55167851510983 8.678346869412694
Na 10.301539882991982 10.443334723507819 8.666828378193767
Na 14.377023505885099 10.155717142070035 9.250652541213926
Na 14.885096725864907 16.45437121232629 10.412333690706637
Na 9.0506965003976 13.557457539800257 10.15765396576622
Na 17.527564368781213 10.844460826820542 11.443469535926907
Na 14.796407059875513 13.059000989649894 11.495980970197712
Na 11.695064800544504 11.58050647313553 11.420153769683639
Na 11.888988378314387 8.07708059626079 11.078231154979646
Na 15.51868462180087 7.312819802107304 11.033901886750305
Na 11.7988415565569 15.301620071342374 11.69894678352554
Na 8.400423844993528 10.411214605486512 11.903026071350071
Na 12.712653710487794 18.45146425319487 13.009299316960762
Na 8.867915663452315 16.702783133339302 13.153785253181928
Na 14.504806244863767 9.8474434961197 13.092240243173615
Na 16.65600569465458 18.34079104141231 13.096057587749154
Na 17.785215902145037 14.928465351167915 11.877339237653489
Na 12.95187493894524 12.780635928829794 14.467026655022321
Na 13.450527123034396 6.865205312028021 14.13127588599882
Na 10.970759306349391 9.682283991604875 14.45773946625437
Na 19.62974032256983 12.871468855713601 14.041556804519352
Na 14.717222380364129 15.681359772910877 13.851894991865603
Na 9.718571808115183 13.297607518415413 13.781025922007569
Na 7.9257570967037205 14.889584148983536 16.29858598635244
Na 16.416121732638263 12.381086865865607 14.809755825395893
Na 11.489009012006349 16.109967630792763 15.643712386031009
Na 6.5701134088274555 13.753903256717324 13.028037173894582
Na 10.777905001846987 12.694018491732114 17.133835930186983
Na 13.865031633966957 10.388347179265713 16.649630832851972
Na 14.457678895491423 14.311303959423608 17.164432347509255
Na 7.6475291157412695 11.263124818007903 15.549337009686019
Na 17.75228838039847 15.726255882194415 15.59616864776652
Na 14.717300046691452 18.035235156341543 16.240110979549176
