39
Energy = -41.84912807 eV
Na 13.535188839831413 15.716147018517685 7.277799822588576
Na 12.563343122685659 12.01251376599172 7.79363013024689
Na 10.198916336132076 14.773096984913426 9.122490047707235
Na 16.12613660062108 13.035171920800945 8.280701712089261
Na 8.72055784122264 11.047578789769581 9.103616366312082
Na 15.394030820887034 9.271073085864602 8.043253450463538
Na 12.21126212687533 17.69272091924413 10.448031814037611
Na 16.026378067781085 16.722182765961925 10.023144575268686
Na 13.583179672137243 14.390552384313594 10.340132904662763
Na 11.962391816302203 8.789241742160932 9.773972020924704
Na 8.652912677803528 17.272318306523555 11.828510108631315
Na 11.202543651674782 11.949754861557148 11.134306376154493
Na 14.531396853248296 11.030583838605432 10.765112150540546
Na 17.881100964606738 10.386128646656365 10.772048442919774
Na 8.050974177785326 13.481378941765277 11.944522810692794
Na 11.077212961288593 15.116269375346027 12.662204263001033
Na 16.73219957481457 13.633533684357738 11.894731342417069
Na 9.178004275540054 9.42185305226313 12.519300492585321
Na 15.188114355366615 7.741077219690087 11.52041578976689
Na 14.268013694289122 16.517842658261824 13.234414395443627
Na 12.582499901373453 9.393659837327482 13.398944482305067
Na 18.734115292100697 12.246814033029175 14.442950150153086
Na 14.317298006463586 8.037323813696029 16.133537297357535
Na 16.00099513659008 10.308717463237302 14.023354784418117
Na 6.054252192932574 10.63586884584657 11.704599388379256
Na 11.305141580119038 18.05828737636489 14.412414670837592
Na 10.457597735302294 12.198105832471876 14.478633761515336
Na 17.546018261543125 16.360576208702184 13.9385579189169
Na 13.690377174097732 12.928007020409716 13.562598144762786
Na 8.604359064756355 15.201140394502849 15.156541603646518
Na 14.786782311691626 17.200631793525933 16.70049537764393
Na 12.18332570445328 14.934770575194976 16.152848588311855
Na 7.241361339757081 11.45592374978009 15.151363065503803
Na 15.950976695842957 13.899910262839416 15.893611162453423
Na 13.204806026999103 11.354594775119228 16.688268387337917
Na 10.316029293720836 9.179490853152819 16.17255070520408
Na 16.601737062120137 10.802865785383393 17.544456397516093
Na 9.88547285197623 12.62072885223108 17.81624408100554
Na 14.231141904553903 13.959708531907536 18.923836983564453
