35
Energy = -37.08461627 eV
Na 13.911471945005852 11.870655180576529 6.369475906549552
Na 10.462201431167534 12.618078828916191 7.423944927739176
Na 12.101144895314837 9.606745534546459 8.580922853183369
Na 8.68359680261169 9.853809415771723 8.993626988618429
Na 13.068686352324542 15.162653558296752 6.944151744245908
Na 15.766316338437253 10.056341392778231 8.74659915695883
Na 16.50821079815068 13.889266068284611 8.498042100696733
Na 10.532997414334742 15.60895925906881 9.375050208359976
Na 12.663013643993171 6.512455081638481 10.194351513146703
Na 13.626986082846717 12.992060785404345 9.79239634986284
Na 7.763888113414905 13.202344984262977 9.795286425646832
Na 14.284006480005337 16.90805056572076 9.71076590823227
Na 16.881832726873192 11.604545764061639 11.733894239973273
Na 10.072416079280055 8.395952410911896 11.800264569028599
Na 10.727364843617636 12.065058689479853 11.26220822988378
Na 8.831573117645126 15.059445283447914 12.653636935164077
Na 13.965236933101831 9.376347094648027 11.640710416281712
Na 12.390620096478392 15.561600158712954 12.245577129759313
Na 16.097362762913196 15.236243353540049 12.275187158762355
Na 14.27290063152488 18.27000766961665 13.18235317250409
Na 14.052615425251211 12.569126515309948 13.330757877293081
Na 8.336386422661281 11.385049910491535 13.749658735077832
Na 12.705307954567083 6.83536950541603 13.907998765627918
Na 10.88672982863308 17.13807988758536 15.039020681689257
Na 11.775920149945435 10.203175238158302 14.347010434342401
Na 11.13422272015225 13.595000376914463 14.813118256409366
Na 15.333981788457846 9.618954733354716 14.936644772317159
Na 9.344339373294014 8.094680639073996 15.40876115254463
Na 14.244012733788036 15.541802329849123 15.57999285415351
Na 16.83628382901566 12.923438797976113 15.301682427698486
Na 8.243999139701748 14.544586924780715 16.1925563344701
Na 13.721122280345858 12.122267171074721 17.068440721821386
Na 9.961480480152552 11.35915725648943 17.234123116631597
Na 12.600137068360683 8.553340182108577 17.207417975039675
Na 11.494672494531251 14.948388629631518 17.947409138186256
