37
Energy = -39.12367816 eV
Na 16.606179515898866 14.824539975855068 9.220940214128039
Na 13.08096032151355 14.300375894266097 8.167537155495168
Na 14.52740452445305 17.77034818702874 8.41240567345421
Na 9.516393207104494 8.718086616378876 10.399450594211862
Na 14.501432713730017 12.388301709445406 11.19851331105465
Na 14.315245407151911 10.75615233405309 14.188261476781907
Na 16.80066105896989 17.942255529574005 11.17361156780786
Na 7.165792015027415 9.152010850030406 13.195048301421759
Na 9.3667542210598 13.949442316747604 8.427044972314537
Na 16.93184906975776 14.503038293303234 13.155530979980016
Na 12.175820235065252 8.55145863688838 15.861013018733786
Na 13.996337163268148 15.923719781119733 11.279218064326331
Na 17.81323396726681 11.020323577854835 14.529249781265904
Na 10.994439987058986 17.054115745263125 9.6638840538577
Na 11.042384619763828 13.78998310497669 11.347063822899528
Na 16.363993276475963 9.324955940260823 11.49440494372426
Na 11.9035396183435 10.992240818534825 9.225217563869572
Na 7.924266454030754 11.83626624727538 10.873566902494872
Na 13.423735066123971 19.250236363243957 11.619025396922826
Na 10.06797425196467 7.133064939590189 13.474855006803262
Na 12.976323498674825 8.427329155708554 11.721153289863024
Na 15.572452992798153 11.347391412101567 8.289162784071605
Na 10.72751711627283 10.81110031563466 13.214415396010716
Na 13.186768404619604 13.967193457864854 14.057652301501614
Na 6.743087470219252 12.601208073918352 14.047459213172095
Na 11.160031633526922 16.889677970682996 13.384128494595473
Na 9.700605880411176 13.955316207709643 14.9995411532372
Na 18.277399459121085 12.125545059735003 10.937991440861738
Na 14.861163947128427 17.166582470415594 14.497339062898796
Na 7.796475144109741 6.955789360955764 16.018783299506104
Na 12.215236751487597 11.958506027134137 16.882733179546033
Na 15.638719819151882 7.644809078691168 14.52192138494275
Na 8.034265063675026 15.375402040140136 11.86974623439037
Na 15.752103543147207 13.500706172260939 16.357237613817876
Na 15.475945658707724 9.994403769560591 17.28451440199332
Na 12.482822775242282 15.609709360890758 16.829621390237914
Na 8.87100245341654 10.478731510645517 16.17107486354548
