39
Energy = -42.15144902 eV
Na 15.144075021291464 10.555452577012476 7.933283755991764
Na 11.549718841953558 10.41817583832769 6.512189965666278
Na 12.88207013790484 13.965983202431902 7.354891202141712
Na 9.299900867233054 13.17098918225887 8.28672539108037
Na 12.876915031916328 7.906863691496123 9.145557890107412
Na 14.207485539107584 16.968804166064167 9.863886042236118
Na 15.097114072922952 13.434946179359162 10.214886206643655
Na 12.136309967485607 11.335064946533734 9.629112313814328
Na 9.079032360499284 9.53701884782309 9.37335049947876
Na 10.588871703572142 16.883268037683045 8.470741473741551
Na 8.211549250695825 15.408077546084078 11.139615144541063
Na 9.501466770912561 12.14776352295188 11.77024811858838
Na 11.227548412332746 8.949038425222442 12.27193672618444
Na 17.859434796302608 11.183551557218625 10.647808200821444
Na 11.648667834108041 14.652775536149084 10.632659929897708
Na 15.08935440778601 18.544655094899394 13.325326921454868
Na 6.392494201039101 12.010642635785418 10.68218168371911
Na 16.66640276085935 7.65696095233821 10.078841567759175
Na 14.691356308358948 9.975466584602227 11.443077556871655
Na 17.19334509932115 15.72602214802881 12.012099246919082
Na 12.81196339111079 12.280233997092058 12.952707858384809
Na 7.7489223933505915 9.497315389188257 13.305826028288282
Na 13.904366920193704 15.431072999021914 13.079872906062855
Na 14.061863387638915 6.783620928021474 12.653604068255568
Na 10.358813672117298 14.91571080396768 14.05449739286953
Na 7.232434237567829 12.998876079947228 14.335918930290138
Na 16.300493507849133 12.602354123697515 13.599689211475727
Na 11.425899214401616 17.83926919987684 12.132324945402576
Na 17.010272291153907 8.999477701843112 13.71271531583265
Na 10.342485330300828 11.321939571892706 14.977286370071566
Na 13.614152280872469 9.489726210380535 15.008538626138842
Na 10.412219751181393 7.921463074538444 15.608441382003612
Na 12.574043033915068 17.183932033659175 15.766185672607838
Na 16.05565967893792 15.61503418189087 15.689499287046075
Na 13.007300696681249 13.629064177616433 16.244725538514384
Na 7.973550617675271 10.347080672439253 17.110058074818475
Na 9.564384737683874 13.743594509700163 17.352419300124875
Na 15.721054217037405 11.552170712400596 16.85370504826907
Na 11.741619724279472 10.621155430109129 17.978176675437556
