35
Energy = -36.83387313 eV
Na 13.335279132021562 9.815137519084569 16.600286665053652
Na 17.064026371197535 10.578686830462512 15.784827815758486
Na 10.945244074951367 12.892661043177766 18.168166761603484
Na 14.558827785706974 13.067402701841514 17.059686316762164
Na 18.15982323001393 13.861446671021987 16.54729561471436
Na 14.902409557043082 8.022507405730094 13.985129169968717
Na 9.046532633854294 15.473893285522589 15.862368700860742
Na 12.462840166086522 15.951561323818684 16.13018946181404
Na 17.520828990641842 9.750709979376207 12.20199444768197
Na 15.901744669456052 16.28578203545666 17.73512944379732
Na 9.80569405899012 9.70189318029363 16.485853768648823
Na 14.678248908887387 11.701082299314375 13.544108003903899
Na 18.118949633848686 13.17376662057057 13.173176005933076
Na 7.578167738225715 12.356012823437904 16.28836731567726
Na 11.317639575016324 12.605391343314109 14.910209887749206
Na 15.456436988564096 15.419615050393457 14.342747215770002
Na 18.353072818281095 17.040472078491586 14.710514985126329
Na 8.670684983680422 10.967669903319491 13.074031555331723
Na 11.616202244270514 9.004260119667524 13.44094528617878
Na 14.812231933800144 18.807779863272124 15.610472933544312
Na 7.0178963852668925 14.040926850860389 13.182288184329016
Na 11.73825513466066 12.088559260792252 11.611635430202837
Na 10.321817347913811 15.199631759234668 12.663550963933394
Na 14.08109654199487 9.389898930620001 10.734095563459277
Na 14.004812812254384 14.67609912792983 11.446595047227943
Na 16.300221211247372 12.299493686557893 10.097906432335888
Na 12.698595728137395 17.78161596495449 12.968070748538016
Na 17.277942090887212 15.921216699391524 11.07140503828707
Na 16.21842770258592 18.991092812601664 12.533465969027837
Na 10.417452362776753 9.553787135468554 9.88747990816821
Na 8.839435128460536 13.005162419748942 10.01988662398591
Na 12.891196165652152 12.140077250212636 8.467399737150659
Na 15.245371079303702 14.95382506463389 8.063372919899551
Na 11.505395381764053 15.51625390637087 9.359987073620033
Na 14.355405793872125 17.914921897630038 9.788792486547807
