36
Energy = -38.2700062 eV
Na 14.162472871905045 16.18947481103352 9.810574124898354
Na 14.33648547186847 15.879163691384555 13.31494680863361
Na 13.576314385593054 10.04023826507361 11.894196170867042
Na 8.806926187467788 15.461194562996974 9.8485371225666
Na 8.262273878629324 12.616781116863192 12.162866790167557
Na 13.943111350218452 8.837776538647223 15.453321720354822
Na 17.180308120369304 13.840691938669076 14.677644708246861
Na 12.538024003604335 7.312277509598954 9.794677120121419
Na 11.983572511551943 13.449172718136003 11.08715122759765
Na 10.20363147732549 9.784046847985213 10.904369108078473
Na 11.557549343807827 14.337408601113607 7.662574662234213
Na 10.301292355074635 8.692518344031072 16.459521849163803
Na 6.900633207805112 9.696215243770153 10.172931302779785
Na 14.141976963830134 12.395401923128007 14.362148504705685
Na 11.332583062973196 17.072518197224458 11.73754975949482
Na 16.812626071550422 10.17805705964545 13.666544962838541
Na 11.046466045601544 10.830360828414415 13.993915479671376
Na 12.317411809767322 11.645147321355068 17.268004736559497
Na 9.55213892059592 8.538848063240373 7.829027636124963
Na 11.111603753212435 14.257708189396357 14.68770136293679
Na 11.64382334217348 17.57000353215538 15.19722467463349
Na 8.97299685946439 12.130810448166743 8.529539025421778
Na 14.158367018831719 14.817546260148246 16.785750128338975
Na 15.206682091219095 7.0527512588534 12.382007203932043
Na 14.063675865591849 16.421769595631012 6.3195625388236305
Na 8.484003330390953 11.955526077567281 15.837001882190389
Na 8.824423838943598 6.535048682458084 10.853811745507633
Na 11.49470558961437 7.191491838002774 13.26986230681209
Na 15.006092737575642 13.28790299271271 7.97831170500451
Na 15.795844409018638 13.123397585140403 11.360170943152234
Na 8.408712122518892 16.01867204685772 13.44277903692197
Na 8.046057178785574 8.892895576122626 13.565883194846858
Na 15.942359342907801 9.800798892878568 9.667237562553082
Na 15.998867426089095 11.383750336807713 17.138151744798
Na 12.464097755372213 10.864011015719292 8.468417255395792
Na 11.26646506048589 17.743197850805384 8.26065965536062
