39
Energy = -40.39507179 eV
Na 14.203648410637665 9.143940719514111 9.750020582871509
Na 17.369269929171217 10.292779513478484 10.122789687185278
Na 14.132482945779936 7.078092203034604 12.945695624214073
Na 17.498980969707766 7.792744322532597 12.324332058901085
Na 18.367875086158172 13.483446606226801 10.70883592414573
Na 14.914766965235799 12.666014709323859 9.958155074543997
Na 11.514614399174757 11.727079913351167 9.235445014202918
Na 18.05979139197983 11.753232329377775 13.948538158166429
Na 15.00519215987727 10.620859242575406 12.902808107748841
Na 13.303358296486657 9.163385566119697 15.729685130673975
Na 11.774480818956787 9.428830820356518 12.383942738106695
Na 16.709559315502055 8.836202387639268 15.49732445676482
Na 9.098220769165211 11.320126459684202 11.984730807003311
Na 19.668885600893056 16.7605606523607 10.779228127893806
Na 16.119693605406837 16.00917956759909 10.059820786955434
Na 19.71835266462495 14.725361179469303 13.689417647607963
Na 12.66544376501816 15.030324111040013 9.251442048642868
Na 15.427263427869375 14.279057321320304 13.213388891362738
Na 12.28150671426589 13.06396932970789 12.471255579431928
Na 13.811059014342213 18.252446972905883 8.746435665244551
Na 15.539991185894271 11.87843701812264 16.416374844754333
Na 10.549758826209956 11.188762110589904 15.332180819636498
Na 17.33122484079108 14.904302624731937 16.058419736702433
Na 17.377107899280258 17.397159953338168 13.317018466207099
Na 9.562595573563092 14.522586427887635 10.793144804067555
Na 12.780818833581177 13.932545715270308 15.713437300769595
Na 9.139279549391343 14.091513272215392 14.141501852406755
Na 14.195162001586466 17.790158330533725 12.184980904388897
Na 12.563250665389457 11.517073554801408 18.268436087950985
Na 11.588018641965435 16.644982619833087 13.983645666672176
Na 11.077252393706143 17.771494208027026 10.749890473553444
Na 14.860388729036748 14.878120021852798 18.320766293779887
Na 14.74392333406426 17.280096314631407 15.566243087628
Na 9.599815111969722 13.682453183133205 17.575521990643786
Na 8.260850767387723 17.23330565240765 12.72094031837018
Na 12.010090595428652 17.027886239070305 17.49303781945593
Na 11.949304685992855 14.570494263420722 20.038434358219206
Na 8.686385089615374 16.97421389538569 16.13201913759632
Na 9.135031937240747 16.5800440544036 19.56147784748175
