38
Energy = -39.372527 eV
Na 12.141855007919368 9.325115844474661 8.354311071151518
Na 14.961498571378947 10.994786272579494 9.305025727240684
Na 11.86284087652396 12.75978802392202 7.981183501382258
Na 14.521221034227738 14.58107968386039 9.263815993214912
Na 17.481993200939364 13.028513796894785 10.394893342040053
Na 9.832934409286796 9.939982242269203 10.772064731917387
Na 13.204024029122552 8.771001592015718 11.673988741226186
Na 11.026141488933641 15.102205746111597 10.309506713705707
Na 20.31090343487413 14.784262385353605 11.270496762874894
Na 17.182692381090842 16.56557492238107 10.731647962048248
Na 15.709274940016462 10.886311762640194 12.670258510372749
Na 12.566620885125863 12.19287790336328 11.518766041261832
Na 9.20296619580502 12.80085802316133 12.576770546275686
Na 13.724054458912263 17.32310804388837 11.11275348448499
Na 10.529962114417492 18.540144051475988 11.040607066034168
Na 18.493145432892412 15.812351788088765 13.999783753897773
Na 18.747360930267416 12.367806002502487 13.567980992299388
Na 10.818205759128343 9.709726861482993 14.095176335975571
Na 14.117134104557042 8.365592466440999 14.996341309996755
Na 11.964738886680255 14.66391157799087 13.702004846396672
Na 16.968392045266004 10.137967200455842 15.772429865880012
Na 15.315656462588198 14.411979203353791 12.953282645203466
Na 12.101925247707335 18.15848269022714 14.205281033637476
Na 10.035250493848608 12.44364705961143 15.885511949801451
Na 15.778118549184226 18.025169525990126 13.731531011212898
Na 13.59582200768954 11.955874456249276 15.305411501336934
Na 8.941904600712688 16.31422937096715 13.211980051623415
Na 16.649391990496014 13.5435591477972 16.112501593458106
Na 10.263629502655126 15.823218843537477 16.513892407317396
Na 11.990994945505753 9.65275052225884 17.465728193260023
Na 17.072906149043188 16.86160730622604 16.929622164045796
Na 13.819972738282031 15.879791022341527 16.23033492422282
Na 15.07922817216232 11.041442827997873 18.51501574528932
Na 12.051020309067328 13.046072636992758 18.498698794785163
Na 15.236121294771731 14.467244718539924 19.075236177212528
Na 14.293323849503597 19.51226613347287 16.441658705239927
Na 12.071559419910098 16.363067600308863 19.396601859854904
Na 15.057859675569173 17.965030080807928 19.424003240225574
