34
Energy = -34.79588574 eV
Na 17.090400072892454 20.313528616146158 14.411913107233167
Na 15.266837884902086 19.75559624733899 17.30974492858327
Na 18.809397703723768 17.587091906464277 12.843459524166885
Na 13.08639747061934 19.33998304614789 14.864197306480227
Na 15.298037299002463 18.419908569650772 12.093533081438563
Na 16.02691754959195 17.13297808481229 19.234635592508095
Na 16.73357258079863 16.994457379213586 15.68118472478054
Na 19.78702074745302 14.38347863336585 11.659746393942452
Na 13.153847066502621 16.73874510419018 17.381669661255785
Na 18.87913242341373 14.043664323721122 14.910775183613659
Na 11.598721679715833 18.26394989296801 12.058013800724636
Na 17.889309790500263 14.607617530785923 18.04103484891143
Na 13.667981078994915 15.890911877902168 10.38627105359002
Na 10.296400754681423 16.55289587298371 15.368265027822742
Na 16.530682494791716 15.19280874327469 12.414361818853815
Na 13.632588779279741 15.983637366756202 14.040214332095017
Na 14.494396009555572 14.063605750324047 19.243819661460716
Na 17.1464248427726 12.353874150619916 10.523622915068337
Na 10.777687791932358 14.864778733181854 12.34942055897905
Na 17.005446419491232 11.162596174177047 13.743432285294517
Na 15.54483891573096 13.411800159914415 15.86909103307155
Na 8.804874584113808 13.315374478448671 14.93485737470554
Na 12.104875195627049 13.582123151273969 16.09666332959191
Na 13.921159830284829 12.96392642984095 12.596878732084127
Na 8.319750616793323 12.648661453334443 11.426933695482559
Na 14.479140177556157 12.92431875003102 8.579481261413381
Na 11.453862770471353 12.44930803015355 9.942142647235247
Na 14.332514994617583 10.036422762971869 10.95165939781066
Na 13.76662156325851 11.119301969720624 18.02032347635592
Na 16.197794086517998 9.098144421318489 16.46548095690531
Na 10.869744026703037 11.08375386112374 13.04388774401543
Na 13.654623979960004 9.981943925714424 14.434114819914386
Na 10.616589886243686 10.489549437582404 16.45856559256559
Na 13.05937106663224 7.781050459361725 17.146086707883136
