35
Energy = -36.94431258 eV
Na 7.568776995794263 14.038488760382517 8.469877039053324
Na 13.227852509904588 13.454585939348672 17.300711569288715
Na 9.538762284027156 8.48232595362058 9.347777894233756
Na 13.002634300109374 9.45233250749023 8.56495085130502
Na 8.661387688414823 15.990701400594938 13.977187741891052
Na 6.192122702453285 14.419219177424223 11.81036593780914
Na 14.674515508227579 14.887572754147413 13.442113721548951
Na 13.820507961420164 11.221015593328582 14.345675428402034
Na 14.154767593415414 16.07838203332067 9.840915827104974
Na 14.704502686993203 8.954342021679334 11.839223121784105
Na 18.04378896055608 14.813407160330746 13.863650380574477
Na 7.47508048051785 11.061291261938798 10.720248538288526
Na 17.08494298114698 11.454467101010163 12.779166368973598
Na 16.741721806666053 13.863523676824869 10.45084665640813
Na 12.218537845139918 6.822679234369256 10.974955331528884
Na 12.234325746080472 16.590212956161878 15.769482458137805
Na 15.763868009496509 15.919616004009505 16.629407320230005
Na 12.651944768025425 7.857985251581251 14.668045178396925
Na 9.606300674892784 14.101022920188635 16.942577027096814
Na 16.482781814259155 12.438109542617147 16.281479563543712
Na 16.186042414346005 8.78632649641955 15.086513734668427
Na 15.37812920102606 6.967784303069011 9.076883991097162
Na 11.40252015690003 13.597750446627524 14.083532748578692
Na 16.442757404234143 10.496935764261975 9.214424351922679
Na 11.056346137250001 15.448946504973774 8.501623804691008
Na 8.457162710547996 17.052681088109924 10.484371816418944
Na 13.255412001516927 12.614582738853448 11.040936795157387
Na 9.641601990469374 13.7667331837892 11.207680503530362
Na 10.419938951362925 11.818848600081132 8.372135444695264
Na 13.91013499281816 13.0025743208756 7.788642944816315
Na 10.692131100712958 10.61245765811428 16.0491559252322
Na 11.623532852172394 16.725504130535683 12.083785845041476
Na 10.718034426391064 10.099308423314799 12.29057434771365
Na 13.859980544292608 9.810872106213864 17.546443667521995
Na 8.040943740166876 12.231204926139943 14.088428065064132
