36
Energy = -38.27941664 eV
Na 14.278935415179273 11.620146344561908 5.912992585129508
Na 11.259163372894955 9.749288920357415 7.140872168774793
Na 14.984546342625984 15.074436029376411 7.60982973127614
Na 12.91219867407325 12.465105573503719 8.72729347611782
Na 16.66330906564857 12.119314364043934 9.124525575061037
Na 14.413260819556152 9.03002184363024 8.85680732605482
Na 11.531940267724627 15.81386910120384 9.556532199467178
Na 9.31298064778761 12.380052290493557 9.256890066914302
Na 11.446897923331228 6.756643241667151 9.49557395921935
Na 13.942057607105218 18.129846669670503 11.197812466957856
Na 15.040852420211527 14.661595554970557 11.07078449347448
Na 11.207809764836341 9.740484236652582 10.722293793127925
Na 17.266287833849557 9.165469984718207 11.613237433851232
Na 14.531818179688567 11.052350542731865 11.618507745730927
Na 11.602201154126412 12.952341868919172 11.772298000548632
Na 10.219530240247993 18.377724118782563 11.994990001531699
Na 8.703896125712303 14.89952034695132 12.239350821205285
Na 13.88290520978103 7.652966471468336 12.473113835744417
Na 8.67306441587859 11.171622020902037 12.885104247550315
Na 12.205770909867795 15.903464365747993 13.18970169530557
Na 17.386680345962414 12.557297495865429 12.995844545537798
Na 10.198383281808018 7.594372127013385 13.592936296086318
Na 12.157733405092324 10.286411327303481 14.141363379912958
Na 14.144672589469105 13.183536629553165 14.336970183220643
Na 15.57232407313256 16.40191831421196 14.351172106081675
Na 12.705915306675355 18.800149016113956 14.669969668515217
Na 10.649390180802232 13.307987541877042 15.012460895302922
Na 7.292636240682861 13.636546225432035 15.410579174708065
Na 15.591437516588517 9.898680387662903 14.976844447853777
Na 9.524334536088123 16.656459467217502 15.417613977539656
Na 9.58826956499942 10.13132581814361 16.47909104977669
Na 12.70935972120487 7.9760605524200745 16.505357570025033
Na 12.944661654714372 15.458352234407243 16.81561051862295
Na 16.20644102015232 13.67076718647837 16.851699505597963
Na 13.047064372751695 11.546448193669427 17.429853080589258
Na 9.755887639794418 13.732041432322324 18.10873981763136
