35
Energy = -37.25741875 eV
Na 9.679511796886592 11.590576349788773 6.74095937795058
Na 13.014352581305515 10.071722421424615 6.497669694372895
Na 12.724594906371744 13.904660542772755 7.223484780063244
Na 10.290802372881169 8.39608858429511 8.494281925613443
Na 15.41549557527101 11.764011012733933 8.668851659002272
Na 12.13837683240453 17.115864608071913 9.659055358514884
Na 8.269105975105905 10.94943378266919 10.180218891930549
Na 9.646458501068816 14.249551531757996 9.205970322546772
Na 15.627827577634125 15.507599890012516 8.8501063602523
Na 11.710043595417991 11.317877034294568 9.472945170388352
Na 13.853346807588563 8.370189133956172 9.659963240084204
Na 13.980532916083142 10.999625125430747 11.971072687083371
Na 16.85716198731433 13.244158761573884 11.655430749202477
Na 13.195208170352181 14.233284108725652 10.75726122757678
Na 8.991592421439778 16.56867303799312 11.643257116918772
Na 10.979393128571589 8.748177605459457 12.038186883190306
Na 16.938667242354096 9.524644610710038 11.291883371213634
Na 15.387887042854503 16.593130908327208 12.433798954282468
Na 8.123781686215096 9.934228728509229 13.542867905336822
Na 10.457487764799447 13.095130377870872 12.766825862552317
Na 7.11659522507039 13.389254298591885 12.644818026060486
Na 14.161705996462258 7.972718673911746 13.598685210566444
Na 11.891427019738783 16.648049024696554 13.54839454622126
Na 14.029213855718757 13.81593896905725 14.129545505994693
Na 16.25935682112189 10.854066579348087 14.714535683707735
Na 17.226616997526037 14.428178293850337 15.094821103886627
Na 12.212151764737916 10.978780436650933 15.003812164867709
Na 8.663520723431384 15.722191825213715 15.041365077494348
Na 14.419106571252843 16.475455046216588 16.155971687049057
Na 8.713393399613732 12.227060804004484 16.038176683170274
Na 10.527673095708757 8.239537352673084 15.7281761328621
Na 11.47522331155383 14.382355206390564 16.64644329745488
Na 14.598617421176204 12.643420592482192 17.37857095551766
Na 14.044207804306117 8.947609759082898 17.111926334120852
Na 11.256945031753128 10.974138902543904 18.288049974041225
