35
Energy = -36.53783984 eV
Na 17.300407675248618 11.93206309934966 12.038507163425601
Na 18.11278965601063 13.526007958583207 8.906978221730519
Na 16.18941508458925 16.5933144108927 9.536630710967495
Na 16.677135107193024 10.236189211121332 8.975497073472875
Na 17.710818508520738 13.812572638380152 15.164689296315528
Na 14.671617287526757 13.216646523711338 9.551123634252864
Na 18.578459402099032 15.295674197909802 11.990425375466836
Na 14.099059414890888 19.467536505784757 10.51798741013668
Na 16.587207514307657 18.211259318192727 12.777987531566282
Na 15.667209667116133 8.68930390110618 12.07859444506351
Na 13.181708223961348 9.935063178280123 9.753085782931265
Na 12.583905679923747 16.30928295788232 10.403165138749786
Na 13.773722707430078 11.709150365879816 12.888269424487236
Na 15.122599407264262 14.99300924369391 12.76024832350144
Na 16.30550082242867 10.438631837203136 15.264855796790359
Na 11.163246490617551 12.973830935627916 10.521945576977705
Na 10.814726816268777 9.913711778621645 12.375774258868907
Na 16.86649640449629 12.302740019398726 18.28913461681229
Na 13.263817171327306 8.631923889415326 14.716946207729242
Na 15.701825834900903 16.77951326876988 15.972293750592376
Na 14.201868024364861 13.460625547794125 16.11633300021165
Na 13.119142136122433 18.12486137736057 13.733599497419046
Na 11.69076578831902 14.782082720196401 13.737711302176448
Na 9.130836743193601 15.958475088961542 11.415509325892382
Na 13.74831143940296 10.343284475581587 17.917744138013678
Na 10.638853487476773 19.215314591164265 11.441797675740055
Na 8.744358891143564 12.953859043600104 13.210378223228652
Na 11.09647313749566 11.5348118333681 15.601357599881508
Na 17.286041763352593 14.098365201108859 21.27264449210553
Na 14.805084770446028 15.377854676947974 19.130507070338354
Na 14.35789564067258 12.276205597334299 20.83560415391439
Na 12.191457857779247 16.551887265940735 16.941960937316754
Na 9.607177144348611 17.688171615027127 14.552890428360586
Na 11.706507229819914 13.391012428950008 18.751906787713192
Na 9.213505836820774 14.647306913434484 16.37097509786381
