31
Energy = -31.32736457 eV
Na 12.04799087100142 14.743370213937196 6.806068248285029
Na 15.22194585232904 12.888443843494718 6.919489215417344
Na 15.040214096524181 16.402773795040556 8.054504529051377
Na 11.958978686640616 11.083251083701995 7.987775769979261
Na 9.88109122448962 13.58151810116433 9.695170951635747
Na 11.770117898742793 16.909275272278997 9.809166670184283
Na 13.583833813586091 13.769938674962773 9.700217611775301
Na 17.04316685934351 13.993182667748084 10.007114286122704
Na 8.945164546616786 9.78532600452449 10.570886323604265
Na 15.045645759894471 10.393465709750668 9.937554434924701
Na 12.112469263615424 7.7965992482987865 10.797463243042941
Na 11.973126600248653 11.172926717232 11.4793665787251
Na 14.973474391527375 16.389412243218114 11.823627936574647
Na 11.879312057617774 14.498271015064493 12.54859867448053
Na 8.973602981672427 6.451503974151285 12.219710267195664
Na 6.994591303921522 9.351612858410443 13.704436440153362
Na 10.390734642205258 9.014121387893361 13.899669149471976
Na 17.51481201778471 14.758236547235803 13.705606481930362
Na 8.996071927185035 16.211878146696417 12.154235897244634
Na 15.100929730390495 12.541007692801657 12.759255664225968
Na 8.795794238652912 12.441161207853668 13.090485183668878
Na 14.234747640089054 9.023279792472819 13.477346458661147
Na 12.137205821692271 11.814747381349976 14.828287322890219
Na 10.211264962685396 14.58491974043395 15.728489912847966
Na 12.08455323579011 17.748748561904115 13.447552178087893
Na 15.22265775325147 11.403461456264921 16.222982562445992
Na 9.044186006193142 11.073709207981059 16.47174349842632
Na 12.182298413770773 6.103816916229727 14.11261805279521
Na 14.084301722863364 14.973600308674786 15.221604909970154
Na 12.520583416046689 8.857963282967589 16.733517926724513
Na 12.071286104158947 12.274630786791858 18.121607459986965
