30
Energy = -31.28756618 eV
Na 14.368961872687779 9.610069271390833 7.343491418153766
Na 9.483905262788916 13.289839502548237 8.4950524412691
Na 13.155659014516042 12.860495464193413 7.481994556380734
Na 10.755690549366687 16.311958411114635 9.9407575969004
Na 17.00422756494321 8.7307153171501 9.46199482383419
Na 16.499841755344228 12.412949059181752 8.91243625085951
Na 13.496126594098733 7.198934721010495 10.175750677717412
Na 7.543738481324599 14.88792887250681 11.139071831315691
Na 11.340421385814 10.087359658046822 9.028647397866433
Na 14.572470257076784 15.394154192218215 9.686387234718577
Na 12.157247929860906 13.220613440979507 10.825186431542415
Na 8.542461996122046 11.267683790166746 11.242285543326071
Na 14.426341821643113 10.43352866367006 10.968593406779432
Na 9.584210841138722 17.60820327248677 12.928594500650966
Na 16.27190650446999 7.676815514969099 12.822074107362278
Na 10.198618188550391 7.916280367783398 11.569665622478096
Na 12.869514133756027 16.238297329765093 12.967740316986847
Na 17.74823465225455 10.950116649045178 12.140040869764686
Na 11.710312912651549 10.774288215134609 13.06882630760435
Na 9.95647256880551 13.873660299379594 13.39830746015528
Na 12.964134636063974 7.6026435768206735 13.840958820718049
Na 6.560186308395402 12.426373887080414 13.891327416880054
Na 15.127500048449454 10.487257823797465 14.671736255131009
Na 13.020779870166857 13.437576987810475 15.340068711848717
Na 15.405136533340885 13.54159685817387 12.631458474893066
Na 8.73189802425239 9.815255722567615 14.588213105960609
Na 7.4525689966200375 15.59431380828634 15.03636610775653
Na 11.811184141413818 10.2746356630159 16.483402037413533
Na 10.833122873181022 16.09610085498556 16.0334287646968
Na 9.20579471196096 12.779023235777169 16.684811940093454
