33
Energy = -33.97209932 eV
Na 14.600647797594485 20.44360857606315 12.200410424073231
Na 12.395605932953545 18.296221533749 13.76476617320789
Na 15.867542245660612 18.134427275074195 14.637443520080481
Na 13.281516873080964 17.604850460615985 10.379997435141133
Na 9.971254436563036 16.336595536603895 15.45399995675186
Na 13.30109836637874 16.262041717494743 16.41167354011237
Na 16.690708823300763 17.894914951204207 11.199597396115845
Na 10.81878029768429 15.621372831268987 12.159827854353834
Na 15.844665643981138 14.973817459228936 9.754339765439621
Na 14.343978376614904 15.35450019101766 12.992755967594972
Na 16.667001047288657 15.489916376827969 16.653357961364293
Na 10.664552085885378 14.32153611191261 18.208494929425388
Na 12.186882945455986 14.612525407066189 9.138345439269436
Na 8.37658283047192 13.638360485849814 13.92462741545788
Na 11.72479064714649 13.352107518996824 14.89094266626401
Na 14.030771465401006 13.552142467863268 18.46031332659041
Na 17.9002781952644 15.405320199932671 13.077865854868362
Na 17.277687874926464 12.501190132956513 18.239940040613874
Na 8.886901534696426 11.703057134977751 16.737468543509326
Na 15.023300898519942 12.55979602009993 15.179333486851975
Na 9.5606769643618 12.610306418156792 10.885329138482687
Na 18.498919456412743 12.693320598323615 15.029113198043152
Na 12.997566165586232 12.23712476744298 11.772765700211332
Na 11.489102984554329 11.339028284042634 8.380900456126046
Na 14.872149921716106 11.911216276734992 8.626314900118393
Na 16.61616091827415 12.366589179067438 11.917867887354362
Na 12.101200492241091 10.581615017399445 17.068037552581572
Na 15.404141113185837 9.735567826584045 17.27053108328197
Na 10.153369474144121 10.290875832598665 13.86260830744587
Na 13.474187552954293 9.299814908750058 14.129954374319814
Na 11.537385722756866 9.101173423487563 11.005418959526384
Na 16.88780343021227 9.737610931519846 14.122525835267842
Na 14.994869442795563 9.405811401826844 11.02410678509373
