32
Energy = -32.72426156 eV
Na 13.418863841559329 18.463917928730293 11.927025053953953
Na 10.837078281789703 18.470061902729036 14.63778167764881
Na 10.307770233104744 16.98401074310527 11.5922494724945
Na 13.332825944178188 16.170023200219877 9.324000193344212
Na 10.109399819861595 15.264769500134806 8.770057602677596
Na 15.300530818526289 17.927523728938947 14.56706678619329
Na 15.283720299589861 15.412006301928816 12.108724054580462
Na 12.72263852312877 10.7439300291507 8.801794623573562
Na 12.575872554978027 15.526028450046978 14.190752117166856
Na 8.963464264256524 15.551461558072784 14.642855575362825
Na 15.223031918169495 13.236147139337378 9.31376535858517
Na 16.448794018285803 17.258743304441435 17.64615147112976
Na 8.713552389515703 13.757205745400725 11.72495380928872
Na 9.453590768529793 11.995236484662884 8.790820619136014
Na 17.24739171305084 14.857145094046118 15.032358543480507
Na 12.909000490079768 17.463530275204302 17.291816592428287
Na 12.23161850365597 13.431343488087009 11.201265155678312
Na 10.29002413609038 10.412172180464362 11.663754501374804
Na 10.794657693590759 12.560922310837931 14.339061096364722
Na 11.027008006924406 14.539732641901239 17.232329842402933
Na 14.595006123605701 14.403746162925406 17.363907753419277
Na 17.41828274531664 12.705496813076653 12.158916977102047
Na 12.634590545037554 7.985352434340961 10.976426240700214
Na 19.42132788306413 12.150467249813305 15.271538338860172
Na 14.857532106005602 10.522711539314567 11.562101525916864
Na 14.537460215055907 12.585979933366886 14.309265943822586
Na 12.497610995380317 9.637103767625291 14.24870821693244
Na 12.787199100020237 11.441905711715522 17.22524916771749
Na 16.547774142344785 11.58167074840209 17.29081013481269
Na 14.967224536799417 7.486825448388973 13.325788781051934
Na 17.22876896790941 9.87228086133025 14.136433548631201
Na 14.8728527219716 8.598705223615953 16.625942990284116
