30
Energy = -31.3852139 eV
Na 15.052141630499655 12.16244242372742 7.29631084676267
Na 13.004453310733258 10.070495828435494 9.36655742721737
Na 11.284635078148822 13.152620977109864 8.512048936091132
Na 15.484002911016834 8.50725454483608 7.713145701499809
Na 17.506501213084523 14.482745714852104 9.490052428201706
Na 8.331071300054406 13.83775946377034 10.851407829025094
Na 11.470198137242983 12.093449357705387 11.786456439702922
Na 9.134637084845012 10.323655643498546 10.044574047773677
Na 16.98045983462309 10.950921352770173 10.039093349962975
Na 11.627378519888488 15.710556835951637 11.356304272992451
Na 14.352438841007915 13.592293494021687 10.342899760549066
Na 11.755027676827275 8.656002598922425 12.469063774484797
Na 15.349526861512103 16.530407381228553 11.952762945007313
Na 5.867487923318792 11.417774583554634 11.500659465476813
Na 15.339396108024454 7.865745655195767 11.265442387552147
Na 14.610857874001274 10.975121042077294 12.656767564914913
Na 17.770855844696907 9.935091227977093 13.534903894226007
Na 17.239931311304282 13.50936510704955 12.913838606414126
Na 8.389071809475189 16.70102046251457 13.139328792085575
Na 8.601757214117866 10.583061075778339 13.615122386791944
Na 14.654438786582524 8.413870578317937 14.864144231256365
Na 8.91294875419704 15.893729069365305 16.632652536595614
Na 13.781081629546756 14.178793901511723 13.987687590657337
Na 10.14116354431146 13.966350927081335 14.205855841628788
Na 6.610350090871791 13.672489989242484 14.16826671819489
Na 12.029687436083405 11.03107357404449 15.288716851193378
Na 15.678707735407404 11.87043703139327 15.886340729589973
Na 11.820958885489981 17.096568738640602 14.69238538928581
Na 8.736666143579095 12.269722764701871 16.82725507473721
Na 12.0641911234161 14.131203268632357 17.18197879403699
