34
Energy = -35.16544202 eV
Na 17.513856627971183 14.549713328047828 16.954365410287487
Na 14.454885917504068 15.986999374765277 18.154410649640408
Na 17.988795640463817 10.961977101784019 16.656699336095404
Na 15.1291379953475 12.214726478518477 17.96387804893942
Na 12.51342143381037 18.10893554679661 16.15916706167143
Na 12.186809391840088 13.549838901521293 19.030859231417242
Na 15.48460371533869 16.5246885939262 14.907835723665306
Na 20.372642495131352 12.922282822259353 15.342128069325168
Na 18.38171391381107 15.025680790684959 13.549399660666676
Na 15.343029459799812 9.46864575875861 15.19080671858532
Na 18.351299863980167 11.114691193313897 13.0949691575395
Na 15.555098423984385 12.906954912799609 14.486159028749926
Na 9.446353727937352 16.400702470943898 16.342259683065468
Na 12.404572564744782 11.00210662602463 16.40687340474303
Na 13.613376901985362 18.813918309183602 12.835348405919255
Na 12.450928561551509 14.576792068800334 15.638010102737473
Na 16.576108555246137 17.320005910630652 11.645848614614538
Na 13.572427009315572 15.184116142011943 12.26992549576125
Na 16.736173201088366 13.392382105547654 11.033338877126258
Na 9.578145964904847 13.018635983942836 17.03121138305493
Na 12.290049443718464 12.008811413375264 13.019781282876636
Na 12.27251481456501 8.493547104378795 13.790071885499508
Na 10.381620999676175 17.094440348753448 13.17353700100483
Na 15.000635488925193 15.747086388068626 9.04560972612167
Na 15.39807041427865 10.161542483455444 11.770426553764478
Na 11.827328651363153 17.54102202043384 10.119364266441789
Na 9.126878749313423 13.89977332729596 13.83174598557523
Na 13.730761024356738 12.579487041843361 9.795609333045986
Na 10.451999598298642 14.393052831689719 10.810662255514526
Na 9.29529734857693 10.299729028096689 14.831467149752202
Na 12.356056233036126 9.337018027986975 10.41388421773599
Na 9.264068098972697 11.175550992092152 11.548659355022167
Na 11.978888728179697 14.87945288108932 7.718767358366666
Na 10.703312901515295 11.703452292271605 8.425992749215787
