39
Energy = -40.72557969 eV
Na 13.546269043713613 13.68877215982304 9.074564644115961
Na 10.783411809266054 18.333063944214942 11.799906248212542
Na 16.0398776009681 12.563387011695312 7.029895007393859
Na 11.38591962464105 14.910469157282773 11.454334160402206
Na 10.969431296869555 17.910403965756796 15.375534943706242
Na 15.878586637696031 16.078452882275254 7.7741439322499915
Na 6.593214360379272 13.643830887702828 14.590785636054848
Na 9.692750311504499 12.651458512744302 13.429273992639382
Na 12.653663513103622 11.797867391833831 11.99831368269332
Na 13.328511363112584 17.197208423846295 9.828714562927734
Na 15.543825812670697 10.947840798996626 10.096435881795138
Na 13.817351266631174 17.588248417465742 13.308097518533451
Na 8.685121930915537 16.078173939935716 13.350844740494578
Na 15.02853206248261 14.381492645977094 12.469631492398044
Na 17.54551222797576 13.937838992663936 9.976698863185376
Na 12.492011324004043 14.573287815170355 14.811471331494412
Na 9.313905001324166 14.885142788772146 16.55730907532351
Na 8.552273387896989 11.262811589206846 16.46631956484513
Na 16.649605724907588 17.291753487102884 10.98983306853491
Na 17.213694203569585 18.387571023203982 14.114856111170226
Na 17.62726460627993 11.820031238300317 12.675019632282625
Na 14.71446710396274 9.10923579887653 12.999153807191979
Na 14.79748282332282 11.897674939521195 15.20538885323465
Na 11.683897802200766 12.338432477694436 17.430707415470334
Na 13.985444228124454 18.72868549230063 16.655616644363597
Na 12.234289042660889 15.926190634955956 18.08781320190959
Na 18.512411826874363 15.21516228787539 13.171370859585405
Na 11.669243513526792 9.996751728302119 14.827716112128776
Na 17.56025366572279 9.337241762132887 15.063421852016912
Na 15.788245668566873 15.631435880465332 15.854498196275312
Na 14.340909344061393 8.390922160338528 16.50128010742297
Na 17.264595594604202 19.088306233671837 17.39668067647398
Na 14.598207446218765 13.446582021789087 18.4117242463601
Na 18.2688407197884 12.965300683271725 15.736718385429151
Na 15.446473819380575 16.73310770473304 19.283784567109237
Na 16.793917172016872 10.852345482830385 18.055563535039262
Na 19.29925030811245 16.350358218529603 16.40270395593136
Na 17.917324841657436 14.158346801200516 18.87742898314611
Na 18.930866177112613 17.311721500904383 19.840008762541697
