35
Energy = -37.16560102 eV
Na 14.739158076177898 9.036641903536633 8.095635274554303
Na 11.986055793007303 14.628723933803098 8.353518220742966
Na 15.306843766717027 12.921895602904627 7.8900924032784605
Na 12.238537432660122 11.157967913329818 6.509218013167361
Na 16.206861375577414 10.978245178961915 10.903360555714743
Na 9.402105490858878 11.911498628091945 8.777372490885663
Na 11.15000684622702 8.384651789902984 8.726798273853372
Na 14.934899839479254 16.953145611862762 9.234515885801128
Na 8.802111796417979 15.557791216726606 9.78075039767752
Na 12.692228277078048 11.228021544956343 9.765933820266143
Na 14.245626849454858 14.11257437882371 10.98334220035142
Na 13.53305958176954 8.15019869968939 11.609002866426689
Na 11.908427514779817 16.989191323756888 11.299501016321658
Na 17.542755107182103 14.48527766691009 10.406496831291136
Na 10.676290450407839 13.500071603584928 11.621555371114908
Na 10.130719171903545 9.807032275962035 12.172301750087692
Na 14.147486253684091 19.705069275791804 11.661916237892079
Na 15.701647329509534 16.82965887089528 12.885586108304816
Na 13.288496335061453 11.366724322210123 13.025633826179167
Na 9.647531774314771 15.859365075231562 14.229992473529647
Na 16.362745056866665 13.229753479697113 13.843604911908313
Na 12.958820818683172 14.792385213162738 14.056977349179448
Na 10.409858862856913 12.32274083043616 14.841050393510972
Na 15.69445689166997 9.561270783330174 14.764388805897577
Na 12.81361427310431 18.11393482709085 14.787622349407602
Na 12.040739263308573 8.921936538735652 15.347563718448928
Na 8.54765381976258 9.757866628629126 15.993627460430371
Na 13.703863017498069 12.173385734381984 16.21772416241211
Na 8.224028813398764 13.373651725752152 17.17644866771903
Na 15.232088172546053 15.477052393993569 16.60590027771521
Na 11.504103485557028 14.983127808320635 17.26099918948933
Na 16.928004904165952 12.016127830830197 17.36470091335764
Na 10.981946827665045 11.206936071969308 18.25125587742551
Na 14.329532282028806 9.48744021438929 18.262359817423526
Na 14.034276306535467 13.065224960263622 19.33983394614941
