34
Energy = -35.48437977 eV
Na 17.234332069699697 8.182183969881239 16.982952820545837
Na 16.938302103975097 11.69263204726837 16.67008347593391
Na 14.924466674101968 10.00252203889166 19.0737258639998
Na 16.868528187068137 9.662293453836892 13.753918860736375
Na 14.017988416258666 9.014780700837857 15.767578085627012
Na 16.656836728314815 13.21369491533367 13.078186256295831
Na 16.573053265831785 15.167667986460057 16.003070514676324
Na 14.447079688979827 13.561978346520593 18.48823465042719
Na 16.583718419969806 11.156365303828924 10.210608303001178
Na 13.719741744894984 12.668887585871301 15.043575223951496
Na 15.253241753130043 17.11767745614317 18.563581057665786
Na 11.748968111546693 11.069672534001837 17.663070362368934
Na 13.721856295169657 10.52909513692419 12.182167484457004
Na 17.80132755829572 14.870395701684346 10.125951739567878
Na 17.865503968700185 16.759954563729575 13.00595480311738
Na 10.941570618918346 10.021341831657354 14.278439886528961
Na 14.158968575332498 15.722340439700845 12.996646315964908
Na 10.342042018081834 9.884582047817867 10.705257774606801
Na 11.462943022536027 13.26255390619951 12.17124172133442
Na 12.772282220014493 16.041055115418136 16.27756618885972
Na 15.447539232045328 18.439303637352275 15.135767633114382
Na 16.609138232333827 19.922514828069385 12.119864932183846
Na 10.187982626623386 13.657476371031986 15.49962168050344
Na 8.325895969024407 10.796206486808828 16.435857596559742
Na 15.402771257743506 17.39573587422193 10.032598864706026
Na 7.683089766978002 11.744777507966509 9.370592861974476
Na 14.248609144152786 13.772361045054588 10.033498662941915
Na 13.051019825103824 10.514694394081005 8.67568989321054
Na 10.556946609439692 16.645158783045822 13.444073984072254
Na 13.095655128817778 18.971760116455062 12.345187988196354
Na 8.168195017660096 11.801004552299672 12.900623554711531
Na 10.786734738900929 13.159994753097122 8.607309711584215
Na 11.767964588855609 16.458669020198563 10.129917164706155
Na 8.630243730576547 14.890767294410015 10.942582031400576
