33
Energy = -33.8379919 eV
Na 12.757454260139996 15.84677207210305 19.23415615122721
Na 10.022955871322944 17.724859067358466 18.546114086150116
Na 15.544388769208734 15.413317178199115 17.374711732267006
Na 18.354076588628473 15.626158636858097 15.586902929241905
Na 13.43677247223018 12.577557377616623 18.60156871624577
Na 19.18482228287539 12.150578758753698 14.68712010534203
Na 12.82269196587885 18.052774146166403 16.415032860343604
Na 10.17045176677481 13.951581161404556 17.84922784802554
Na 16.403337657246983 11.803706182755251 16.75250469548112
Na 15.483517380960802 17.494984790745143 14.446533378583549
Na 14.069274259113707 9.293880710040169 17.795332778855467
Na 12.804101744317316 14.414931455766508 15.643647232041127
Na 11.10763300322464 10.72884131336529 16.715479358398493
Na 20.90082471172487 15.086181643398989 13.421857908702641
Na 15.859082164158483 13.786462752432378 13.848981820644697
Na 9.635825419659687 16.49966032471507 15.433461972688992
Na 13.978769165767591 10.741293425782494 14.662478890707197
Na 16.959420525855876 10.486628897446199 12.670420220246067
Na 9.774550634403424 13.043368118393417 14.48469254965738
Na 18.60348841685179 13.436959911916992 11.49159803641439
Na 12.190254048827368 16.914419867363602 13.179187002981768
Na 9.007736793245957 15.543239531352736 12.200953414775427
Na 18.134361073987975 16.94790736368537 12.24694341925613
Na 12.7552665772542 13.133419568174341 12.366435641458583
Na 14.861791666046818 16.036250446349364 11.326497104819836
Na 13.899379447251938 9.741797532975813 11.24836358940084
Na 11.604617967464101 15.573519678372842 10.005675724178925
Na 17.360580030590228 15.685877837270931 9.074201812778126
Na 9.614473084516188 12.301043304986745 10.889678094940045
Na 10.981962143363164 10.016203340393732 13.154177519434976
Na 15.632934749165061 12.653269126615298 10.240097978569732
Na 14.224088221491634 14.900280062225272 7.9771846521415295
Na 12.459220098926016 11.912296462356453 8.903656041819547
