37
Energy = -38.63651286 eV
Na 8.970896147739833 17.757426101606693 11.959200109931981
Na 12.0651363617359 18.97291487753992 13.19852843175847
Na 10.729605063730183 16.02723752250583 14.562881088889375
Na 8.080250287731497 14.407443736435061 12.93011958447637
Na 12.0655366752534 17.431472160242734 9.990001234031004
Na 13.727635894193133 17.42933606004019 15.816950490891232
Na 12.332562972433616 14.449523984383868 17.17553307639782
Na 9.832535271535113 14.882390932369388 9.79670975228316
Na 15.653847895214847 18.671768989520025 12.705628531096608
Na 13.663372696812813 15.833716502436165 12.576056155586425
Na 7.631365437042812 12.242888163594868 10.017286341979743
Na 9.190049533163348 10.59668362875714 12.607038715475852
Na 9.72696273093021 12.7626990818313 15.519846026632122
Na 15.2599769508497 15.821009240206196 18.531294730102022
Na 15.494223116278045 16.847573473156523 9.62208081466492
Na 17.348061408318735 17.166547493623224 15.297001136445868
Na 11.487618045755685 13.27731056496257 12.4562951923445
Na 13.876944907090024 12.800848388117084 19.9580574113227
Na 18.823785677848203 15.489030812400374 17.89288708149288
Na 10.853553025895485 9.117097528641239 15.227933581786985
Na 13.17446676182336 11.705063551945107 15.115712599141693
Na 13.237659232511922 14.153449195420716 9.430343821055473
Na 11.046608455212548 11.430052338271485 9.411023322501103
Na 16.904326876707117 12.6345054562934 17.89156769897905
Na 17.188405982497653 15.336087754474816 12.269762549294718
Na 18.825437952381844 13.650603681334484 14.879090013066168
Na 14.948050664566416 12.553310231993514 12.16151033109888
Na 11.351591577857828 11.19953706665947 18.136139500576235
Na 15.324600879429651 14.2841874215133 15.244197476245894
Na 14.321939299041007 8.28771444733036 14.715916758641514
Na 14.7124426456508 10.036915850716362 17.695179191134905
Na 12.627232820585016 9.849477332277031 12.107969824498637
Na 14.546076739986125 10.760494494851365 9.057029168836568
Na 16.768770248324333 13.47120563524198 9.160707859458963
Na 18.45255086122902 11.859334840123944 11.810497288776755
Na 16.656036174244964 10.919785818190563 14.865471019324803
Na 16.197541785953607 9.173114428987867 11.73659878982329
