37
Energy = -39.43341304 eV
Na 12.902592613078978 8.228012040957207 8.455486173707193
Na 15.871907526347822 14.064523185951646 7.34256557853162
Na 12.839403275210776 12.120009188796786 8.038555297348767
Na 16.147724863503864 10.339806656679798 8.48629201289529
Na 13.122094561004934 15.835606209207219 9.268948462508275
Na 10.231383654448484 10.339857881266777 10.115667112081878
Na 16.5489672358961 16.53211243902189 10.598158964727034
Na 15.470126258819477 7.253672950681276 10.982834783590668
Na 9.363970162063264 14.191552083813082 9.41013091076587
Na 12.01506484895935 13.20228029536506 11.306785423166607
Na 11.667662576255228 7.475068752734271 12.094394777012512
Na 18.569333396039806 13.358571201498568 9.825339133056302
Na 13.546135303058877 18.701625932696583 11.861600708701658
Na 15.367641840452793 13.171097530588455 10.529174929800407
Na 13.775485072353796 10.135523943942767 11.029434189978785
Na 6.801803161463715 15.447843867107343 12.094658192960305
Na 14.05962880593305 15.573430613360177 12.85546349478844
Na 17.225176082704927 10.450434823743128 12.149804090047617
Na 10.473460830749302 16.417906671428735 12.247935207113542
Na 14.57486998733756 12.227919986411987 13.792053154306418
Na 8.923920062566877 12.889905760546435 12.68639196513667
Na 17.50852219871844 14.226108922114417 13.444131125344587
Na 11.434877016579156 10.6478140714895 13.699492079495252
Na 8.29816523765734 9.378467259694304 13.09235878075167
Na 14.527199586080622 8.679802936297364 14.275634721413526
Na 16.16460936781606 17.668465279124714 14.377305787934676
Na 11.649376230287375 13.998537561853041 14.7684384567785
Na 17.05465305859547 11.328302242441747 15.774953232504705
Na 10.60527910567945 8.356858321260955 15.934386712961366
Na 6.17525316203287 12.487146681750493 14.540808037951955
Na 13.078165609776756 11.444905419354766 16.93179990036713
Na 12.373427523519043 17.39060208989203 15.379073575894758
Na 14.881031393846083 14.712561289467555 16.320545611258396
Na 8.638908095999387 15.46704201904872 15.355996012260492
Na 9.411420997690595 11.953642140372011 16.4086600683498
Na 6.992414130700143 9.441562554205133 16.334095462713126
Na 11.543437456442819 14.696511485504459 18.02573816146406
