32
Energy = -32.74842838 eV
Na 17.963239491158223 15.999066831063004 12.182343904210956
Na 15.282589193582865 16.901328870579224 10.063832316736393
Na 19.99318979878849 14.770115710941774 14.717021741439709
Na 18.78826251787962 12.45704416580215 12.474269384409476
Na 17.471676786571866 16.827987971083346 15.809740730221908
Na 14.926578304436651 17.131657212382304 13.526164288010568
Na 16.483248600761005 13.371012434507373 10.048099887906337
Na 13.746835052319474 14.507904845766715 8.25483872336897
Na 18.121296489502843 13.207942680315169 17.220809387491055
Na 17.552802511646828 10.511527281924668 15.150851843992553
Na 15.647021763650885 10.826159606694016 12.223279708162075
Na 15.971874387178962 13.748841045011929 14.332780679807858
Na 12.131857258815522 17.566651874477657 11.387547605835882
Na 15.165658035876922 14.864452544790797 17.6628333848664
Na 13.425560979347308 11.323006836323124 9.690914871931074
Na 11.034623728039678 12.480260851205301 7.383771925872355
Na 13.286069132289983 14.202793371328708 11.999932394620796
Na 14.919318226354498 11.495141885237572 17.21460765809798
Na 14.449793887558426 18.105530455451262 16.767406938036252
Na 14.489238025403997 8.982251046228704 14.893295114732487
Na 10.514006399273255 15.336951225370536 9.408695429851875
Na 12.320379382954462 10.762740066293846 13.0084961334762
Na 12.463483191092514 13.545911848381513 15.434103672535391
Na 9.692254013692422 15.204024620188628 12.775998101548828
Na 10.145916407024465 12.222387447580301 10.829443238045176
Na 11.769422820456894 17.0426483684149 14.781846547960148
Na 9.290538126998722 11.960508535992666 14.326851917682164
Na 12.381261593594518 12.789190049880785 19.057006722713524
Na 11.674510638902127 10.141841867101277 16.374857829683386
Na 9.226467867382963 15.054389677603709 16.19160191277984
Na 11.971465732851419 16.097164969688055 18.102671885905956
Na 9.205838617424094 12.042527580982929 17.83629870864039
