37
Energy = -38.6335941 eV
Na 14.717013955225754 10.40721601774673 10.656883339489534
Na 15.219317466359406 8.087510793251496 13.068033120424248
Na 14.24137914708658 13.11369095598655 8.634745366231662
Na 17.28774092833937 10.714811167818482 13.437703886355411
Na 13.41375624272249 16.280605493189235 7.056711396403492
Na 11.007269984008637 14.59968206838776 8.718351980930453
Na 16.65702391184387 13.277123481584482 11.18446736646246
Na 15.659374462234153 16.323970100193126 9.633492490943919
Na 12.290539722354408 17.542769448238793 10.276763746249024
Na 15.30936826428691 9.495033215421659 16.350812462079887
Na 19.17007073769952 13.494216443012267 13.754653805052588
Na 18.14603727085496 16.422667184979463 11.928502334012768
Na 13.389221871060023 14.549126216311768 11.84718556974077
Na 11.41247019719708 11.828352220545716 10.649112167851374
Na 20.77640321142468 16.567282628281475 14.248030924632976
Na 15.901058012710745 14.801059310748053 14.363537409851974
Na 17.44639122415615 17.99072328012846 14.95240612711586
Na 11.853063449706136 9.242237334961217 12.773717360638194
Na 13.99476642180768 11.805900795666261 13.976278003519376
Na 9.868738940891859 15.01927280910208 11.84420275667782
Na 18.782041870708237 15.34928409119464 16.793150237721502
Na 12.979750472559335 6.946224266412911 15.327458204732348
Na 11.47830034077144 17.76226177612455 13.584759635063605
Na 17.13171909383844 12.338042871170249 16.65570404352853
Na 14.852578500603004 17.85798255024696 12.703194750638906
Na 10.391515110270632 12.248540038090711 13.920721015104352
Na 16.885974130524183 18.354983140311614 18.35998422641366
Na 12.515281378309842 14.806638368040282 15.340672745009849
Na 11.677414965998233 9.957621753303208 16.288424923380415
Na 15.52951877570576 15.202519272723647 17.9344652687973
Na 13.742668116803374 12.352583642568499 17.720323407610493
Na 8.935197234343034 15.30552372578473 15.07240586282034
Na 10.658683520655629 17.80108385955639 16.863395673403858
Na 10.18410921212445 12.827424694810139 17.39730825373937
Na 14.047839004675362 17.916807832505878 16.16572309527813
Na 12.211573443640178 15.424773686100362 18.838609469661908
Na 8.557414065972065 15.668584124804084 18.578322250180875
