42
Energy = -43.64900767 eV
Na 15.366566381434714 9.049644550462892 17.090808836329945
Na 18.53782757044459 10.353531047350806 16.948283219863054
Na 21.86830402768739 11.73759843978065 16.696835884994975
Na 12.64041991307233 10.952233271510092 17.941134408614875
Na 9.94595130976556 10.510684089546205 15.764612853432988
Na 16.29235561804345 11.52936136540064 14.542864293073965
Na 15.917645904247566 12.572201034077635 18.049694721101805
Na 19.67110495402014 12.190017696841302 14.103639019791242
Na 19.404626071293087 13.438598591458405 18.366325178063878
Na 12.939442688856596 14.207353286429997 19.1578375788978
Na 13.126077334414624 10.101037904690088 14.497310793416768
Na 17.83424972840249 12.216177248657408 11.263867799753736
Na 14.4582769021132 11.283256261094778 11.646154445027408
Na 10.424601565570608 13.735820161830079 16.962927701957486
Na 15.346802697173779 13.044861740451624 8.7184329476837
Na 13.70206362910174 13.730481729194448 15.468517470817599
Na 20.881703133472772 15.215517884517782 15.582136915121817
Na 17.576893090605623 15.023459513412941 20.674794843391652
Na 7.63090446086906 12.974223388914519 15.026292874527856
Na 17.299151504501133 14.677268370370221 15.560658600789255
Na 15.39725562164045 16.219563781548224 18.096562354174942
Na 10.902995482486613 12.848053519396384 13.340762968209118
Na 18.926861588908377 16.934831966815736 17.96238531078881
Na 16.86014111939202 18.368034920970786 20.54492125747316
Na 12.400230998065766 13.812026163751746 10.457326334626458
Na 15.485609394112034 14.624474437392568 12.38555206330618
Na 19.08903769222001 15.380971802809418 12.488569744883932
Na 12.110463526279649 16.816102965714997 16.774558329421254
Na 9.042066072724696 16.056753111695357 14.73760744039111
Na 13.70216351418751 19.08365827731809 19.47844398873595
Na 14.970907374791247 17.222998918898178 14.814699864744595
Na 17.62091359490478 15.695424747758908 9.356416414711232
Na 12.240524693277406 16.043251396078052 13.126838422221816
Na 18.4630644513638 18.00569724288496 14.750416985899108
Na 16.51595715395681 19.56323364473278 17.2413357780525
Na 14.079724192652503 16.694850814722216 9.80629804279095
Na 16.73842436823375 18.02947672760831 11.75574810454879
Na 13.128177614867738 20.21941910309097 16.36672210320664
Na 10.569710532577126 19.014790623089038 14.246912745283453
Na 13.281716240097223 19.180485441193067 11.962172408425788
Na 15.793038238683877 20.515574812319283 13.990042970215162
Na 12.28758238816715 22.059291388313714 13.586932153598047
