43
Energy = -46.30441808 eV
Na 13.738568527451166 13.867997570280334 7.727773414876294
Na 10.45599421119439 11.001085280215987 7.045325357782879
Na 10.37937852009462 14.752110080920124 7.566410423160191
Na 12.39911562238697 17.58405925044855 8.925057361050865
Na 17.354852925424 13.02649682657365 8.044048422930583
Na 14.146169282274128 10.045004806449903 8.14372086228652
Na 11.513363706934056 11.829086197905568 10.071397746688366
Na 11.350074205409014 8.147255938519805 9.749604238649786
Na 16.004139028034338 15.974662940015172 9.868439528410613
Na 7.932977028568323 12.9591278872074 9.089197650391968
Na 8.664796225247539 16.184842461429085 10.270467805759207
Na 12.350298332143664 15.075707219866272 11.095070871609119
Na 15.11832882488547 12.583168273594643 10.551285522055474
Na 14.84210238508862 6.789167721240545 9.838762911313488
Na 8.197353656085207 10.074491999878262 10.987434205839504
Na 14.359707057694267 17.994116292135008 12.39179264848488
Na 17.299904903306608 9.83865060965403 10.341560727464412
Na 14.06901128166294 9.489765833053085 11.677565512288455
Na 18.35557097405749 13.608081504159149 11.59045505039105
Na 10.886490696191895 9.691557183790648 13.02514426897456
Na 17.82782852041083 17.146232300310608 12.968473895677485
Na 15.33652502845214 14.783948586681479 13.268796347895805
Na 6.349933248674833 13.567240178779814 12.44355454569145
Na 7.773461339649891 10.372522360975589 14.688348194999215
Na 10.870878554256015 18.15414491632052 12.202385446919003
Na 12.594424024056623 6.630434335699351 13.0889882412711
Na 8.676099153619012 7.107797926714221 13.134931875064785
Na 9.649559037135054 13.223210692251879 12.684989469056742
Na 13.056688435276355 12.352354445231628 13.2860966146029
Na 16.544993348899368 11.262603674973553 13.75025056790386
Na 16.311971506993164 7.473380217923831 13.172067525614885
Na 17.91673823293144 14.321266555211594 15.43669643894996
Na 11.86368635901871 15.471657649366133 14.759163817999282
Na 15.299394604611225 16.867910069885944 15.908381809501426
Na 13.806628709214591 9.405686483183068 15.343559959162528
Na 10.452202136221208 8.234627195856945 16.232846110982056
Na 10.941872011616452 11.837192511911645 15.794776636124686
Na 8.018638013809293 13.714416120449222 16.0521467725142
Na 8.311415636899785 16.358693023280814 13.784018442391673
Na 14.402047576391565 13.15605558443658 16.479428007224325
Na 11.094147941683351 14.079746660823238 18.299300389643957
Na 12.436169078335361 10.652508818684568 18.604814469402985
Na 8.711784402508073 10.975218108510134 18.280754185796155
