43
Energy = -44.77439421 eV
Na 8.10630963540557 11.789789147531597 11.69883201627752
Na 9.571629737424795 14.433129857656114 15.437686014457292
Na 11.080026959145254 9.657111385843885 11.888761038373476
Na 9.536469117375297 11.13560860132749 14.76393676942887
Na 9.815658937194288 17.45536110794403 16.99346872968644
Na 9.712294008860427 10.524887516727341 8.868719346261095
Na 8.448519761250314 15.218820956529093 11.846043929977075
Na 11.904606934640604 14.761939960074864 18.059718080814918
Na 12.612241721398782 9.355978814337007 14.988302676146505
Na 11.341459153596169 13.130381612790154 12.43517521595574
Na 9.579681823285151 17.796926145504596 13.66159578222602
Na 11.368670078920418 11.404534399410798 17.693328966872553
Na 14.436229926282852 10.783307977120852 12.28127547766508
Na 13.03131340102739 18.12956964362452 17.625081842435023
Na 14.506110351701798 15.740956882900049 20.09920362274919
Na 12.87063509569826 11.627846606123992 9.319908585417227
Na 10.214137175712326 13.96480492596742 9.186906240069405
Na 14.054919203211734 9.15970040902447 18.117981491246276
Na 12.60109273983009 16.150953673385963 14.53900869544877
Na 12.57007512703543 19.321650819195064 12.861139289469815
Na 13.581702122801861 12.792918213547589 15.175845644202708
Na 14.844496043880596 12.642941007922232 18.514550325232356
Na 11.813366188914562 16.414180655807534 11.08578644473864
Na 13.995316792461306 15.036950886001788 8.72540435174063
Na 15.294165736438147 15.591042839645954 16.53658953948235
Na 16.099262710122645 9.967211631206775 15.099399943357062
Na 17.295156854275305 10.094363711963577 18.283063484338825
Na 16.233014358407058 18.442464188071348 18.722390393019605
Na 14.67052383642573 14.180562602287713 12.003487979693574
Na 15.29484678014907 18.713570392930123 14.839590140697595
Na 17.426162227701912 12.94022564597772 15.986120083363128
Na 17.792379998767608 15.227538332214612 18.97904406782833
Na 15.168049947288837 17.59203682304862 11.311655061856987
Na 16.22404238694649 12.132957853557205 9.428141995228263
Na 17.33950279219974 15.560541110030714 13.581845338390613
Na 17.327270955580335 15.416136652367593 9.617098908353453
Na 17.697989881547443 12.097726091363015 12.595264306840383
Na 19.744438890613356 12.422120842970195 18.728789482606487
Na 18.428630121122488 17.692921694770046 16.278208765909486
Na 20.31136839787824 14.70844002231679 16.36634500414151
Na 19.983449010657154 14.402553773112391 11.482531183829089
Na 18.12614707153201 18.91433931895139 12.838357268262497
Na 20.746375683666123 16.93002212980136 13.801189562632143
