40
Energy = -42.09182814 eV
Na 18.13299649363052 20.919442102491068 13.271793973961259
Na 15.064702949446353 22.413564710793587 13.64296468782141
Na 15.848299367982822 20.02639468836224 10.676657422575273
Na 18.81668358269971 18.184165608066806 15.35686681384813
Na 18.11142692537755 17.527256378347538 11.930683528151295
Na 12.600295252346545 20.62930004092426 12.06127901135167
Na 16.445834631145917 20.786259072572626 16.53927470655409
Na 15.183633697465373 18.380486657647857 14.057191354405425
Na 16.35240732702323 16.278512575547033 9.112148120002876
Na 12.73747090536319 20.531183787446285 15.741529178237343
Na 19.929118859537535 15.426068223053836 17.507956765169936
Na 18.82005358720685 14.221371108945984 10.658070509683629
Na 19.20001798841105 14.800795837714972 14.059175919428265
Na 13.47251735237845 17.285892161066933 10.871677148873982
Na 17.930885812844863 18.246898054088362 18.73707070885545
Na 11.37053498152748 17.80142504831393 13.669135596148042
Na 14.377112574016582 18.146450549016457 17.857448257655427
Na 16.473999140826734 11.959208713069765 9.52078257370912
Na 15.634299952997532 14.749029824194054 12.578820257966425
Na 16.565778221064747 15.534533684707474 16.526073676998333
Na 13.17913909436145 15.356914101070524 15.623908021643478
Na 15.75841523067582 16.190926373398245 20.543571019990125
Na 13.676132837403818 13.931541516899436 9.433511167339095
Na 12.30144584645572 16.059173911349152 19.986563290731898
Na 10.870112129694828 17.647863242867594 17.1897544223395
Na 17.64858223308207 11.594418939805415 12.876653069877985
Na 11.856605167909192 14.393574791530385 12.311966169466585
Na 18.552341500481543 12.15910032382268 16.36914213695784
Na 17.82295800312405 13.554606169069915 19.58085763791889
Na 9.633065166879925 14.893569652254985 14.98566088412298
Na 15.025613950491449 12.138644454007741 15.444176615520345
Na 14.360673045409525 13.433302915262772 18.773959430696067
Na 10.900428994278702 13.533123956346607 17.94656744878549
Na 14.022375405026201 11.328890971336838 12.071610314465104
Na 11.47513583620115 11.812026276228048 14.754843073559682
Na 16.81441177017436 9.000023707036558 15.28185462979732
Na 16.239984356549787 10.313432434243234 18.58391603885983
Na 12.791935579990861 10.266451986040517 17.836641956737335
Na 13.43746650107537 8.77054560459694 14.638375048436673
Na 14.718319762421388 7.208170019697434 17.5577306396829
