44
Energy = -46.29623095 eV
Na 12.158983263980245 18.336347792712925 15.069276369135602
Na 14.377394918747397 19.60275995856018 17.657974103307648
Na 15.944614382319193 19.100582092605283 11.034904725337551
Na 12.220735210517951 19.378992189542316 11.469858598368429
Na 17.064220622223 21.156731425403617 15.957443405657118
Na 18.525538500882163 19.627276578625374 13.24965587501565
Na 13.652617702398663 17.17765475217906 9.123664928482382
Na 14.450263710839732 20.773741144027973 13.777592654949073
Na 10.054313107750191 15.653360372231168 15.88754269658759
Na 10.299231793009268 16.666856735835736 12.443383314757293
Na 17.247336755098704 16.761399152343596 8.665341040326524
Na 12.07347732757384 17.125741823251648 18.468811003355924
Na 15.698426101020193 16.756120368565348 19.158529744261998
Na 17.56301081481734 16.213664146413873 12.113900898310261
Na 13.853295950826974 15.352887901059265 16.074016275236026
Na 8.412587214143793 13.94711382598293 13.352916041211227
Na 13.872838281281691 16.29415961479183 12.539693628986804
Na 18.358834061588805 18.351758813207592 17.505479937037197
Na 11.710703584070545 14.336851226677952 9.985566138753706
Na 15.353641085707126 14.14194044011909 9.966322478605028
Na 19.775760917240063 16.75200008324146 14.746266139786806
Na 9.654138930236511 11.928756584289626 15.782823654123542
Na 17.39246027508954 15.010287051979615 16.44705293873408
Na 10.031414006057574 11.518885423329657 11.273936735452105
Na 11.562861976965273 13.636223207551255 18.21234574794858
Na 11.893474153008942 13.52531893733472 13.502948384126775
Na 13.37396556701437 15.016572793134225 21.079769717158545
Na 16.000594174999915 17.804172601532176 14.884224019281179
Na 15.612040751052573 13.443986567311516 13.52369883611776
Na 19.00100408896153 14.064626351818749 9.84783655667599
Na 17.181106542458206 11.367619371194786 11.048072669451676
Na 13.538151919841194 11.759495749166847 15.969950629101794
Na 15.431857759608437 13.36961113430383 18.662538668483478
Na 13.554096185209424 11.47895214088735 11.022402040681689
Na 19.223540659965586 13.434860129415538 13.602842145870635
Na 11.520216411755456 9.67545287336256 13.773825572932717
Na 11.317930176084994 9.844255063050923 18.004170536300773
Na 13.118121048201884 11.603976190995315 20.532093514107796
Na 17.226215202914585 11.646420844507258 16.137425905974553
Na 15.294078156939293 9.854430239710169 13.575222030504767
Na 18.975307926414978 9.901684320149366 13.663722947938469
Na 13.540089156147912 8.027245966495448 15.950092019951521
Na 15.262148863533884 9.858256828846493 18.453162926549954
Na 17.151105161665328 8.11698678514093 16.090968260965518
