45
Energy = -48.33838869 eV
Na 16.388780503234212 13.243828897768227 13.470392488627176
Na 15.305746726608476 13.793290280040397 6.203914882477011
Na 11.36207371823939 12.983404592519364 19.038532164714397
Na 8.11445794199516 11.452024806074602 18.205001122721917
Na 10.4127248846117 16.67374769595659 10.99244308634249
Na 12.513198108203197 8.448693233628507 15.183248104823699
Na 13.80350981358147 13.581702959709434 15.83558563845816
Na 16.676733145083247 16.614107498209247 12.54931985553088
Na 18.544644508254567 12.604732318023983 7.8978989625415235
Na 13.749794915025587 8.526032162537309 11.511306948386707
Na 19.16165891607301 14.821374709384015 14.802166141929622
Na 9.441060208670589 17.74865472998348 14.569238028093613
Na 7.68459429718367 15.009931158010769 12.476505006409477
Na 14.180275328508312 10.687437313325752 17.76102211947849
Na 10.021000499796774 10.441059749230321 8.961507120891525
Na 10.846861396333889 14.61246505450967 14.277385722121828
Na 12.795239880855481 8.56346004724475 7.974147742581164
Na 10.17230516972228 9.827310344662779 12.620920475520085
Na 15.68588492536929 10.592134953628952 7.517182487247321
Na 7.823273919893143 12.043016605806457 14.49293443543735
Na 11.031465133208803 19.86083135810873 12.152151109545748
Na 19.227335403442638 11.267439186803623 13.957672187258364
Na 15.964904413028776 9.788215049083094 14.636723900369404
Na 13.791837563159147 17.897469519455658 10.527944185753212
Na 13.57886394270464 14.734621943629843 12.06180405133237
Na 12.539513532147545 14.967930188268172 8.507108534018553
Na 13.350335248900938 11.703711040008518 9.787485897661693
Na 8.647719117648945 14.731036369190708 16.864005997456662
Na 10.55923550108137 7.1544434040643665 10.43436172517613
Na 16.0149912406179 16.096539718837203 16.074250370297477
Na 19.149480823311677 13.718386021456746 11.2538004941779
Na 13.155107296560017 17.584443053206005 14.066253192996303
Na 14.797976309960555 14.184863500387966 19.048679624834786
Na 16.03556147676093 14.270152016693903 9.654475346335964
Na 10.97371672956367 9.348609511053597 18.754490325745124
Na 17.226856624975447 12.522355625077852 16.872347396933225
Na 9.054526110486174 13.992233883412029 8.481325203306515
Na 10.89439131146786 11.526488733125476 15.975284156034734
Na 10.501802331207312 13.028392190890322 11.33572138932886
Na 12.02947204158692 16.217408275285347 17.283488194498982
Na 13.25277953747623 11.479844568918958 13.261289915645698
Na 12.168213701314054 12.015513776153822 6.514522973402071
Na 16.77092141917508 10.863995035072643 10.970611843861404
Na 7.329616688093666 11.624178283026119 10.94416243923551
Na 8.819172504145701 8.702103447803577 15.789001819728298
