40
Energy = -42.85013331 eV
Na 9.569731541238308 16.69624469366287 13.03968874226859
Na 11.909879113829026 8.061067697150474 14.787318520992601
Na 11.621739098929496 10.005646214968053 11.644778188134065
Na 15.724340282872655 16.373339890339377 15.553676582932722
Na 15.36456585813211 15.455699575305381 12.06183116171479
Na 11.471663140764718 12.379200764960538 8.665462446410325
Na 8.835490468819954 14.976875672760494 9.675315708486533
Na 8.075208103700817 7.886779329508983 15.766146136501435
Na 14.481788306362912 10.120251330146766 9.324788079801008
Na 13.668252846226805 12.613783946959687 11.593358126111216
Na 9.176714757189968 10.588462876214518 14.057121934257726
Na 10.306342412087458 13.276756372496466 12.311131778067626
Na 6.965161156435316 13.37069347489822 13.122742462837353
Na 13.6853081872119 13.512112546683804 17.447746826687975
Na 13.306813817718828 7.022598428024024 11.142646862956495
Na 10.715043264325974 18.426616484736044 9.853496176865223
Na 11.808578678107724 15.761786164868875 7.3018236872008835
Na 9.17497345416719 7.607220740899477 12.114188110918342
Na 12.5784520185986 15.155517630143795 14.34027012789229
Na 6.07493882188921 9.44050625271235 13.32561889563063
Na 17.098518472693225 12.13174369359023 11.091216532906182
Na 17.264501164452106 8.449156113783989 11.08096302731688
Na 6.8848560909788645 11.303229822683017 16.407886306215282
Na 14.892771840032202 9.50433343448583 13.191763375441395
Na 15.551378590995398 12.896403309973836 14.474794017413029
Na 12.375013536805126 11.600256197150697 14.776805836639216
Na 9.616819300980923 13.851757608649388 15.788609200821835
Na 17.18332933243716 18.2426018542538 12.542519992612768
Na 8.295683767700341 11.076641307496992 10.441624054321212
Na 10.703843029410937 8.630299515625508 8.775107803250174
Na 18.013533057389925 15.930615151625164 10.050785815895853
Na 14.565210552240618 17.623914432627167 9.423809271255971
Na 12.164837712943784 15.556428870831967 10.663116847646132
Na 18.103829854095544 10.559730568454583 14.363167638929918
Na 17.391870397536604 13.144194501456951 17.23631398109568
Na 13.207374152433133 18.302944521220386 12.833409857055171
Na 10.501935748966218 10.342043749844587 17.415523190399202
Na 15.02484496551589 10.143821708512588 16.69179247491848
Na 18.404001830571676 14.671732909283463 13.664642916586372
Na 14.819169892613731 13.885299260412205 8.535305922014333
