40
Energy = -42.89572884 eV
Na 14.137634291251224 11.592541135132665 7.422745613650126
Na 12.968466443327022 15.234829641606293 8.065729138757298
Na 11.984823501785138 8.892879367194569 7.05607861682689
Na 10.285404694429976 12.327988469372169 7.152171312154538
Na 15.221025338034542 7.747786771645655 7.998112861036554
Na 15.353344885986065 13.245098805835584 10.156583637557423
Na 13.099730663650082 15.514443520824454 11.538856151484515
Na 13.554904339506223 9.68640738041117 10.590481725820448
Na 17.130291124812747 10.257266335570847 9.610043964393936
Na 9.846251689219299 9.155001125684226 9.795677878805547
Na 8.082614341883819 12.093406503811263 10.957844419461212
Na 15.99264095474983 16.77148414199862 10.224674181422508
Na 12.486603668504097 6.351145715692115 9.405780431682597
Na 9.846137042267754 15.702705209928908 9.978181404125344
Na 11.726278245616552 12.49963693912098 10.04556996781082
Na 7.785099686701068 8.752878770820399 12.782941131736234
Na 18.621488516803353 13.48510647382479 10.948183345862546
Na 15.490315802736646 7.304236487513606 11.855065911670193
Na 12.468840013086187 18.417084615991122 10.020735784302348
Na 16.734033417151117 10.940632749494807 13.044697167274206
Na 10.617875090546683 17.461210040389403 13.325961911266846
Na 14.426459308764956 18.087687652882202 13.518582920834072
Na 11.490743595354159 7.157627561682539 12.773119985129984
Na 10.382831980286072 13.887886809344236 13.031074185540033
Na 13.641228394012455 12.359245909663535 13.023737692180777
Na 16.269044479386142 14.859223838215176 13.468853167638438
Na 10.74678299806309 10.431802648727633 12.846720256800236
Na 7.38860749547942 15.30130695160927 13.113494734280355
Na 12.964235672847684 15.259267973930342 15.003405385139546
Na 13.779858603722236 9.265506279193216 14.742927515965892
Na 7.97110566656101 11.90468584142614 14.860417031861738
Na 11.542754413510828 12.100808114339666 15.776276875558217
Na 9.580236777690994 15.12732457717022 16.246924890510737
Na 15.158456852751643 12.543921600391284 16.232721427585247
Na 10.06708338701977 8.934516730628767 15.985308832058907
Na 15.510691857056953 16.390722661122798 16.846423865563196
Na 12.171515034654963 17.993419051659412 16.943277860752644
Na 12.61878764802906 14.249443737283334 18.32717135823122
Na 9.39256910982275 11.762493160623587 18.321161662228537
Na 12.791061545513438 10.277197270820405 18.290142367615324
