44
Energy = -45.80292979 eV
Na 14.667924888136836 12.28420193922429 22.31599533640041
Na 13.27321053326978 15.052217632932841 20.567842125847513
Na 16.742231253498506 14.688178454175567 20.789258197416626
Na 12.624982757850137 17.756124433034834 18.459257371318017
Na 12.511674485513096 11.685739258872132 19.54872609805734
Na 15.36570212654136 17.99826469923413 20.819287941370252
Na 15.928993103920826 11.78111030444736 19.064919018518243
Na 11.782859510432912 14.454337850256268 17.55932204979219
Na 10.299364436949652 17.268630580883016 16.01533315434539
Na 18.362748243755284 17.248194190241975 18.950617370143032
Na 15.197640327233792 15.470046547816994 17.60227675150683
Na 10.601658878422748 11.066567356001633 16.837000075545205
Na 13.993934078497327 17.779391982431854 14.895190173202437
Na 8.980528973035122 13.910265733968785 15.713746984027932
Na 13.907384619221387 11.936661250040936 16.08085832091374
Na 15.673546540760874 19.31443834307204 17.61221562920844
Na 18.338263324807397 13.812615213027017 17.776611711966083
Na 8.528277072890722 15.848357586629362 12.949454716676403
Na 11.067562215686078 18.152396875537907 12.765252678545954
Na 12.089829147393067 14.900714268044041 14.113983838728034
Na 20.563279658482497 18.940548098236903 16.9683273688778
Na 14.871436723510428 21.213522544670187 14.721033345376602
Na 18.124427957438332 20.70278636333009 15.447187063486725
Na 23.066710832412127 17.56214442106329 14.910135263787017
Na 17.609692400767464 16.838721920672736 15.497765571004642
Na 11.863420803834117 10.02451357774589 13.76610473022551
Na 15.503713317501196 14.323533501753133 14.2877850366802
Na 13.779419063229673 20.018443272958354 11.75831274035989
Na 9.944859773588265 12.605651396694137 12.466087526050334
Na 16.88858460921623 19.11921580635963 12.502963928545663
Na 17.285851620475402 10.695609204558188 16.18556853676206
Na 20.928548442150298 15.473659235096477 16.580934653741398
Na 11.208692365584419 15.267897253410059 10.63576769253918
Na 14.517993544286877 16.335324071878873 11.465600432229913
Na 18.81910753176412 13.285845336921073 14.462592164058783
Na 15.207913266089282 10.09545063403487 13.314758747668082
Na 20.037570695601055 18.380907426882317 13.41368552249158
Na 13.336039249467895 12.723380405874371 11.690742650822926
Na 17.98310523084954 15.856004098867157 11.956072422807816
Na 12.227508736490817 18.219947646157785 9.407607080757991
Na 16.67714655409652 12.692201676667214 11.33056135887971
Na 21.371353888659446 15.221017031237187 13.02621060469065
Na 18.61513941114688 10.030421051309617 13.019224243521952
Na 20.019044691314498 12.71178525089789 11.261355805961726
