42
Energy = -45.22423769 eV
Na 12.670054988325115 15.171780325406896 7.472109627681496
Na 15.560422862574272 13.601551704245038 9.107720251350564
Na 9.453073946151669 14.110483750612286 9.393927831342046
Na 12.169797674311852 8.112987619349296 8.41362035062237
Na 10.785938830524803 17.593837705325882 9.199941816798102
Na 12.363455716469693 11.815102609703521 8.940189950977794
Na 9.247913455724463 10.096078881136036 9.932803842155144
Na 14.897326520166251 17.185659838877115 9.757574648860835
Na 16.171059656149062 14.803509367835925 12.503296758447531
Na 17.86486499582082 11.949766326167008 11.601916520498108
Na 12.596446388298103 15.059796455330186 11.073987453082456
Na 10.687641019238763 6.293077427306355 11.261933572427136
Na 14.293339183836318 6.4327309000374555 11.137114196740535
Na 15.365770165065292 9.706765179961103 9.680667147544707
Na 18.402234562576655 15.748773463181966 10.18213033372916
Na 9.466912894977614 16.343122104283225 12.322980144716883
Na 10.818215887212936 12.30958781254511 12.134720569802194
Na 12.39560589799994 9.247914631876293 11.56730786136258
Na 12.57707836289469 18.760806396381824 12.197238329622587
Na 14.255193507005927 12.102307053104044 12.079297459337822
Na 16.608523383839852 18.18954437145577 12.949713100992684
Na 7.700668655737112 12.915317927865713 12.689350549342874
Na 13.765845711906886 16.36417002978852 14.117425597114826
Na 19.459307295074833 14.759218044597283 13.567515411420874
Na 15.721751852874883 9.25832824008653 13.397882676363665
Na 12.723450421514007 7.200497290306081 14.393911108680822
Na 9.42276347218134 9.199192272186869 13.577536021575842
Na 17.798656486890074 12.054283839297248 15.319691830154186
Na 12.324054255754364 10.745102462164423 14.763833192226365
Na 14.571603443170293 13.191168495072962 15.331447195364719
Na 7.802654685054284 15.463558177523952 15.373231425645336
Na 11.195802003960855 14.263447347132088 14.899562119626482
Na 10.86963230594791 17.683989747781474 15.538355201604448
Na 14.395322141573377 19.473400312596638 15.40825054688054
Na 16.820782035726246 15.865017172695918 15.96768003848153
Na 14.885551156632332 9.910323685311285 16.8838999572595
Na 9.090390632039224 11.881197881229397 16.109013204619636
Na 11.07828254943053 8.818522001443405 17.22111348184844
Na 13.41800523200038 15.764943339561075 17.579838074237777
Na 15.984052476650293 13.175170255672331 18.485851258021874
Na 12.298957429498937 12.309790892166038 18.114001877331656
Na 9.878574949829957 14.925155754008598 18.207396556717537
