42
Energy = -43.81575561 eV
Na 16.07073156200875 17.859942963759362 9.38013857639079
Na 19.280813388166592 16.544891275359177 10.57684228569804
Na 19.603641969645473 9.56757281513105 11.989683370030834
Na 21.860491722522454 14.884375339153076 12.817130228976712
Na 13.168675302236222 15.881853121953025 9.993604881132741
Na 19.395456407531874 13.01087747938234 11.108557146339122
Na 16.287776555176194 14.616484346393092 10.838056685219565
Na 13.413293541341488 12.699821500409213 11.486517766716753
Na 10.486365608444217 17.951582575376 10.88153940951201
Na 13.74076265763168 19.00510610558088 11.802749146236582
Na 16.995895453420072 18.028734955107417 12.815457146447612
Na 17.401891309965954 9.758795611179478 14.600529170737465
Na 20.315131712716877 17.71924362251055 13.762924334415722
Na 10.864880374560629 14.800756383343407 12.441195194650966
Na 20.318603089350546 12.046869973879883 14.307786483671606
Na 16.493673820183055 11.22438096519794 11.631435089710058
Na 20.720593835477 15.017326548191692 16.18513761956303
Na 17.991206952187472 14.82699040664824 13.926365935892452
Na 14.266399072179306 15.786442467625942 13.423904379575385
Na 13.874145491286109 9.668919898277933 13.316391337419368
Na 8.114997784915403 16.924210040462448 13.270282971737126
Na 17.922988741800058 12.615922791684829 16.714445098623717
Na 11.490244905386012 17.95113880884534 14.248523040188326
Na 14.733966104388578 18.982273575314075 15.205154000524795
Na 12.032400033499828 14.613639959303978 15.828916567219823
Na 11.177727622554581 11.58816344632019 14.235736858284348
Na 14.939426873174645 12.594468833657814 14.880736263644824
Na 18.31366833478641 15.494283924325261 18.658153862189717
Na 15.50034809238928 9.898283833983236 17.31029273154431
Na 8.520438947950357 13.798972330920064 14.827845459210147
Na 15.296115680379256 15.489578270388341 16.858360202558956
Na 18.02740549352091 17.98488742229138 16.16852411923778
Na 12.453492667161495 17.717323146055506 17.531272746082017
Na 15.7205297038146 12.649989602456257 19.29307146637488
Na 9.17578569130428 16.829390116783326 16.598182428278385
Na 9.534830216979625 13.317335485466852 18.177097689908653
Na 12.486642515212587 11.429146020284838 17.510889128323978
Na 15.664370066704171 18.68555225168396 18.56968735467565
Na 15.71483574387599 15.74318610865944 20.703281264921028
Na 9.994901861146074 16.42448719624425 19.909826571703064
Na 12.810254489621553 14.478703776252289 19.26659199963577
Na 12.985353122590503 17.715709727989584 20.990717918620447
