49
Energy = -51.44746492 eV
Na 22.37454340775213 18.06382992003063 16.29329662628544
Na 20.303912680112262 16.28549036248266 18.518145346160374
Na 21.11521609495518 14.978234914664245 15.22986604483715
Na 20.003726107770905 17.909143864653775 13.692982992564662
Na 18.998597578928493 19.140894742389168 16.69569559482384
Na 19.434877817830056 12.940309698099487 17.55882407198421
Na 19.92525917687279 12.086236327688571 13.956188342506925
Na 17.69743421874663 14.623019840190016 20.072546652406945
Na 17.51662597990027 18.07030170926654 19.620699301391255
Na 18.69691480245688 9.872940022257389 16.256251028340657
Na 18.109773006160975 15.070855598946716 13.162116678576249
Na 17.258528562544978 15.88272608406974 16.72106911167401
Na 16.42735841826749 11.196922282126437 18.52488132622813
Na 16.551062741122703 18.3347908575228 14.278360811023113
Na 17.935845457632567 17.954023229246346 11.050368832682821
Na 14.372306496219261 16.46620989662664 20.11719848247398
Na 15.800870249240955 20.14652383713048 17.26310981598063
Na 17.13083454871023 11.99093391270203 11.798064220857905
Na 16.525248976258503 12.751649275736634 15.294830516233295
Na 15.16192794617224 12.827378859685473 21.25897479463367
Na 14.812419302876023 19.911520570278924 20.67352075261301
Na 15.965252194155092 9.372934191920274 14.370767364988907
Na 14.262327175621005 13.855920206706605 17.877002761062197
Na 16.67840117162939 14.914200626086709 9.923180949793682
Na 14.004400045231561 16.854529933837416 16.27532440564333
Na 15.819669990681971 17.913054633822487 8.290364997615292
Na 13.456603779920467 10.704518126520492 16.496325922312998
Na 14.910240072614448 9.468297334691648 11.001428278190712
Na 14.660276920141905 14.83186795000461 7.044859164907251
Na 13.742902108910162 11.961977790182766 13.25560372875607
Na 12.499562454198047 19.254419724166244 18.26480241485029
Na 11.974749949724245 14.439464147967085 15.125254275531562
Na 14.55642276704759 18.97983459885101 11.443831336865175
Na 12.016512556952078 13.850427481226118 21.022277789476718
Na 13.309116237240252 19.918673383664913 14.669839611652575
Na 14.040343598245132 12.65870952379735 9.783783385495992
Na 10.982069199065673 16.061612715164348 18.775629307093386
Na 14.633520988179027 15.401458112531575 12.9876764824226
Na 12.618115400928984 8.541116394480966 13.814322637315565
Na 13.044114362374652 16.136935603404694 9.80234121547828
Na 10.452332117824543 17.84858170840425 15.88302129808127
Na 11.435465362002391 10.23577311678745 11.008088151411174
Na 10.949569643056112 12.408463892555726 17.946667207514388
Na 10.363369610124858 11.357197012979885 14.537905561624157
Na 11.709153721802545 17.50147843373733 12.667476314019858
Na 8.677037684480414 14.651276088257852 16.61225980909177
Na 11.125843678746321 13.63345732502806 11.611954884502307
Na 8.93964776896507 15.627243626454781 13.421239422129428
Na 9.532090742315477 16.36080890680544 10.128284694728663
