43
Energy = -46.23109003 eV
Na 11.354593193866846 10.572974932880914 6.419518632343678
Na 14.27323320680662 9.980048431429722 8.43505980516214
Na 11.225585915215603 16.892650513040437 8.327042693606087
Na 9.45254562902541 13.549080916937285 7.515077603141813
Na 13.353518649223226 13.777739188827418 8.030232750977685
Na 17.0042643748386 12.420919686657294 8.410052319950596
Na 7.843913261924189 16.3200106102678 9.37423749526381
Na 8.384531931152143 9.933873637378557 8.377229627176833
Na 16.618171582252568 15.674641996418773 9.448775516010945
Na 11.296728212149198 7.9099854478071565 9.343262251574176
Na 11.246415586909686 11.409190350017049 9.720570090178919
Na 14.552107113177717 6.598074907132661 10.547837716863253
Na 16.86768101090198 9.627763382866013 10.95246062584706
Na 10.316175346808238 18.021627424072552 11.689618706184536
Na 13.537607872024637 16.14463801950166 11.149971397653376
Na 18.301190164028945 13.363461663637988 11.70396909894888
Na 10.566081457970403 14.570144013819682 10.755531551845658
Na 14.715626760492167 12.772669449716217 11.137990490967036
Na 13.40757939633851 9.537690854418285 11.825286633134477
Na 11.73270644481252 6.817192545847152 13.1557296691546
Na 7.688883486570059 12.696890197385017 10.67612660390933
Na 11.531195082894191 12.119362961150543 13.062309098661771
Na 8.294836317663375 12.43353801011021 14.274786856672726
Na 16.715641629200263 16.37497695696875 12.964179422138908
Na 10.856588169366113 15.345315299541342 14.057047731695727
Na 7.556468925548598 15.91605928456981 13.01671626598639
Na 13.309240111040175 17.9228836370733 14.232105856290824
Na 15.36513055475644 7.465473961085637 13.959739199900364
Na 9.731803944738925 18.37468350904408 15.214001746052322
Na 9.287047454284258 9.510731154038883 12.009728397559407
Na 14.160611143780018 14.158665259450554 14.330364703489284
Na 13.242268951829562 10.107968493414603 15.25830800376577
Na 12.831149206240253 6.8911976567583855 16.627712232344294
Na 8.475902620093727 15.252111241438532 16.63545605984116
Na 16.22000919781177 11.104423104272618 14.059759280121902
Na 9.996524371645616 9.203848570426459 15.62014437100676
Na 11.136685994763946 12.65322081081311 16.599324623517987
Na 17.82588944759012 13.838187605019291 15.317138834839088
Na 15.68056531602239 16.343552427531062 16.581889660034253
Na 12.154350771924793 16.01305254354399 17.188682643246132
Na 15.83059380522867 9.01249850876997 17.206658749153974
Na 14.817995387138888 12.651297579667068 17.372972044988963
Na 12.412302520340305 9.887624775643811 18.587334459188924
