46
Energy = -49.85834515 eV
Na 14.416516522974105 16.680265027052652 6.263107656267929
Na 12.867601833631978 12.896133771112028 7.702329790826523
Na 16.66967822049304 14.018409672963122 7.711664569687122
Na 17.1591060028998 17.671005854291185 8.370649765035814
Na 11.246481969879147 16.557017619014744 8.290400836042112
Na 15.981364484858792 10.47432699127501 7.714202805117091
Na 8.7770389499046 13.239689150451564 9.335656362386914
Na 11.241354595514542 10.64722248612233 10.415481044577197
Na 14.47685622535923 15.896048446672197 9.549272834977742
Na 18.294233979384213 11.790965883427178 10.224281436239815
Na 13.62905858836526 8.307769176902582 9.381704841216981
Na 17.638186165790096 15.080941680764244 11.290594643213085
Na 7.84937040968528 9.791108736294781 11.661508131045306
Na 11.758982777484299 14.204711718219652 10.797213907843698
Na 12.23165978223476 17.821485242810787 11.827365054092606
Na 8.80650164210816 16.13434227835983 11.787812697192367
Na 14.828072872814513 12.070794757252882 10.50785110581099
Na 16.719422180598382 8.822971353040934 11.333598300376094
Na 13.891913734343396 19.256640109065476 8.773240758283235
Na 13.720064300513618 8.755519288723002 12.792366369293065
Na 9.379030587756446 12.698051055435963 12.858300119131304
Na 10.72168714418489 7.125494834444478 11.731913804263279
Na 14.651987312910972 14.986162737620075 12.874695499256934
Na 15.850653269792842 18.349275167445406 11.734428282062904
Na 8.565862931428304 7.104888538019966 14.979506943546555
Na 12.794061091650631 12.083405638082985 13.27950547663923
Na 10.547850773216952 9.61943848649474 14.069763913417974
Na 16.381286817438895 11.748321374348167 13.742994572702877
Na 7.510016956031361 10.831757524863919 15.245984699564472
Na 11.39559921278795 15.215795247879244 14.165817893792122
Na 6.188858716775858 13.297594219037096 12.17157457351788
Na 12.28087639830476 6.7971511784936745 15.540797669692777
Na 16.173929650147524 8.335803771805592 15.340842005751544
Na 8.081349491154931 14.930255187879334 15.291355206672831
Na 10.181591276930845 18.201721601134626 14.913840093055956
Na 13.428617456908647 10.225615427222406 16.023402405859866
Na 17.124740214569705 15.095649549582923 15.385327578173847
Na 13.986670872531008 17.339969275504423 15.500952976848573
Na 10.540717886653022 12.46860726698104 16.31603456672357
Na 13.973666013793544 13.70850073864784 16.057264335948805
Na 10.347018841271225 9.063767682361961 17.648900132940618
Na 16.36991705150583 11.632145311069763 17.49681769230862
Na 11.455761184281743 15.655676986626226 17.67070851295234
Na 13.827119272104383 8.255563407182914 18.672942709531593
Na 12.93931058144015 12.012613854493681 19.00919228768643
Na 15.255490362210782 15.256541300144155 18.70396974505109
