45
Energy = -46.62788239 eV
Na 11.553816499749672 9.583390712010178 14.388996267759744
Na 13.114569898038376 9.400551451496344 11.313893743878594
Na 13.221105457372998 9.937564559917393 17.31414387593052
Na 15.1447094365782 9.110610356171122 14.266845858533248
Na 10.951284259983595 12.290508900211051 12.430102830169442
Na 13.25531847135611 12.40758949043187 9.607506977322751
Na 15.75370092102126 11.80111718110676 11.970469074112998
Na 12.38554506651022 14.789505983263092 7.451511216722262
Na 10.688566516740327 12.537200243884365 15.952731581096382
Na 10.532670664659552 15.125759644250861 10.404568958701576
Na 13.48914875065051 14.681386936946337 12.395678230689711
Na 10.243287868969006 15.392436827396187 13.962710187683225
Na 14.528346939484402 10.234291698335095 20.3871596927433
Na 16.16880445742869 14.734656620397336 9.953534415201155
Na 15.9674196145292 16.786597640223725 12.926877833734578
Na 17.673721220791723 11.42017163737484 14.813374012754638
Na 16.014495785707446 12.354182401701777 18.01955352842164
Na 10.324201401134216 15.552261825230277 17.55429154948008
Na 14.066997826575742 12.463752357056139 14.960043028687362
Na 11.392327813323842 18.027499826438007 12.075350486330573
Na 13.66917198291181 17.088871395605608 9.550315399507879
Na 11.510279235265239 21.182064392797294 13.338708752585436
Na 16.774694660429297 9.024388458991488 17.42398545100759
Na 19.383102516937075 16.984788967080917 11.24619120806567
Na 16.8491806907835 14.71732701133458 15.579949866683272
Na 13.518333201254746 15.950538936307478 15.74322241095125
Na 18.504417988869424 13.894566082282546 12.521911208052439
Na 14.250539883303214 19.979600918393814 11.416646802467108
Na 12.595540222002642 16.09420203571055 20.3205125818016
Na 17.42598836029898 19.82660165206995 13.206038636287808
Na 10.190840891354512 18.53236364631003 19.20984481243066
Na 12.68307115614776 13.060412599794239 18.662998379613793
Na 19.35137758859969 11.40235899022982 17.91813241855511
Na 21.801898400039338 15.162807195209908 12.758925616739445
Na 10.937112436370832 18.563585252525336 15.679470360576676
Na 16.86335990195753 18.503533352455122 9.709622247156442
Na 14.908864847421281 13.659704984426433 21.3489008593221
Na 13.59010681571172 18.67432705539346 18.116339563990216
Na 14.191007443465384 19.586848945107977 14.796671756047845
Na 19.570468848245795 17.142649312573997 14.690305351081905
Na 16.784912644162755 18.266372227965363 16.474409116347513
Na 20.34450118073722 13.77463717748527 15.553629766270962
Na 19.102310425891993 16.19901126776722 17.958297092705784
Na 18.242325174644645 13.804190609947273 20.26494113314538
Na 15.658214402143743 15.870054094906816 18.695186871767646
