41
Energy = -44.24893059 eV
Na 11.203401721155895 13.210454732963699 6.845453370619598
Na 13.981211553144536 10.927822225129976 8.365096460324747
Na 14.404606992348125 14.858356221835612 7.67117711444509
Na 11.256056789344445 16.701004274406042 8.741089549349855
Na 10.592629941647658 10.329324974222278 9.690945770646511
Na 13.357382321622818 7.668216926603523 10.639235228001061
Na 8.81265320515044 13.86885769692514 9.648186270677893
Na 12.2169039577038 13.60069037168527 9.997218802462063
Na 14.296726872874327 16.684191276577895 10.806485875854385
Na 17.99568181017849 16.19515805836889 10.5287837961783
Na 15.939639079514079 13.196773885045662 10.516746193938216
Na 12.002797593791739 19.19098839967192 11.970863409102101
Na 10.49066768983129 15.994278063427405 12.230288504633284
Na 10.998637893750542 8.74683631407306 13.440189203311698
Na 13.383543104308192 10.791193981484122 11.785602906873608
Na 10.10216263250466 12.304263934819364 12.738402344097372
Na 16.69839798813594 9.618041279233582 11.23812323930827
Na 16.491686525782665 18.680616773006403 12.991199500371943
Na 13.373558993777017 14.04500818817995 12.973184326141482
Na 19.037611992214913 12.94406346426117 12.538897948969423
Na 12.704083701805033 11.306300802370592 15.087178845813767
Na 13.491979096953227 17.232671720516024 14.469558501957762
Na 16.59289322364215 16.96423321433097 16.534292980549758
Na 15.97401475455469 11.812955076804718 13.835773326740911
Na 18.17327234899312 13.481909600883839 16.117475021288374
Na 18.441797579270855 9.793499416838829 14.782135051797567
Na 11.180675805555081 14.449935079347897 15.482463343382737
Na 14.717364153850351 8.401290386829025 14.24996858723844
Na 7.904245023258248 14.612158390246213 14.621049250730499
Na 19.504125438918155 16.519969579903112 14.031774536552842
Na 12.1398935755017 8.735948238592375 17.155237448881394
Na 9.401001192527216 11.382559455510195 16.22602279550217
Na 10.008846084344503 17.708936284560306 15.411137816584157
Na 16.47346167183649 15.273455419743396 13.420977799363953
Na 14.599983974082559 14.087215068360553 16.1524026077964
Na 12.716610555011068 16.53685778738079 17.91329590698138
Na 15.533823623479204 10.718039612162032 17.220688228940283
Na 12.206828895870952 12.38442669319322 18.390360443134508
Na 9.294490765235182 14.906698569447613 18.2344599845729
Na 15.30863143575544 14.316370255237302 19.38055571132455
Na 11.985269338078716 14.807679203127261 20.9152728928654
