46
Energy = -49.8393314 eV
Na 11.523391215794259 13.706841098304306 8.53326146820436
Na 9.703930034315771 10.495400951308751 8.490117628782587
Na 8.540486283422908 13.671716181319082 6.924924023725143
Na 15.206608374802274 14.080214307616934 8.092073056251653
Na 17.042952822348315 10.770620482275273 7.10066370783151
Na 13.547020222490739 10.69343978277219 8.554461163470618
Na 11.775713338500049 7.950619264189514 10.242781829651099
Na 8.421221943000162 9.078799355793661 12.105438800020417
Na 9.358185894903318 16.40453499427929 9.430574275148093
Na 16.238469217458995 8.123200250465311 9.617496389329325
Na 10.676848011771389 14.607496768792608 12.084820671482884
Na 13.20806158854628 16.62599549903251 10.392909785927673
Na 8.039256874534425 12.9940432912221 10.411085836511056
Na 18.877065865519057 13.586963572276536 8.788152772825482
Na 10.91578132750745 11.14661236450018 11.705764167204155
Na 16.572443403878715 15.318017517122234 11.35772828663883
Na 16.559394363302623 11.64133415290742 10.33537762968104
Na 19.5159376443611 10.057156329335742 9.777334164481433
Na 7.593289565717942 16.20352959219884 12.802719821914023
Na 14.081298299398394 9.851175567397238 12.1098894572972
Na 13.643171784547766 13.253765122296642 11.203475962108266
Na 14.783992218520218 18.415033959797178 13.53188810694325
Na 14.993882535405808 6.641058020037618 12.713781577356528
Na 17.61142342832542 9.27700849468314 12.821539996258958
Na 15.750128176009621 12.435396099413149 13.662155961943222
Na 10.93172616334406 18.099166196466392 12.86630285135924
Na 19.16296963816007 12.785587183922116 12.39144671133936
Na 15.195893213715408 16.926506091539377 16.945423077178933
Na 13.57110104134444 15.407500996241737 14.221614587250107
Na 11.619914717530323 7.79516184649922 13.751226800241387
Na 10.06276332422803 15.57371380367195 15.315469367599004
Na 17.544861635680704 15.195846066298962 14.791202977062854
Na 14.763479884141393 9.46460351740796 15.596173921540858
Na 11.941850113304216 18.30281018908739 16.314099889233418
Na 8.35969936079741 12.610543227526962 13.962709329693054
Na 12.104402124715044 12.293763082465336 14.814317325118205
Na 12.212682071724775 7.401474853626444 17.135122063057175
Na 8.35253779408139 18.663408433229513 15.527787860682063
Na 6.7336585987939435 15.388221501157547 16.21707028450816
Na 15.14261023983297 13.15766908385348 16.9747347896911
Na 18.207132282175312 11.549797796134973 15.726104224188123
Na 12.326551246513578 14.90035078509299 17.930262661643713
Na 9.222283231230012 16.726998550166627 18.50353058126571
Na 9.726663850798731 9.77734976074724 15.682250388792246
Na 9.274938618127711 13.051679799362288 17.51969015045638
Na 12.393508021126966 10.929055821912447 18.05422522285794
