44
Energy = -47.24843451 eV
Na 14.41466319101484 11.8187860028731 6.877229327151064
Na 12.393186689156291 16.96111034285116 8.267557779887987
Na 15.125776150668429 9.089405316052831 8.938268945306106
Na 11.301863547343855 9.784133019939649 7.144628680320385
Na 11.360670805408441 13.589726587948658 6.972595801508478
Na 17.15987607650071 12.244637835785074 9.424553656855377
Na 14.204569447185547 14.086897200392434 9.475529842363272
Na 8.828191884698517 16.185471392928644 8.157217424255318
Na 13.703864871979222 16.792304186396596 11.830123839615997
Na 18.24184589459244 9.245838709929853 11.001374076851299
Na 12.073667543108515 11.364923264949475 9.95032989149386
Na 8.594604838794195 12.523434166211533 9.021489073241487
Na 10.110029030006542 18.087569366482054 11.210158698729467
Na 17.20970595816758 15.891129424165273 10.141986971585673
Na 9.56901986282344 8.07701286231213 13.622752268831077
Na 9.187524652865793 9.169807669126374 10.112305131385858
Na 12.388137141319804 8.0579495288898 11.097111379381426
Na 10.89724472194872 14.69680271141032 10.398021130097618
Na 19.329045067709234 13.5922335315831 12.323634824354311
Na 7.66478677606459 15.297094058757107 11.802546989903577
Na 15.756411370550786 7.621640589173917 12.876400011871704
Na 14.983535299458937 10.75293583338084 11.898449123055508
Na 9.490991536408245 11.901667725447352 12.736517639399425
Na 16.037630551356834 13.909632380634594 12.739503362577532
Na 12.805753140365125 13.221528392357403 12.84004957194475
Na 12.756090457579624 6.281375623858505 14.226624681387717
Na 10.59213794046236 15.685884765587945 13.71310754790146
Na 17.246779031512823 16.96874983966576 13.579681508930856
Na 8.063979647665123 17.798536095901724 14.484247887672078
Na 12.40655435920029 9.934850878702202 14.33958781222798
Na 17.620035217461055 10.741768221401475 14.225255589539827
Na 11.818612997974988 18.776174224509703 14.456106127104233
Na 11.393870654001185 7.657992324108266 17.09528770847802
Na 14.92359876411363 8.532407912529335 16.366019186955825
Na 7.991621505618808 14.288571803174058 15.62772196033472
Na 9.171424088290761 10.569660952387865 16.327792282162505
Na 14.047997100023485 15.75862825957659 15.31558929755233
Na 11.380395399763234 13.14148565103251 15.913935924516862
Na 14.80510331855695 12.161583428698753 15.80047755053539
Na 17.781629258233753 14.184604828796848 15.75074246877682
Na 10.460869108792068 16.471143613480088 17.108583250309685
Na 12.518814054898787 10.690577563274948 18.2229435002648
Na 9.722180958125968 13.150688046424555 18.87305042687349
Na 13.3410883681045 14.11702214678745 18.588288126384683
