45
Energy = -48.1611847 eV
Na 18.30618522776761 10.768925336419718 17.30911477036764
Na 21.464738620357462 14.236628497964055 13.051132439876971
Na 6.663940768803447 12.584543488120389 9.700939587210353
Na 16.55059736604671 16.4581961622574 15.98526665627057
Na 13.60775546946924 14.28277090032429 17.19035360371996
Na 14.122923298293989 18.284343997752156 11.745719658757146
Na 19.928884980592183 13.151849728814987 19.66315304500463
Na 16.20149756630647 9.494837706794419 10.407624153725598
Na 12.222691539107752 8.604978484326741 15.725678161016763
Na 10.549479448742977 15.862110135197456 17.934054099690393
Na 9.895967750193316 13.846839148666882 9.041260345455061
Na 11.717972959318987 12.90693985883784 11.798630036120645
Na 11.596341384023154 19.53305133457629 17.302273786200576
Na 18.1964026330895 14.847409583148753 13.255172711843496
Na 14.916288603956108 19.744252227353858 15.438385652499353
Na 10.789193989506723 11.917613700919977 17.427031927853434
Na 6.428942998963041 11.542248330062817 13.07055023907565
Na 9.715847516448951 10.810172799862562 14.164060297186003
Na 12.747021865134375 9.335849528422349 12.129809661275543
Na 12.77185056952729 17.16859384394417 15.282929848219757
Na 15.878975896641995 9.426377673605561 14.394382786198296
Na 11.045544020797568 16.583049348547018 11.838977772968024
Na 9.116253102436419 17.327634332027497 14.91244003512068
Na 10.88813851828095 14.348329785445884 14.77418920759624
Na 18.87098821824018 16.74508711417839 18.55586475977043
Na 18.89005886688461 11.246565808961083 13.616690238118771
Na 12.96093100076748 11.192923682595085 9.08793818912812
Na 15.546338012717024 12.320884902685258 11.846792322437222
Na 20.186370399456557 17.24461632402373 15.18075800403461
Na 16.629321548253888 13.972034289461865 18.867359606217278
Na 19.774207336093724 13.97234109074665 16.317695164005055
Na 14.410592144133322 17.41411103619468 18.55395335686109
Na 16.11263923127349 12.630147627468938 8.3128665857658
Na 11.539820527369168 19.954416436670485 13.657114631935066
Na 7.695295593705722 13.7601207435642 15.857739202523655
Na 14.646767842054016 10.839338222106893 17.71199377942095
Na 13.19141163828308 11.744454151270224 14.655057209747422
Na 18.98193351000858 12.783735796366722 10.451956911186318
Na 9.370247721066482 10.558819988611134 10.679927887969784
Na 8.260821124294637 14.353490555497782 12.334097313425895
Na 14.463317747452656 15.152331061316632 13.295245563643025
Na 16.7783497953153 15.771472289435582 10.290468078115579
Na 16.380458696440666 12.888431264174791 15.410471542533946
Na 17.381953901133336 18.25952231386209 13.081770904508865
Na 13.461638236469549 14.984508552635203 9.548007450617837
