42
Energy = -45.11463565 eV
Na 10.995309385062287 13.121889439295161 6.362862416793934
Na 8.742071286813529 14.847851575780936 9.020066257358177
Na 14.519005022736566 13.885995596303962 7.285044822479782
Na 12.813027138460116 10.30164725929092 8.0707456643157
Na 11.995866845418917 16.771604532341183 7.960544042225748
Na 11.148726101626217 7.582123994456285 10.379263794069384
Na 9.39976016995632 10.891881627686969 9.152180418543633
Na 14.727440336419656 8.491797170071989 11.279125536071014
Na 14.935350002798407 12.173697636987704 10.313652768657803
Na 17.67226945634372 14.422484444775307 9.945663210544732
Na 11.84169440288 13.573067320387233 9.548519820827595
Na 9.381562682543516 13.114248223824493 12.096576983787532
Na 14.557844568991124 16.037551275171364 10.432440550784854
Na 17.820675486460118 10.985358736354524 11.418126228920299
Na 12.004536669575485 10.636314669475032 11.533762202437748
Na 12.922066376279012 19.256561288943125 10.34080731508571
Na 7.822474217301632 15.998538597553287 13.50272483289318
Na 12.980557848952035 13.816972455724619 12.715538945620752
Na 17.458338390936742 16.999066459803352 12.799330543811315
Na 10.839562321870968 16.57049501321615 11.464883465382128
Na 16.237473757097614 13.952107813221184 13.256470018236538
Na 8.942287323537396 9.572866409951372 12.886879355580627
Na 10.316431134667992 18.443202938984065 14.737880498437349
Na 18.349164082508825 10.634385443363492 14.77172784074494
Na 18.080754366095814 13.975164309134174 16.13052724763682
Na 13.633427483833351 17.180470033330586 13.716485788169061
Na 14.79614895001407 10.898294062474365 13.920114108862336
Na 19.705193827275554 13.83933134404538 12.95230898093613
Na 10.802989242168374 15.018833709715949 14.870833849382292
Na 12.108998576368313 7.937860891780784 13.966480906013944
Na 11.325105673081985 11.5199306366499 14.762001902478366
Na 8.097709031115238 12.674674347257229 15.479743092948086
Na 8.651839686642196 16.102252251889954 17.20192024052357
Na 15.906300618054543 16.691109006434182 16.242254257128067
Na 14.005728383552768 13.693832826894797 16.17482571996893
Na 15.559094720691478 7.862338167184442 15.372305409811252
Na 16.16664395457971 11.117221592702858 17.331854493221538
Na 12.33534978231156 16.7277755864318 17.39397079261891
Na 9.559714084054239 9.195476961979711 16.624260036089474
Na 12.970864288674825 9.776079881408286 17.202964058167595
Na 10.795084230463607 12.969131393896452 17.915589441182693
Na 12.620482399563436 6.283437381604708 17.011666449029896
