43
Energy = -45.66184989 eV
Na 9.954027697149204 15.092213751247417 10.185778116568416
Na 7.252195407368349 15.248664762164344 12.577068788625985
Na 13.06715317956107 16.800440126419627 9.590647076639632
Na 12.892744822192125 12.994668365446831 10.287321587490498
Na 10.040379783045928 17.688336825629328 12.626953482245058
Na 10.235546256766458 12.960636570503906 13.08968050829882
Na 7.144470710682538 12.440925495260782 14.72564371706618
Na 16.338694504716617 18.206951088526676 10.077906634562424
Na 16.217063217143714 14.68193541513445 9.986075835726819
Na 15.743171491299226 10.970653952854365 10.268494873282801
Na 13.340108553888035 19.19939225893867 12.332201614523612
Na 13.319657929057726 10.750539682054765 13.32029293870963
Na 12.692186835251482 15.437025371299304 12.692589335156732
Na 9.324032988691792 15.500510953477656 15.409614760099233
Na 10.022220725033698 9.81918259282221 14.668800543501405
Na 19.061564648103527 16.24462463100295 11.855266282448035
Na 18.780880299538747 12.441580738550442 11.633841526818985
Na 16.73009291158847 20.395619430693 12.751557976805255
Na 16.91223625242671 9.711468877591614 13.296401719271048
Na 12.365710977649497 17.387947733641305 15.573345242872854
Na 15.810595965446584 16.817021628591878 13.219787337859865
Na 21.794449640966032 13.656792506728337 13.129989302331769
Na 15.67154649526677 13.345511943868006 13.087824697785749
Na 18.661776854074702 14.538387122749386 14.8558196905967
Na 11.438255304425425 15.359688972867199 18.415696466142055
Na 12.979491412873566 13.693254222781842 15.635882133762463
Na 15.029785687612048 19.569370945332388 15.762263128333158
Na 9.865135732553387 12.406226617700026 16.989292742135984
Na 15.833025307831962 15.789532207721182 16.633441942793297
Na 18.454596069257025 18.219437428735947 15.077420887249454
Na 12.91108981276163 10.395482963115946 17.01571546268944
Na 19.64546781431241 11.214868321365728 15.070083558899112
Na 16.11555525661173 11.723019931999525 16.048433365921568
Na 21.700628946896753 13.704792503702034 16.71281884973972
Na 21.65721424183104 16.743481781970463 14.81226387122873
Na 18.394296439198076 13.155192010997814 18.224259132822596
Na 13.84742217974063 17.855724803965472 18.870690789777964
Na 13.277886793185687 15.250311833871194 21.434988046177764
Na 19.731155289621242 16.464353406491146 17.918904613788918
Na 11.671724007168105 12.176801755108885 20.090582953884237
Na 17.259090895040213 19.022965167545298 18.503006472007744
Na 14.712506880443406 13.240907143802646 18.86863499385128
Na 16.753812568840342 15.877175304446537 20.128085457758935
