46
Energy = -49.58233505 eV
Na 15.380200668107532 13.07944202809687 7.8915211377472545
Na 18.04987297745776 15.200634440099902 9.246789558382833
Na 14.802669509794276 16.7407485993744 8.73587957669672
Na 12.205330334838592 14.170414781705485 9.605450002970958
Na 17.577501901047135 11.5659222217171 10.41590912038832
Na 13.831801005617312 11.000461771872699 10.64538461508884
Na 14.253822372213753 19.909809819633235 10.77694010430177
Na 15.396440858680641 14.283873585019668 11.194700147793702
Na 16.9033636193572 17.548484887929156 12.019604218431422
Na 12.346632001717355 7.807624431613077 11.716878681209696
Na 11.368119275789672 17.78953520988285 9.396642000799416
Na 10.282386791746015 11.060094485660526 12.695154503257498
Na 16.142643527279656 8.63868504469179 12.28596751417862
Na 18.629662700269346 14.522125000286197 12.951666275747193
Na 13.305121548814267 16.793690859797717 12.004228830018016
Na 12.545378969640849 13.55342696120352 13.562541563713511
Na 13.514635932459528 22.277779206386246 13.713350279400194
Na 9.9282506188238 15.55202546848466 12.01431993968905
Na 16.066907367322834 11.984168940090218 13.48365270256571
Na 16.80437972162991 21.332607864678742 12.612624637673143
Na 13.312293434916853 10.003398187661839 14.131032516225302
Na 19.431910543288353 11.049460989891225 13.770122372368466
Na 11.200068343421831 19.690095413288642 12.625591349548886
Na 10.728378695601391 7.961344642437868 15.06051274570407
Na 11.652506797938097 17.148737393285735 14.938078352113068
Na 14.698653788723302 19.068874443707482 14.44565621410234
Na 11.794418469481633 20.497115220173196 16.29544221217333
Na 21.03762107632833 14.288967846161489 15.614501204566077
Na 9.316816497901007 14.404219713548928 15.493041260709534
Na 17.91783215996512 13.081873920825164 16.25592798579867
Na 15.189955561634866 15.468692306068958 14.819719849763656
Na 14.121042015437835 6.735884968309483 14.67284405888313
Na 14.495469908608253 12.217998457306091 16.530360338007522
Na 16.712145873656993 9.431547802424275 15.839960273342166
Na 10.203352455711697 17.435927726755818 18.087429073906844
Na 18.07306115575766 16.86318804752362 15.953788119715496
Na 12.378316574753638 14.732171497711116 17.205246131596486
Na 10.856380960359257 11.366149322407624 16.548073906959928
Na 13.911579952423118 17.92977094212724 17.74551617509469
Na 19.29999755655599 14.804866261161381 18.87012925586598
Na 9.648466023663852 13.895676931749238 19.140785738961014
Na 16.60992199802673 11.543739316546766 19.147490492619117
Na 13.42389017067626 9.03796810016394 17.571006299185857
Na 15.748560797461687 14.988148449964836 18.639737614885952
Na 12.942370037493006 12.230355851057915 19.64183702004985
Na 12.4742048327448 15.826608024653849 20.501301412936275
