47
Energy = -50.71945904 eV
Na 10.60409715796471 14.494426573722004 6.414636582591773
Na 14.230560900287927 13.793613316495897 6.498953595346314
Na 16.135305869354198 16.561024742638267 8.174721770177312
Na 8.929990828353363 16.808371425378922 8.478324973290974
Na 11.862825511353732 11.768555083083942 8.209710087149954
Na 12.511515408855452 16.93550803318957 8.174295319770337
Na 17.37712718718615 13.138088503265614 8.445796847972852
Na 15.128675325885144 10.573988719591393 9.40567141573555
Na 14.34527374279962 14.075669330132548 9.912432214713881
Na 8.188824411428223 13.16000781397914 8.765595935609834
Na 14.512854776159198 17.30877244143388 11.439321698420919
Na 12.708800896911537 8.05509222879711 11.037074807044906
Na 17.606514437085746 15.201351490339434 11.372227506235491
Na 10.91949110563967 17.956952032269882 11.422377679092982
Na 10.927352499491652 14.495425748220397 10.377901866890236
Na 16.214887620566248 12.230645050651294 12.481685512792684
Na 9.63478961421775 10.061972922182262 10.247517491340963
Na 12.554320796934345 11.499897846467416 11.858683381473847
Na 18.995400351162168 11.26797667984865 11.159637059249784
Na 7.908825134190586 15.885456694456945 11.877588234606286
Na 15.973606168392369 8.703904840710925 12.411769459677377
Na 8.799415312747813 12.468184457988798 12.630167542371709
Na 16.771566130029065 16.528001502911643 14.604203556555003
Na 14.021758379710086 14.490541200649487 13.417639895869124
Na 13.385755329921103 7.234615664372305 14.518611943405682
Na 10.840078705656563 15.40047670056564 13.820135773536146
Na 11.235996451769598 12.247249828447085 15.049803577935574
Na 10.39521545402814 8.94531189145615 13.662280004696175
Na 18.009187876028772 10.332441660338747 14.941499570367105
Na 15.407998216086538 16.89341266675688 17.884206140856698
Na 19.22607707169245 13.642589272380675 14.188211706538633
Na 8.170585801939701 14.530975411345105 15.665320930548829
Na 9.079154775257619 18.155063196539214 14.688848926566772
Na 8.31583944392078 10.746692173218523 15.994864575117381
Na 13.120975960482543 17.79585934358367 14.91683250668631
Na 14.282903979237599 10.73240947705585 14.987447115431644
Na 16.346915202077465 13.3289595250672 16.164137852146617
Na 11.759668989719657 9.38384319715811 17.10001309751628
Na 13.193476028897958 14.514047256054106 16.71597113659135
Na 15.723997411350016 8.78306952585305 17.443119417054305
Na 18.169930640862628 11.443629673180814 18.353031828441765
Na 10.674664154869502 16.622946646469448 17.548850565548957
Na 10.468501892944122 12.895892283037764 18.35176715954248
Na 18.852060588960747 15.187820199284067 17.578324269626968
Na 14.149062716381792 11.694016779648944 18.6683042526956
Na 16.438825893079738 14.083474800182929 19.92773636533644
Na 12.97576601345639 15.028192314924764 20.099165015159052
