49
Energy = -52.41218123 eV
Na 20.677214895447637 18.766588546923455 15.48106663933909
Na 20.508844043066652 17.33391268225321 18.82926884159094
Na 18.26819965707981 20.540653692058953 17.395643926989333
Na 18.9610464630553 17.203483264929066 12.698233511413186
Na 20.401743491906178 15.186209538796671 15.588920222472753
Na 20.41399321318496 13.300552776476442 18.55226601471492
Na 18.138532917526977 20.677785962323004 13.647436602575919
Na 17.581987747043296 18.835296610857398 20.488591204061173
Na 19.818159574210696 13.591824043842214 12.338034261109318
Na 15.615432896930898 22.122067524335996 19.38684368807367
Na 21.22899066527266 11.798063786387294 15.304198900963717
Na 17.712399999273643 17.051885228454776 16.889034416778074
Na 17.70647938476073 15.254083688135207 20.043369346909515
Na 19.169635475148418 9.820611948828672 17.400796538333335
Na 16.533923200910344 18.753990846899182 10.588893458050435
Na 15.190582146005738 21.832460328607343 15.717826577122993
Na 17.036121704202426 14.798706502409255 14.210324942918554
Na 17.138166017366895 13.138675410139601 17.16483160327677
Na 17.9421372472596 15.299545209004046 9.619880722134607
Na 17.779256314263485 11.314437917558108 20.18715954662358
Na 14.93642167726534 21.494119047468704 12.184159564716504
Na 12.327940205658905 21.605977288596296 17.72853395036453
Na 14.985608603924456 19.086903877846787 18.12417120701349
Na 14.542344176055868 16.72681210270197 20.927101295620623
Na 17.98088029638157 11.060754655285981 14.223403055473959
Na 15.144400048761193 15.614128422712785 11.527987588870557
Na 15.633168096959945 18.302892947355783 14.268762307275777
Na 14.76259520542223 13.037363026888194 19.96628559176125
Na 16.545243022238363 12.232319519335002 11.146930794736972
Na 14.436877658203464 13.831671445666023 8.688899820994019
Na 11.517852559233024 14.566294194701696 19.930716109593636
Na 14.640992212352261 12.446763235997592 14.269097725054518
Na 17.62014113523108 7.683599888662418 15.039810627528114
Na 11.856922271032927 21.39914484544206 13.990839488569742
Na 14.429919896787133 15.72358631871575 17.4731900573738
Na 12.927425025386974 18.549618756119024 11.829708757633414
Na 13.148809519999014 15.551555617915664 14.254346749398309
Na 11.711076176756377 18.152076301860358 19.272662190748214
Na 15.44388154481615 9.998614910216371 16.938404255254152
Na 15.114100964036872 9.173172266228793 12.987205451087833
Na 12.834329304617526 12.692924497312482 17.083167884977577
Na 12.36113282371047 18.600093151266947 15.809081954335536
Na 12.884389155067478 11.780572533135917 11.398249674761093
Na 10.506335991576703 15.6120590187756 16.7750375938772
Na 11.661454424236263 15.063202037734738 10.956762914378029
Na 12.095809287267958 10.062410871572952 14.901592806286851
Na 10.602053602319428 13.211526898558327 14.002700599522028
Na 10.067625693516817 17.24005748639129 13.50729050707571
Na 9.519565581139235 12.176461514861648 17.36625544618891
