40
Energy = -41.62261667 eV
Na 19.09074109488536 11.929241967805039 10.242625541888934
Na 20.041843261179043 10.213360037695175 12.999053289970192
Na 15.840422141882266 12.56020305125136 9.410591514824294
Na 15.346910348193255 15.86151640561515 8.229923331621169
Na 18.009811678332973 15.248821911867456 10.55773933731551
Na 19.011029916168884 13.513825500323058 13.466837236890052
Na 16.649127299556458 10.755888213707882 12.570720767041538
Na 13.456002643275731 11.212077055139769 11.466092790235155
Na 19.989873987143266 11.708204297968075 16.336335080688045
Na 12.96950151777709 14.490298818938328 10.415395283088184
Na 15.402491265580295 17.320495820616273 11.489946402629618
Na 17.824210157792148 9.11411276481741 15.506894827248177
Na 15.487382265984262 14.01698653975039 12.889208398846595
Na 14.407113026355152 9.578309104912364 15.21744541808671
Na 18.00269366216182 16.822034641381066 13.74066659618933
Na 11.348620309657795 9.762107423387203 13.578902752576923
Na 10.678410131089212 13.111373405458755 12.4345806016181
Na 12.637848394538626 17.736581081643173 9.310563039544576
Na 18.7929832883377 14.904941866670471 16.807680408621792
Na 16.401439615103577 12.392014275857997 15.918606222507362
Na 12.70572324011548 12.786396324294632 15.2374984603985
Na 9.019574712123772 11.618314443264723 15.20677299383336
Na 12.700196750937144 19.490950856124506 12.319333463491457
Na 7.565674006896941 14.10770839816218 13.467882804680174
Na 15.321450035719694 15.708148316058889 16.0729834093654
Na 17.719111961577212 18.27243095344402 16.817988075025
Na 12.836403709346776 16.104869125012968 13.675432577440985
Na 10.099941569113483 16.556540662161026 11.534380362538437
Na 11.28490955460896 9.208174400050982 17.053430556209282
Na 15.23543334937831 18.96750225434424 14.608598228868235
Na 13.871464062979054 11.457777948086779 18.276949083931893
Na 15.950081131821385 14.065294831984595 19.100793564004803
Na 10.248686674505027 19.211328537861046 14.61627205625955
Na 18.136145905688654 16.70158658197491 19.89874938213803
Na 10.152842528923145 15.32748557098114 15.772724608201841
Na 12.623852733710033 15.006093414959738 18.427782387772602
Na 14.861837326204963 17.536568751373675 19.110231211147195
Na 7.656366705276827 17.301394701757726 13.86912745858956
Na 12.516115532664363 18.143016320765575 16.769145057437687
Na 10.489227496575568 12.51853293873264 18.121636503900987
