48
Energy = -52.12507474 eV
Na 13.084118441871794 13.477455941304624 8.815805105039365
Na 10.11260724673916 14.801070817277244 8.032113527833493
Na 15.638269278738225 11.066822889310789 8.930588038987123
Na 7.424738270880306 13.325041013777367 9.413751880749325
Na 15.92199213221956 15.131859727643514 9.817946838464207
Na 12.677017229594762 17.28524674269428 9.272864719771162
Na 10.55490669294825 10.891597790278874 9.419114122280368
Na 21.47399022860093 13.740888906975592 12.420288566938819
Na 9.23391128579889 16.6907514082941 10.83620279847829
Na 10.171075569668693 13.283460121314107 11.649542012176186
Na 18.709486847506508 16.244738642765927 11.986057861587142
Na 18.022013839445233 12.61609891504314 11.333574603829957
Na 13.294362077388351 8.707308638573561 10.822843817141422
Na 7.546085055810095 10.922395417052098 11.956445780478692
Na 16.706876678595822 9.227294457774855 12.033104631365717
Na 11.608787996413971 18.69187041565452 13.045735038813547
Na 15.145259604508865 18.10868313810158 12.566423141342112
Na 13.947241983909931 11.895749878058252 11.80847515196856
Na 12.763475075533904 15.399395481792563 12.004620622705266
Na 6.943466721452063 14.62190732440579 12.83360607192261
Na 15.773686286237634 14.724874807195569 13.347712827006312
Na 10.867389982999931 10.126627875229339 13.195450814566016
Na 7.851060356127631 18.229389386119646 13.7303509226782
Na 18.896914499015864 13.962163801652052 14.689418541470642
Na 21.088323049409787 16.514483303881825 14.923654781103538
Na 16.41605522936953 11.53812124164063 14.504122793391891
Na 13.901963670532052 9.168492644583177 14.56058070611234
Na 10.127046020131479 15.63750962190974 14.269280450168944
Na 17.502196703069156 8.511842607293158 15.63899369668994
Na 12.784368989728328 12.985684672434905 14.950027585815613
Na 8.788136491234134 12.487434125114078 15.13014399698638
Na 10.377739050315558 18.309758593939222 16.437645919985037
Na 19.909987275953558 10.61592370365863 13.909663596910892
Na 21.85024341300449 13.01132930086949 16.039465419262896
Na 17.35571997682723 17.31970135249925 15.405936543932219
Na 13.428891240216473 16.296618066844083 15.772183518629829
Na 7.263630249091364 15.751954176136337 16.27532775147517
Na 16.062624291172575 14.091447006030087 16.80195694763222
Na 18.823516002357934 11.573996155645238 17.404511505735275
Na 14.129144043065814 19.497570202700796 16.04828215217935
Na 11.492221272347352 11.04626909017399 17.35323218914971
Na 15.235604779481811 10.838884424959796 17.810852070666055
Na 19.372371791276812 15.290979894136147 17.96531395131056
Na 10.490080358290363 14.65626676849114 17.659483761309655
Na 13.461228261300251 13.810579641110516 19.15524358193259
Na 15.975643247944978 16.86479496586182 18.71293115089692
Na 12.500455328824373 17.33994098402239 19.06237877305209
Na 17.07855392675667 13.452201961482624 20.031227761786166
