42
Energy = -45.05121945 eV
Na 13.636797435047361 16.327595607661117 7.725915969873446
Na 14.758583973604935 12.602448242094859 8.115243036146117
Na 12.166252613156646 9.663614636408873 8.30625532013966
Na 11.158296515372438 13.425506973472276 8.652466243369709
Na 15.597901295024469 9.135333036010495 10.247201504378884
Na 17.055208602645713 15.659326428746763 9.69412451321014
Na 13.772709782989155 14.842947917074286 10.680755172847851
Na 10.82149206464493 16.855713823682347 10.446527861280153
Na 13.046495608703829 11.416445850939615 10.98575288052224
Na 9.566022847307316 10.795448084012742 10.978218099169968
Na 16.453361861631187 12.471257906259678 11.315565307733575
Na 14.770469345741686 18.221455476460942 11.004355280080068
Na 7.7109951190484844 14.30346418969288 11.304094410685197
Na 12.509379290998115 8.037369483152206 11.929942475970442
Na 10.834224508605391 13.817651242780926 12.314770901740204
Na 18.350660631136332 18.015060305066758 12.602682522336837
Na 6.042821293404483 17.320878925564905 11.989185376268502
Na 19.20506357076138 14.14672258457646 12.885002496922834
Na 16.06740017508115 15.682884981543289 13.156824924151048
Na 18.389895707004346 10.029514907146279 13.287152611756394
Na 14.873560331388918 10.102832839305568 13.648896894299394
Na 15.889253285806701 6.958429759930614 13.589739871326094
Na 9.166599355919445 16.51009510061432 14.048319517426998
Na 11.371016422501016 10.66129080951753 14.227523959654784
Na 8.330694247842972 12.471107769813491 14.544150974415075
Na 12.675819217231215 16.763903112717223 13.631119196218414
Na 19.82800398384484 11.933589396464729 16.15429893521508
Na 6.0095278894013076 15.203581829132885 14.666779717418422
Na 13.19584674848705 8.124555123640874 15.966200913978055
Na 11.265895697994031 14.081856364436476 15.748346052104816
Na 16.79148513770708 12.721562490065338 15.021607117279506
Na 18.215466662775004 15.889737579102281 15.974223819903976
Na 15.449451361562026 18.561784352918096 14.989483542712078
Na 13.786779842878772 13.299511256623527 13.775327526636705
Na 11.555038520515215 17.358206441096442 16.962793929468454
Na 16.802424314667835 9.477857449154047 16.558223203132403
Na 10.275996685151195 11.2405510286434 17.616342203941922
Na 8.508165464196912 14.902879845059415 17.487707987791516
Na 14.594660294166221 15.353768491596957 16.6037436305448
Na 16.966994559250075 12.975250529856229 18.385708437982252
Na 13.811167932094222 11.643293426449064 16.947489159551534
Na 11.965960991157836 14.237555589961694 19.073777688863313
