46
Energy = -49.73774208 eV
Na 11.540729749549172 12.418326766797561 8.154940689270358
Na 14.394071866742488 14.529531655450711 9.132616959437541
Na 14.863907950756134 10.828991507807391 8.740264652328333
Na 11.037738893546411 16.02366294987853 9.174422509058857
Na 17.633508288696373 13.316355945556305 9.542962253930078
Na 8.404708193812207 10.511497871970684 9.121553077373925
Na 8.13907738008248 14.028335108498032 8.521025950035808
Na 11.585573454495206 9.324195390766675 10.244287242156291
Na 13.566660790227507 11.802503055896567 11.680721760849638
Na 12.52988378754895 15.11251081656332 12.17439018589763
Na 17.295165397862085 16.737400733227922 10.676080436633775
Na 15.890700633679016 14.217411737054844 12.655622472640859
Na 10.115481260298907 12.779187392256606 11.26510293796809
Na 17.175600773997736 10.875118828027812 12.17929731542125
Na 11.367556092646947 18.42060896082414 12.332896786216082
Na 14.793801221315649 8.269345059883461 11.549017709852254
Na 8.528122184650206 15.758925554799045 11.81979899877433
Na 8.982537708669712 10.046793376308761 12.941024890271228
Na 18.262306351174608 17.069949822752044 14.275028668279804
Na 16.215700905289015 19.9871985862861 12.090212924764254
Na 14.027317729286409 18.004731107564133 9.960272726307837
Na 6.552384666049197 12.566877723342445 11.434872104019636
Na 19.340979150283868 13.898390928430363 12.653789423142698
Na 14.732129010270864 17.373391590977576 13.50874794247255
Na 12.371261109397246 9.093069839552044 13.909000592310264
Na 17.36505196229248 14.156665988050039 15.906276010797274
Na 8.138702788659293 13.160296753231263 14.611058253719504
Na 16.34941644125751 8.44449705775825 14.93524308121629
Na 19.0257794514952 11.21025734428126 15.31188885458058
Na 20.92400980504858 14.486526117963514 15.7602043938603
Na 10.486738180157976 15.888307605395918 14.868084696614693
Na 14.989249524633093 11.599425288238974 14.983146276504916
Na 9.996645563512228 10.38529750778509 16.726821305342657
Na 19.043967989574746 16.487736596259634 18.038291973863963
Na 13.859159733464358 14.859973864071145 15.724733609884828
Na 11.594244297327842 12.49439853177782 14.607118644550823
Na 12.439237605660917 18.503023734298758 16.00366784941231
Na 9.309281738603309 17.49522732123091 17.689338749055704
Na 19.419069460493823 12.951912900199902 18.635916461962847
Na 16.545567250201447 10.953098693755111 18.018211951114246
Na 13.538094685975583 9.137802098160282 17.258257987745754
Na 9.855929522647761 13.882295438059243 17.76432239610318
Na 12.529586784148977 16.121041648992534 18.699026442203348
Na 15.985946304427904 14.456606714814805 19.046641233406657
Na 15.793064416892198 17.480892399802162 17.01585073287544
Na 13.033674485044378 12.419726627247716 18.227270427619683
