47
Energy = -50.92985247 eV
Na 16.395600940682836 12.98399814492691 9.274617663282735
Na 13.727644502828573 10.497146460645029 9.123460089594671
Na 12.57063117444115 14.443880232478746 9.130931170893533
Na 14.911357218989842 7.1617098769651575 10.687748995319211
Na 8.720926011961978 14.741580592968878 9.895503855074063
Na 17.15027283088244 9.206571088657427 8.626699235376503
Na 12.92784251900945 17.45965306273184 13.206100603676187
Na 15.577023459015404 16.437704592344655 10.999321703231383
Na 11.294213819475386 7.901815126434197 10.17473976366105
Na 17.843151935853147 13.46585680032 12.485869838978356
Na 11.013817902050883 17.557074906881624 10.251141317267695
Na 14.033981157969748 13.267209258910897 11.970957917240456
Na 10.279222611770548 19.99188554553934 12.9674286957487
Na 19.522255865319405 10.884473997346738 10.766297527873188
Na 13.078384024740096 9.649077973910014 12.539896720036843
Na 18.347040411615318 7.539233910064307 11.84968973745344
Na 10.585576820819218 11.569558652303025 10.68854272477656
Na 10.903928879036597 14.727971693466031 12.457775916427817
Na 8.06117855368936 12.70481679262936 13.138101061926884
Na 12.551103555346808 6.358356595596641 13.343984521760824
Na 13.735364556463798 20.122039184472435 11.360945839415338
Na 8.425287435301179 16.88839920646923 13.068743451425005
Na 16.299082358646213 10.377038716734766 11.736841412906378
Na 11.30780749246928 11.905039755019097 14.33943139201304
Na 15.696641084046517 7.932695944077914 14.384869615005053
Na 16.222259765718274 19.056884666503823 13.887228128120368
Na 9.68149279876648 8.955352807472343 13.353115410169352
Na 15.06000963351227 11.869012150114978 14.90417216924215
Na 18.961837197157685 16.58190135199696 13.625151078427724
Na 15.83762860927113 15.490708791554837 14.383635678032489
Na 18.4577556431382 10.333291900661072 14.464723622978882
Na 13.073884807951357 20.82347252349319 14.975791149963872
Na 12.688530304668998 14.796925715026351 15.473530830321549
Na 10.523324687002296 17.990147037887603 15.872368233341044
Na 9.042766774506156 10.726859310939885 16.55235816792602
Na 12.621070602695928 9.03796786427651 16.06505444498121
Na 9.356118646718786 14.435000280634107 16.10559555865932
Na 14.134911587595402 17.74012041292136 16.510749460211713
Na 18.359351287919896 13.57732311016737 16.084008083160697
Na 12.302842721715026 12.189776980085092 17.82098726931986
Na 16.057814505931226 10.433734256464183 17.618436266304663
Na 17.618523165597054 17.20298520605726 16.998246311934697
Na 15.872593939140433 20.51533990131121 17.40104370125352
Na 15.304289489596604 14.363407783321383 17.914862175504865
Na 12.350372754621437 19.795592235478615 18.561908322404857
Na 11.89267653584098 16.05929125937617 18.692186143292027
Na 15.109528010023004 17.73903693387602 19.754127615597813
