46
Energy = -49.32756243 eV
Na 13.338806401559063 10.66059448054342 6.833536373643325
Na 14.175855382005109 14.179883213308148 7.595014231361657
Na 10.636636675779817 13.213460657800749 7.817926895816786
Na 11.607227574311109 17.29593887261749 8.109337639999406
Na 18.655532349290937 15.976733409314244 10.429565930910787
Na 7.413331103542381 11.85349791350875 9.300859177436802
Na 10.433350844941586 9.686721355756708 9.15105077679681
Na 16.300200889304122 11.116794863256837 8.771633469495722
Na 15.469442401873025 17.149602676643806 9.173301190508827
Na 8.68198986483738 15.470760122086384 9.845225456695012
Na 19.048628829148225 12.396375131586117 10.729849200130076
Na 13.182301798470633 11.934374011950354 10.013570940292508
Na 14.004349087576081 8.436659377274676 9.917342682427115
Na 12.41226700798312 15.531117597227482 10.794418779159754
Na 15.838523659595623 14.102742794179765 11.027628560567797
Na 9.925074986458894 12.592823893134026 11.306867187846773
Na 13.359913308075027 19.106918425145196 11.25001836694639
Na 10.115132370482735 18.12626672252742 11.672345384809347
Na 10.826204892708995 6.814912439533642 11.548765727874262
Na 8.215246327411451 9.45094868736887 12.39011641379623
Na 17.464294730090604 8.749974262467248 11.21304127427054
Na 6.755137695151095 12.682033997922522 13.285744766410208
Na 11.986275039247515 9.885914360980099 12.544329542555586
Na 13.666451002937318 7.195348661540407 13.66154574613054
Na 12.585026386998807 16.978204812158538 14.195963571514323
Na 12.757610061055495 13.257103721929878 13.226572486893541
Na 10.371629432799969 8.303158095394606 15.259122835826702
Na 19.176005412529904 10.712817773068902 13.789219290273483
Na 15.619935961104547 11.159767116177827 12.852492456890541
Na 9.832702287852186 11.668842867173195 14.665338574053543
Na 9.458695965332858 15.200948349138805 13.656444306492887
Na 15.108057374090604 14.394814343886647 15.215567912142525
Na 18.31137790496088 14.228336976148805 13.801444312313707
Na 16.007954693386058 17.042428868656653 12.83630144545828
Na 13.423870915826706 10.64952002949787 15.75964134084596
Na 11.689814927755194 14.053166956245327 16.389168877608267
Na 7.135162679833546 10.231911347830579 16.027950922287438
Na 17.04775308912328 11.813143317179437 16.48370457653985
Na 17.301829404312237 15.07701614299338 17.696515250896958
Na 16.620117488753063 8.585902523586814 15.02207818794888
Na 10.379090852648634 11.199143627721664 18.08613874163663
Na 14.208894893745985 13.073990111356467 18.632368012595677
Na 10.009395541700306 17.011187855625398 16.850128267448
Na 7.973987869208248 13.774233220321475 16.781599877540565
Na 13.640312891516874 16.49831554693855 17.909506145524915
Na 10.971775342426307 14.618824069038187 19.622872491127875
