49
Energy = -52.54691063 eV
Na 17.57806686127281 9.314960051878217 16.554555685362228
Na 15.548528607737678 9.736717728716433 13.56041994343151
Na 18.3752519445595 11.56471856954248 19.356024253109158
Na 16.963096124477616 12.661567728204359 16.298129791633972
Na 12.031825324852214 8.255234470046606 14.260459118159927
Na 18.52549949041667 15.017812233355977 18.334426984710028
Na 14.575742994526156 7.457430230918278 16.54577921784061
Na 18.014896457959253 12.578823512584751 12.917212169338297
Na 19.87983852036383 15.036971273087602 14.862717485172695
Na 14.495162768761586 13.184140586166395 13.581114908486672
Na 15.239449584187753 9.714816010952603 19.387567490461905
Na 19.66745039219553 15.395155505072529 11.128851080115995
Na 13.820427344195085 10.99524799367669 16.541185858785173
Na 17.856367552919014 18.213173169057846 9.5413022066754
Na 15.348502101660936 13.508641942535 19.389057990917383
Na 12.806599829149883 10.48964561884918 11.3905136215506
Na 9.455943078858505 9.481698578039243 11.972271293990747
Na 18.826387477846453 18.14370632467211 16.636582070749977
Na 16.564426163822638 15.870617472688531 15.174678501671275
Na 15.677946379333235 12.164496023093225 10.114382834186797
Na 11.507521041971323 8.856423322785266 17.95981497422629
Na 16.183320120238662 15.742105055109135 11.55224048525195
Na 19.182748715526465 12.158852692262597 9.58156773455331
Na 18.379555956562488 18.26033646301782 13.108033788849859
Na 12.386034197199235 11.750486284340427 20.044847739822604
Na 17.30637623533118 14.899698833634712 8.280340130780882
Na 11.273945814853452 11.685901501438504 14.210185965799806
Na 11.55699892355639 11.746778339379437 8.429776317342977
Na 13.243656514809656 14.55553948907284 16.56843366456442
Na 8.88624763193555 9.609613757249187 15.577953388010794
Na 15.219722484404059 19.467016108426787 11.626498754342682
Na 12.889815868531741 14.40465997405233 10.789908520033716
Na 15.406020403010803 17.037101433928104 18.31506245914617
Na 13.67619590304 17.109653117269602 13.802945925500914
Na 15.701447423096871 19.451326758783907 15.425572122003391
Na 10.119476442696017 12.452610570952016 17.49835777805691
Na 14.032979110559515 13.986056575238738 7.351868906700906
Na 9.653550634088871 12.854337489060386 11.129039998686082
Na 12.03631359726865 15.420623009171646 19.60416066875798
Na 14.362097801194192 17.226959246758078 8.7312154289309
Na 11.020148244589937 15.030094570623431 13.777260671183942
Na 12.345561021722906 18.33372475099683 16.977957243153195
Na 10.73750598857407 15.548497957246193 8.49084570669242
Na 8.083247598052823 13.272576178284734 14.429428679956466
Na 11.715453933108835 18.051024915736 11.073984362266502
Na 12.598584480957777 20.484424593913886 13.935447510735873
Na 9.600068753209856 15.856278020925583 16.896672291585247
Na 8.619271702556995 16.14747799180636 11.638395820816013
Na 9.833959839683908 18.329845311682192 14.276645484268961
