40
Energy = -42.2515705 eV
Na 10.648401178801981 10.631626956902272 6.417790227957226
Na 13.163802661298824 13.88492870758656 6.74627579308867
Na 16.74023331731917 13.288685519779566 8.106498353266492
Na 14.110541349771689 10.404171824169005 8.148692255130351
Na 15.192886367463132 16.7549685200724 9.183861404497474
Na 10.851382740122647 12.492653241577454 9.078749888216576
Na 7.830576774001031 10.822055495446152 9.104173958155094
Na 11.481913503524543 16.069370306051276 9.557742295738795
Na 11.069658611338083 8.562945557812876 9.504076162793366
Na 14.164248057669086 13.501412279601709 10.05144816783295
Na 8.205002860046708 14.185106642981967 10.955120599324909
Na 13.07076295661082 19.048283963492384 11.352860827909687
Na 16.739102821891972 10.900611321514406 11.075541460664352
Na 14.749923658124645 7.651831796061914 10.980280340372467
Na 13.030799205513814 10.555074349266471 11.440072499601833
Na 17.31313465076614 14.69803609842853 11.767797510337967
Na 16.410965473922186 18.28845842409706 12.682549348970506
Na 9.543870108789315 10.529794331962451 12.167342481040109
Na 13.90435107512509 16.053414585286507 12.389371848940483
Na 11.46743785906273 13.612620509537999 12.109023689962934
Na 9.100929626498191 13.527025182252341 14.386404986501255
Na 6.366326189784193 11.792366325034912 13.188469271806051
Na 14.82617685859696 12.890752121177057 13.404491598906533
Na 11.944095797483406 7.883312227351346 13.471741498094444
Na 15.15094090015626 9.644732553105033 14.082413991614114
Na 16.086478039917797 6.576568806194374 14.290964747480245
Na 17.88743159883396 11.936264078973778 14.657141537060372
Na 10.244536623239041 16.792822483847026 13.0393842542143
Na 11.987402843870335 11.18655900404826 14.690389439423315
Na 16.094959710130084 15.530141392542891 15.298958739094653
Na 6.999916195483323 12.980831407456641 16.780201350532995
Na 12.3996736887092 14.6018543532441 15.191763506655683
Na 16.88385913903513 9.052097082431066 16.91930782570771
Na 13.123017958263139 18.072825306228108 15.135978427003792
Na 8.999733392647045 9.945723666112693 15.69340248239555
Na 14.757877682182547 12.152296091892955 16.921030971102628
Na 13.106998932369667 8.86025192646574 16.9332200121413
Na 9.653829966330774 16.07087072561428 16.762420416813153
Na 10.87511426161531 12.491265668187404 17.668357140888325
Na 13.28712380876069 15.540807611282062 18.13010713383201
