43
Energy = -44.8579194 eV
Na 16.89030254705557 8.851228907996278 12.434052822354868
Na 19.133962162630233 11.203976049033471 13.27056081563162
Na 18.82744629207715 14.158399798434033 11.458341435973377
Na 21.70432953789685 13.311424547921137 13.682995474208402
Na 15.521191392106907 14.933831619203671 9.932788773947452
Na 15.982508537785263 12.166890684169735 11.83412423761475
Na 14.972347739200625 7.7569235209935545 14.984040368965168
Na 16.343996158465078 11.064541862437167 15.403241368009699
Na 20.02662222205888 16.209292468692137 14.056038628153829
Na 17.684176263979456 11.25645684969016 18.692735341490096
Na 17.35344018966249 17.179845370434 11.871880948330427
Na 13.454774233914957 10.030055095887795 12.618676803077824
Na 16.722617588667838 14.563860740192046 14.34964895336031
Na 12.520908382469413 13.061733423107084 11.346012070716986
Na 18.981622582190255 19.52075336012552 14.145255700003048
Na 13.81949373568776 16.044650573305418 12.89812093411712
Na 14.38351503044689 18.336288667485263 10.249513549987755
Na 19.29109272842633 13.389959173591269 16.380397618097113
Na 12.425408586889047 9.889176439097097 15.836081953578862
Na 13.52999295876844 13.084862457254893 14.694247879373071
Na 15.049386647873007 9.034806128971663 18.193984278161665
Na 16.690967961273486 20.50567480651328 11.430265343301764
Na 12.08430089668123 15.924103045704351 9.509843333915232
Na 14.189089101884822 12.561794747337139 18.105876898587127
Na 18.011557112269077 16.817286627114996 16.76729987463633
Na 10.589822768394482 12.591543183740765 16.656094605492484
Na 11.90418481904751 10.035491955347068 19.173052731788772
Na 15.63554636513855 18.448707474530313 14.560296513935613
Na 16.152530908218363 22.123357111714327 14.325986134331178
Na 17.028463778068787 14.534501414481422 19.100382280503553
Na 14.478561110729231 15.849350485908023 16.759426207990042
Na 10.943175893877118 17.91152763035229 12.047855431801612
Na 10.623958100729762 15.05820499515117 14.20088304826984
Na 11.245944899305252 13.201586805988674 20.078173434423334
Na 13.199504980824504 20.37734859706703 12.981619500776931
Na 17.24068109285232 20.26500074326869 17.155805690730492
Na 12.005102926385257 18.072689717749498 15.424659891065097
Na 16.250340808566982 17.810913677823105 19.664232794932403
Na 10.985703431640157 15.87425991651659 17.850229513406653
Na 13.71041447267684 15.409604236970155 20.23389292139735
Na 13.776372133024708 20.884857131079002 16.437077620580723
Na 12.882383670018285 18.512359782333448 18.828593150075374
Na 15.137807165402165 21.07897796964043 19.742047818253003
