43
Energy = -46.15491726 eV
Na 7.80163847401833 9.26245169021549 13.76112214331014
Na 15.474763184295774 11.418913415633861 17.478703953486043
Na 14.322857969596233 10.909151242394133 14.218498669032515
Na 14.918072892699689 7.855051953148017 12.454123296450305
Na 17.014690112396913 10.707161176313038 11.445953322551532
Na 16.415527122567667 17.282364843890306 16.581802877614077
Na 7.261469546919208 12.402866973033605 11.82372092720966
Na 14.238778344864718 14.278180206201718 15.444074357103363
Na 13.304094436329176 18.997352919054304 12.028461462422191
Na 8.49926094100528 12.2517420224046 15.586088310252537
Na 11.194982783009333 12.359696445251988 13.530382138033774
Na 13.259825364326455 10.59633639896777 10.973039856117175
Na 11.179950497393724 13.54987261785911 10.313522348467355
Na 17.46270567101947 14.198949292577918 10.33425514513415
Na 11.471732322764414 8.658339958184976 13.56646184290257
Na 8.92637752625442 6.913047674684547 11.363598695303546
Na 15.32773076688135 9.15026922660361 8.573097681740755
Na 9.867809180982766 8.816576786661487 16.71609496600545
Na 11.979168857385952 11.738420825433563 16.955674261644905
Na 11.492657102061465 14.710677569986784 7.202818242015063
Na 17.304905716745335 13.07453274187676 14.272896694109797
Na 15.820234004677244 16.53209244398002 13.062039823261115
Na 9.795622051020755 10.233511443161882 10.85444869684855
Na 18.078178264864732 11.3554950539119 8.105449320904755
Na 17.228681156381487 9.302067550026836 14.945521266800398
Na 14.539627734648757 13.500705570461108 11.926489646634376
Na 13.702746133254104 8.33093336466051 16.373016580450223
Na 14.749141666586542 12.828964325249684 8.299950655696165
Na 6.398240660534902 9.333272027967647 10.115032823004066
Na 14.14322755365763 16.150408261871195 9.67102253276899
Na 8.121504788644657 15.114692198574446 9.50419495966261
Na 10.755467837168151 17.31185254284802 10.123216532855963
Na 10.064493849342314 18.437359219348302 13.709312389370774
Na 13.711834107134504 14.90913986053737 18.657515094404314
Na 11.83604332374784 10.82974114577596 7.760866700842846
Na 12.146033316681105 7.5821556075046725 9.869066641329864
Na 13.143160819521398 17.7975529174013 15.617980677577089
Na 10.762013449135283 15.156887979945187 16.139575409085992
Na 8.36192212360609 11.864413764661304 8.157882740338337
Na 12.234775162719645 15.787984043385555 12.880184420530288
Na 8.809276296957085 15.19876315193807 13.077013227890278
Na 8.935722225369718 8.26737535241747 7.977032039369493
Na 17.273491443495125 14.3731129766609 17.87923341213336
