48
Energy = -52.15510109 eV
Na 11.096157856498053 14.156814172389725 7.916205257268091
Na 14.902650682361198 13.313180985940296 8.038390749156195
Na 8.85477481659463 11.32749571056028 7.925641070570456
Na 12.39081406791226 10.791506360853688 9.149576620879541
Na 15.816096027634838 9.680938164734645 8.352395464119722
Na 9.999984208755707 17.75312280010277 7.981331050406707
Na 7.65078768819313 14.696961711588962 8.966954007010422
Na 16.383810497296658 15.239953544360459 10.917152022611981
Na 18.246682532700643 12.369995811738477 9.261136203440655
Na 13.546391186055667 16.838926576744846 9.199460408281398
Na 12.961501310514134 13.879270471464661 11.006355084906252
Na 13.807164776291547 8.34354083494775 11.687571280913248
Na 9.797396892949479 12.60244495278478 11.031307976739143
Na 15.412850029648522 11.494868610383993 11.132813819308167
Na 6.532711737904807 11.518576274306257 10.676999980145958
Na 9.651430538775147 9.207008328621678 10.937788894031904
Na 18.04593646238212 9.358927690111177 11.478224144906491
Na 18.39789680449398 12.704369276614184 12.96646550628266
Na 11.769162649922086 19.258404005421767 10.939755455257071
Na 17.35257335036239 16.109879315945307 14.372637469167817
Na 10.27430751311327 16.07257584573062 10.94169410536771
Na 14.894627803032458 13.571355768708285 13.742717244385954
Na 15.498362374729195 18.85329484713609 12.000852152908083
Na 13.327210116501194 16.666783140680238 13.251503143130686
Na 7.463427813911427 14.498018670629166 12.701811417107956
Na 12.226070652512195 10.88629818016764 13.234906676554017
Na 12.454572541581157 19.87859600994356 14.318476844774157
Na 8.276224884194226 11.090184418486885 13.914882674747062
Na 15.986257453005459 10.046692086963697 14.32335277974351
Na 10.365346433920664 8.038889592523162 14.228280094375103
Na 11.243423651912538 14.032863717870478 14.35784866575377
Na 15.315903043409742 18.554758014187463 15.864116601233505
Na 19.402175500691147 10.60933949000596 15.826156555812165
Na 8.543925577416507 14.194691445886273 16.277830111064468
Na 20.238802444296397 14.128387659008045 16.117820968022667
Na 17.040367379868908 12.971424261622536 16.378980584225502
Na 11.649668161715752 17.0908062552149 16.736094180603335
Na 9.563964121579728 17.33393885322296 14.042078973651934
Na 13.682305461256462 11.862495868157119 16.453590905913313
Na 10.293126344814585 10.721725252053764 16.722729774240086
Na 14.479235908578813 15.298478233570599 16.742384746602163
Na 13.341987510418187 8.476030533921666 16.108212103042575
Na 11.665225141184228 13.76566636637802 18.434368066082904
Na 18.871607975550525 12.444295697127886 19.155718646711566
Na 17.776768396144213 15.910719441688865 18.137207587208987
Na 16.315249068461636 9.873576998049728 18.142446680590847
Na 15.305618416999167 13.204710864733627 19.500665651079313
Na 12.876779921161063 10.266532615924246 19.39442532887081
