49
Energy = -52.86998733 eV
Na 14.843106167729822 10.47223695034757 10.67624637858074
Na 12.46069914583686 12.820575645601615 8.954103596881012
Na 13.251722053957684 7.737350886424818 12.520039479888695
Na 11.179444056918591 10.61042257172231 11.544781669897274
Na 10.047266017917943 14.295093962201152 11.502090730678972
Na 18.65299757295888 11.383172196421931 10.431469393858047
Na 8.036409564607503 11.70860120315808 13.24204454938399
Na 15.916978314279199 13.997454850264035 9.777565712329954
Na 16.827068324137596 8.873088253261656 13.154823951178281
Na 13.486525182027856 13.3144648590019 12.235186792190134
Na 12.851506069001116 16.23084482428856 10.23047142594368
Na 10.39308342304266 9.23279058917818 14.748203794885269
Na 13.927442963486014 10.470862934100554 14.433386517123402
Na 11.083546216015073 12.72274761442918 14.627831803514397
Na 10.084608563569349 17.999330685406395 12.527217463720772
Na 8.592022047525614 15.151882779103824 14.722353123671187
Na 13.356234893548836 19.461286271708634 11.318540681810427
Na 16.87577264081393 12.595577626142571 13.067785135541042
Na 8.580142532549857 11.916097463619243 16.89860297109404
Na 19.213218509140894 15.063914926792334 9.66456375339942
Na 16.371586067637907 17.720288136981594 9.878978631875489
Na 14.558171503092586 13.683659496983825 15.753260813005152
Na 19.772761289758147 10.621264949967786 13.964960281907954
Na 15.633274944438327 16.091149931439528 12.83334105544309
Na 12.281177540049928 16.09557986507091 14.129049730746466
Na 11.902032129754712 10.972062706830787 17.49779851564787
Na 22.191550213216395 16.345309767249216 11.256694645123073
Na 20.358339231028737 13.785817839657534 12.775918832019839
Na 19.002207495140915 17.32271115434678 12.443962222416651
Na 11.756643122120622 14.95620956874971 17.48326863140898
Na 8.276680969517043 15.132051271106144 18.341444137937252
Na 9.992780886864418 17.894563084503343 16.52104226919909
Na 12.81426422941925 19.534976018940586 14.830634696326086
Na 10.787106326607715 13.156796581659762 20.251886568601723
Na 16.24117664229612 19.554763374295995 13.338662797164126
Na 14.360720776370957 12.505252996731713 19.257971427384742
Na 17.088519747423316 11.32894883440622 16.450856129107265
Na 18.052193718342906 15.151125278278844 15.255043293505391
Na 20.44957945325473 13.17236598392353 16.56538575072628
Na 17.170446869974764 14.490654474483165 18.559507976867405
Na 15.094020499547979 17.052458813351773 16.378606641357045
Na 21.50616941652043 16.411507330685474 14.91821373002741
Na 10.530698809978343 16.86645508412583 20.29634584198067
Na 14.09507667306152 15.84758238497442 20.15533531708691
Na 18.553628977095798 18.562733147988006 15.932196173801634
Na 20.106708825747795 16.39327973290055 18.21346776989787
Na 13.004259502925613 18.76714345810641 18.51527362726513
Na 15.640865463698487 20.57401802926087 16.844751707052712
Na 16.833282861443298 18.07845105449849 19.255337511796128
