46
Energy = -49.01879095 eV
Na 18.650343526361354 13.884703371323239 10.261120255988354
Na 18.49660749323495 17.459651129205326 9.878070338670028
Na 16.28562367875776 15.416476519977607 7.935986979950816
Na 16.231365461708307 11.725104998322971 8.859964841438968
Na 19.850013037390088 16.0334673607856 13.029487064380314
Na 17.51131652723023 19.084288200266524 13.022676550366118
Na 14.812220731165176 18.111419978057167 10.327623811899256
Na 19.88106481593026 12.269943163245166 13.605635460867072
Na 16.417495113419346 15.794007545125028 12.355167620311901
Na 11.857569532956806 16.369855657667518 9.196742601296457
Na 19.16525055373041 11.765025910672056 17.286899616422925
Na 14.27113712020347 14.151788988372765 10.397532468730743
Na 11.144908175604485 19.261265102351835 11.239107577853856
Na 13.854259401497421 19.771046337207025 13.605866917122196
Na 18.638216671547077 17.60650335573867 16.247704950602873
Na 16.374095943498098 20.482356353056645 16.19972198152486
Na 16.471277838396926 12.179141547566472 12.63105576088015
Na 17.521526637817235 14.359885063497222 15.330940323634232
Na 15.23163081488392 17.078490358675086 15.391134472499857
Na 17.770890940016777 9.507663609585284 14.821204825976668
Na 20.9582078608514 14.71019191716449 16.272236194050787
Na 12.630926183327736 16.5063153794453 12.793694611344044
Na 16.019178361033227 17.905890621093246 18.920397749447314
Na 13.013400102913364 19.306352027720575 17.15882106735594
Na 12.106829194953661 15.981430487082545 16.390899383100383
Na 13.689534440011476 13.566894765735016 14.127129283194764
Na 18.24205652520556 14.93617377181937 18.910088302369687
Na 10.978551072495343 13.514528443727642 11.432707924222617
Na 16.513346773307656 8.993567983978537 11.481025841402909
Na 9.050703278028006 16.354489876451634 11.946445078900497
Na 10.251917450229307 18.388304206747115 14.724101129100745
Na 14.79036029090968 14.65109083797532 17.985814918643687
Na 15.71141655625676 11.776135343315325 16.50276532869034
Na 13.336175657514659 10.833952993295886 11.112266711057746
Na 12.602998369346347 16.95078602493749 19.869906379716646
Na 16.5095982955282 11.949350117237115 19.92739131623923
Na 12.037309172023331 12.186325820133034 16.85962943930467
Na 9.618259398146565 14.31925658040956 14.94219883312989
Na 15.264827588147268 15.093996402779505 21.50001542811097
Na 10.602659943557354 10.977622029945774 13.749535582895062
Na 10.148321582833862 14.519044814592215 18.910564130861964
Na 7.683029587137461 12.876952032901269 12.386894233126784
Na 14.059248573560167 9.668104026385185 14.409770488463588
Na 14.012666829792211 9.47251027662805 18.293064227018032
Na 12.964716538672205 12.466681573556924 20.275320570168095
Na 11.682048038491967 14.814229383893428 22.438515218885055
