45
Energy = -47.87705128 eV
Na 15.538616440252627 19.345592020852873 14.996118581980562
Na 13.429340688331173 10.960734658492848 11.39607275426502
Na 13.103464332131871 13.764971202466599 14.129865082782402
Na 16.574710605607834 8.920565885313492 8.180301889515976
Na 14.300194226917768 7.379863830855053 10.797064603987268
Na 10.121286747089522 11.400215077170877 7.508482403038998
Na 12.709277100323675 15.79563766473917 17.12777653532876
Na 14.113216623832134 10.404493615755637 14.817917306440146
Na 7.541298096874877 11.824329832707878 13.09235895863874
Na 11.480390849315151 8.819307300721496 16.758867712332407
Na 14.997716705302667 18.00920003213445 11.541966270549333
Na 9.686553307317658 15.030198446170846 8.395489320677628
Na 12.771510091867379 16.99314020471989 8.740007059443604
Na 14.097175829281117 14.700044793383656 11.128308260472586
Na 16.698608277484002 9.365671358326857 12.166898821018712
Na 18.153956142648305 11.780079742976751 18.616035837077487
Na 16.017064311370373 15.507836468642031 8.275276007070875
Na 11.966363543424592 12.290486705839582 17.4007173686463
Na 15.871539004663619 15.949721891153697 14.572575358021444
Na 17.538283542080375 10.139759270992561 15.594453389490672
Na 16.27296492746751 12.633003239878787 13.146534349437808
Na 9.92534257402517 9.612513690074127 10.769427019943034
Na 7.369715994183014 12.457207895253111 9.538015222170085
Na 9.182939358030831 14.945688983816858 18.182149290782824
Na 10.840418408560195 11.02010730117828 14.018540991781194
Na 13.006388442348557 13.343443212290946 8.055078115879516
Na 16.25355039899712 12.16218369653597 9.563147185835794
Na 7.642921691368479 15.213805074925922 12.126939480254324
Na 7.621223258529105 13.34761516839489 6.079383661477537
Na 17.740839186307756 15.35121295015565 11.578798351875172
Na 13.113375350539483 9.687882051621859 8.131817668019048
Na 8.474042353746611 8.592265772848782 14.283721222175858
Na 15.461997433156037 13.143829449795554 16.828935875021436
Na 15.609195281914543 11.544050339086334 6.141080030087978
Na 6.651530236367621 14.567002582680152 15.7092754403133
Na 18.751048713385103 13.617110731626756 15.3615457156042
Na 12.696589992993035 17.564435212225508 14.213004303719526
Na 14.983174209167363 9.79356819002652 18.14999655390984
Na 10.648317003345275 13.07280276458394 11.145008500975239
Na 9.074704891604261 17.36533567493602 15.055517638232041
Na 9.93611392817948 14.251846217277425 14.75764325451975
Na 11.982875249257008 7.7916636371182015 13.326993993272861
Na 15.196899760640374 7.206657109921738 14.830814557581366
Na 8.538338036819376 11.481400625151451 16.690233355237364
Na 10.921595468624494 16.45818704085421 11.686513316788488
