46
Energy = -49.5525879 eV
Na 12.00013114809721 10.118482576192347 7.429685390433898
Na 9.945230568609057 12.829799290796474 9.386197637296563
Na 15.081642218970043 9.120391006196252 9.65066785299692
Na 16.0283948481813 15.350214024446277 9.1189619521876
Na 12.104027541395983 15.68719566579584 10.214816933698488
Na 17.21080472579712 11.93499336263581 10.394998337076975
Na 13.665571693986447 12.556809722147728 9.459710583215125
Na 11.442716975251752 9.864019573495714 10.860475034729728
Na 8.839125555820623 15.04231813726995 12.430189677343837
Na 12.364570819920964 6.97694566418701 9.097016131936508
Na 18.04013517307369 18.295387608895812 9.674563711834873
Na 14.419133786631617 18.221696156032067 10.346056924402976
Na 18.915995877271996 15.17219090233777 11.364270472704161
Na 15.300338153457263 14.22188448381306 12.305005555469206
Na 17.193888778367175 9.088977977492165 12.756972639993737
Na 10.825579095728555 18.387913373246544 12.398082307928473
Na 11.614169570694536 13.119057196796643 12.502180694889066
Na 16.85402121433305 17.590374545291002 12.830941698085445
Na 13.328071538571347 16.68339427389811 13.715388502000787
Na 11.5113317413303 9.976213173789125 14.488243645403978
Na 14.37378806350654 10.923039927689313 12.695580545424887
Na 8.484101424849266 11.390858855349045 12.414685080017152
Na 18.41584483768483 12.578141942084525 13.840735704287711
Na 16.00432956153681 15.098092595044886 15.597902353417169
Na 12.797025001211718 13.497879105980665 15.58686767178708
Na 15.624567337341242 11.635354491176953 15.765203400460532
Na 19.178141593232 15.97826951761859 15.098225445833226
Na 15.740509724482543 18.722277841632078 15.984861631556763
Na 14.812911981728986 8.393166391472954 15.719751191288797
Na 11.99371766853231 19.45222468859157 15.924619739187445
Na 14.152585783185499 20.300327651238142 13.167632135153339
Na 18.521245347831346 9.673488176692736 16.153781211273625
Na 10.148606056964717 16.305826175366875 15.550322007479393
Na 13.648853496157965 7.389558178681881 12.4677956662751
Na 14.490816891125817 22.01828922872415 16.236193488275482
Na 9.347987004874753 12.810162527089583 15.569765782601142
Na 18.23979908623666 13.14434714382252 17.585558088796247
Na 13.303227317285302 16.521178603456104 17.374829322340673
Na 12.635061529576419 10.769326234707428 17.774469187213498
Na 16.563802109140887 16.572741788323288 18.86473001159862
Na 13.90495221099411 19.524312532228887 19.067914107209244
Na 16.16320495707723 10.145761718725861 18.853640932282246
Na 10.62011963370122 17.959092643160094 18.985292971285705
Na 11.032844913020915 14.203653671474449 18.685922642185965
Na 14.71605389890656 13.490723346027089 18.84791396818892
Na 13.46185859800066 16.324483362561363 20.822217084628235
