41
Energy = -43.29879118 eV
Na 20.90652755249423 14.58627406042359 15.236131074565664
Na 18.343147917805283 16.3323737103117 17.011591181090246
Na 17.820256511507054 14.481174241761558 20.038861982238284
Na 20.662247130666756 14.496240596992012 11.64280066372665
Na 18.630454303398036 12.499785889506569 17.128643416124905
Na 18.194409554701362 16.317252535724624 13.445523310391284
Na 15.066397668518595 16.197765657156335 18.336894738048315
Na 15.575927334647503 17.96284723864894 15.226872606718318
Na 14.430022633123837 14.31164959295316 21.351866909282393
Na 18.444931180686865 12.382632946062927 13.58682294262172
Na 15.876305501795988 14.188696905726804 15.397294991379436
Na 15.334924440042558 12.328150550789033 18.475564577869406
Na 17.913332651348036 16.021405126635752 9.846558707352994
Na 15.32661421151584 17.821946891617092 11.609500055015308
Na 11.690564644523834 16.01733558504877 19.652784467876714
Na 16.112469921890415 10.348836246211745 15.543871604088958
Na 18.290209916431774 12.28633751251905 9.929342045724074
Na 12.24553820535409 17.829890163814767 16.499099326027313
Na 12.8022843833069 19.550104186522844 13.42676419951631
Na 15.627793999649253 14.043531049397243 11.805505856730933
Na 12.55181563081559 14.113443319194658 16.64532299981878
Na 8.91418009637137 17.611611305387054 17.802955582436645
Na 12.986411835218306 15.84154325223293 13.545465003870412
Na 12.702818487363812 10.417005977727522 16.784266131217358
Na 11.905985931865878 12.289194198385216 19.758169481342737
Na 15.879450470933799 10.288090076538705 11.940999265069163
Na 15.48759283047749 13.849723297896277 8.259098455566114
Na 13.297463107690874 12.127395458797396 13.663037189020862
Na 9.486467700169918 19.354906528920328 14.585128181530512
Na 15.707274721972679 10.228716972116798 8.37631066482701
Na 12.415209575623429 19.42455184923313 9.97207510035503
Na 13.39621378257382 8.512005859839373 13.88636989136544
Na 12.79123751347998 15.702905678862878 9.975306620514147
Na 9.988470719375778 12.051654576744378 14.920436414338345
Na 9.258978676459664 13.941833233470154 17.915867886423534
Na 9.624561182798315 15.707621928965732 14.742202308003618
Na 12.957945273236882 11.957944733260806 10.07208915449909
Na 10.149559391626418 17.408747874668997 11.66197152693719
Na 13.243005270082056 8.391483275571689 10.314014594705911
Na 10.612473445383493 10.08692744887161 12.054257284380204
Na 10.27859254133645 13.743044483875828 11.75517119286182
