44
Energy = -47.35716618 eV
Na 13.466325241723004 13.161382534690814 6.516270151939446
Na 13.979259447482224 10.007316828145076 8.118499682417639
Na 16.90661477761623 12.1265491406162 7.559230602370845
Na 10.372686654499972 10.669442662502792 8.180444582396044
Na 15.568871195342318 14.968944986041864 9.039943832721507
Na 10.219310516671053 14.291816613071003 7.407912848621022
Na 11.720222682297972 7.235009401044281 9.154614983563931
Na 12.368079771700577 13.283752500926868 9.842075386054582
Na 19.111679884197486 14.98067219142771 9.200597287878228
Na 15.340291152765927 11.736391989277932 11.084449859383566
Na 9.532226776415563 18.572661040658858 12.239098922837277
Na 15.186354753838293 8.166300271490224 10.968344666120851
Na 8.543032909130536 15.961027520158208 10.032703711474232
Na 18.888557255028385 11.51505684872295 10.226187176263018
Na 12.109205870161464 9.925226069386554 11.089803889282615
Na 12.242612717753534 16.94025583839965 9.776207405858209
Na 17.893700843054123 14.156229260548084 12.4594148402867
Na 8.749180754524456 8.69821744141629 11.212764894220244
Na 9.162237953185942 12.377152856946674 11.334482307249894
Na 14.348291734620753 15.174195158119197 12.256556412770163
Na 16.859886543441895 17.381714777253926 11.263152919582701
Na 10.800853329269389 15.426611095782674 12.562429032721576
Na 14.027051494500801 9.414929007201211 14.134572080892632
Na 12.423804647644264 12.493051764076435 13.217492955539763
Na 13.072702901975315 18.142335027483455 13.368245901673616
Na 10.318326289665633 9.993709512589659 14.085728938036722
Na 11.591896043944105 6.925603222655017 12.910243784456442
Na 6.908017918925652 11.020443126784754 14.212294942250345
Na 8.108808225744035 7.6869042529383576 15.13486403811536
Na 7.238407255838278 15.057165548400317 13.273660718833492
Na 17.58995061473814 10.382128459858 13.5661099690276
Na 15.385102240871976 12.843891322710927 14.645238557724495
Na 9.64823589004824 13.282694210477691 15.047879950445044
Na 11.678426423371961 8.008004580419023 16.606710287875956
Na 15.97118921930865 10.41023558242689 17.041360452048377
Na 18.3780583352857 13.275031275901739 16.1132105798284
Na 16.243135458508 16.307584843268756 15.014514035393601
Na 12.764952618119677 15.211653290511528 15.606376705734327
Na 12.497454721653401 11.588684839960743 16.7281466464199
Na 9.572421032026353 16.83952718419752 15.587933969724354
Na 8.828127408971334 10.626565011710055 17.255016196612736
Na 6.746970161695564 13.688195915832544 16.804535766146333
Na 15.164230860909917 13.95909175232135 17.950146319020238
Na 10.542111082719508 14.155506852832744 18.239395419373775
