44
Energy = -47.51002987 eV
Na 12.628127756224375 11.915144818634067 7.479215421173713
Na 12.888360766691932 8.606425675820551 9.312504327678312
Na 16.123421393695057 6.8777164540007485 9.693329632928776
Na 16.02012597381854 10.49733015223464 8.671213275173539
Na 9.645278569890994 14.025334180272338 6.9347939514468955
Na 13.408658842222952 15.452791404993807 7.046744815247944
Na 9.618592449466709 11.381391028714834 9.445897869281287
Na 14.89565024944642 13.802557027499423 9.75915262353875
Na 17.990360622316754 12.648241670936102 11.180526481489133
Na 12.89038926525906 11.50535441706705 10.987569721661108
Na 17.04846555722104 16.119319678212392 8.763277363221334
Na 11.31173977330423 14.642513757429992 9.744390608374468
Na 18.89169375364948 9.038105939098614 10.737577841303922
Na 15.676517920785948 9.516720288928312 11.935138998131801
Na 10.146824464598652 17.703693054709085 11.40805616258869
Na 10.466781505059334 8.952866855570061 12.238186857317922
Na 15.294316568358573 12.65542263496213 13.352237135109537
Na 7.9479123963289 14.58027011094847 11.027203088099345
Na 13.805087771032992 17.37833297614861 10.130824374285622
Na 7.221258485869149 11.087317531228654 12.451722866310192
Na 12.880141991118638 15.018183838923257 12.614784146456635
Na 10.208859329360433 12.656970019982236 12.816466119839715
Na 16.34544543073092 16.00813738775804 12.334273046164817
Na 6.853270917403703 17.29920793981864 13.332401742200721
Na 9.594229329793476 19.25112632321187 14.796200486431133
Na 12.974033912491883 10.23300713234999 14.250869637042483
Na 12.98049343707673 18.15323131826277 13.769641928841693
Na 7.091820475195177 13.855764061959569 14.787816705341289
Na 17.378652059106425 6.671927083455435 13.091714400800695
Na 9.847073344017078 15.804617486639895 14.24213564643646
Na 18.15653572499738 13.696007350181919 14.847299737846262
Na 13.690912172896692 6.847483861891626 12.593937304422255
Na 9.305455832738009 10.687769558188936 15.522301070053025
Na 12.152861151543243 13.317806615433158 15.588798709131346
Na 11.562684224420547 7.4560912770189285 15.560736186789882
Na 18.134867905810108 10.136765579708321 14.234007275161227
Na 15.554535951652559 11.761983404373144 16.693443274792948
Na 7.770760196817757 16.890316507222984 16.861024154285605
Na 15.248965849816217 8.22341564376685 15.713261166243267
Na 14.839336517709665 15.491798533778512 15.764918666173923
Na 11.494072996068732 16.829999080799485 17.018099483023356
Na 12.261243406953062 10.478111805378298 17.705536004655503
Na 9.513439808756528 13.694121405475729 17.64329029135167
Na 13.093352481647145 14.001915660372978 18.77008793551517
