42
Energy = -44.20670109 eV
Na 10.359224016406154 16.76814407991045 19.4873218858597
Na 12.544042579176596 14.396111223682082 20.87556089517474
Na 11.489524134872141 19.085484297941694 17.025020624020517
Na 9.011373118039831 16.370734474713856 16.344818297824297
Na 13.723991466743954 16.774279768373844 18.397512251697847
Na 15.902509242223026 14.47024801690481 19.866122735762197
Na 11.281380668289762 13.884646019289592 17.58704735824579
Na 13.463829880586394 11.569882010741694 19.001569173528537
Na 10.21087617441645 18.839653009750457 13.734246020096364
Na 7.911337406182049 16.272583538716056 13.083609809152708
Na 17.11164301386394 16.83623298093404 17.45222421374006
Na 14.74346546961844 19.113485392731928 15.904692835938713
Na 12.477549117210769 16.29166034774221 15.064572003227264
Na 16.85175865548471 11.094907533845358 19.73428259833902
Na 10.046865064231387 13.616369356674463 14.412591482980044
Na 14.616229252132753 13.96080731532658 16.469158109680027
Na 12.13508720832286 11.005312825825522 15.709330532754086
Na 13.453736075164967 18.72139345559045 12.456040973491032
Na 16.02739848269813 21.012261063466134 13.252955983440156
Na 11.239699751553758 16.10506948311876 11.696907204393606
Na 17.994463779237833 13.419799517680046 17.27898555572784
Na 18.94336966708741 9.98354901455537 17.170311278108425
Na 13.324738845442258 13.526846225165414 13.032918646603845
Na 15.552397056705335 10.570048661027498 16.382224417115257
Na 19.09958749852391 15.482626887041453 14.788174915676255
Na 16.655549357769697 12.899521693435835 13.878288489724342
Na 18.19920413222991 18.78777024384971 14.750092301795418
Na 10.89412601430232 10.95364064053676 12.432496669491556
Na 8.798259885828788 13.54330458303986 11.13100247971651
Na 15.758636827448798 16.310492995646303 13.858693669563907
Na 12.087878088665803 13.401897503100018 9.73338642025638
Na 14.411999202464324 10.079165276768192 13.018865082027094
Na 16.843784881576543 18.349327817369723 11.194616609435572
Na 14.46010685415346 15.93999621286474 10.27705426099049
Na 20.165519149199483 12.124542441417619 14.735552897246222
Na 21.12072752562618 14.119339401034935 12.074094568234344
Na 17.703292185611534 9.498301659401426 13.849883624201436
Na 15.524764746876356 12.431402859962624 10.379673439117834
Na 12.961226582663295 10.055270315073976 9.830920486069147
Na 18.815936460906016 11.615525731939154 11.228299690077598
Na 20.193987158986346 17.464190577779373 12.094606156718937
Na 17.742988725856247 15.022879457183798 11.181000994899417
