45
Energy = -47.95239766 eV
Na 9.823578570538512 11.077909465371956 17.937451341671636
Na 13.258390665949971 11.834481676641024 18.60021907323761
Na 8.430529427074866 13.459301707790484 15.507838000680707
Na 10.8518231942273 14.61476155783765 18.14348922897128
Na 14.287869518636773 15.375363245376253 19.13747631897006
Na 9.209439601756802 9.935424196597193 14.609629666747136
Na 11.906689660320708 18.57751933170902 17.707215233264055
Na 9.227674564517276 16.825025090637617 15.919433993778133
Na 7.722667834457682 16.073450322066137 12.703765021062878
Na 15.983399498027923 9.99697843275085 16.883185136447302
Na 12.486755691540665 9.131715756866491 16.166032390187883
Na 7.632724059994146 12.379129959080613 12.308769349489335
Na 11.952208973306732 12.628495114569436 15.283358351987284
Na 15.35830014840007 13.550919746762098 16.18321572329272
Na 11.121123893798664 18.405361616194742 13.562784680316119
Na 13.027447507423368 16.069862503149572 15.802161283486994
Na 15.495889019712605 18.43617182968454 17.907020704317297
Na 11.91084023793515 8.062322261087632 12.872931699131483
Na 14.306770384884974 19.362417241091855 14.659026696296406
Na 10.976705695069109 14.926871449471033 12.840323804053678
Na 16.655833842995733 12.492408747754487 19.521878557629112
Na 18.291342305793556 9.90376161827323 14.210668610087893
Na 17.888892539063974 15.606542504054982 18.296133942696656
Na 15.440208158737805 7.721969494709551 13.493305447397564
Na 14.571372854120796 10.922159619341615 13.803955519691655
Na 11.05467549449461 11.446182435752386 11.961988790380385
Na 16.84777199887998 16.68865052101365 15.057791995665356
Na 14.022829562303833 13.169438118651893 11.410377975357312
Na 16.810576693973893 18.745355237944118 12.011153607684317
Na 17.074103231536604 13.670382300144109 13.1475861218531
Na 9.269075049064044 14.238621614944616 9.784854559663147
Na 9.933966237689797 17.772236110226768 10.33810980244598
Na 18.783563682745374 12.456547836203528 16.52617450582152
Na 14.280321882492007 16.26092508582494 12.74097903309604
Na 13.920812385485466 9.659560357212449 10.388220412543932
Na 20.165161547470575 15.410414895751023 15.382668948454004
Na 17.162624185904157 10.775709195937285 11.109228185462479
Na 13.444854495509396 19.029988520530157 10.715169407734818
Na 15.590163294914099 12.591807479580734 8.275345283361558
Na 12.01118413518541 12.218500197959264 8.517759861034344
Na 19.35270489430304 16.152154428331276 12.022257716257394
Na 12.677760867087368 15.663974705081607 9.3955414831415
Na 20.357589525756566 12.6126881798329 12.945969688344436
Na 18.955781748915484 13.409620270288602 9.668895666075205
Na 16.28652509546935 15.796887536529999 9.947566907354854
