42
Energy = -43.23690754 eV
Na 17.04734244764286 7.740271169192078 13.516911773865777
Na 16.35827706040784 10.165670076648427 11.225505222319995
Na 15.54300653631844 12.14560943607728 8.551297675085666
Na 14.045502747881853 9.842317562312616 13.855896184301502
Na 16.934280106330615 15.2854436150029 8.551667789087155
Na 18.83909171562256 11.210386659865797 13.660947129890573
Na 13.651183163088888 12.424522853194286 11.540307717877884
Na 17.72918821362678 13.336261568646947 11.20592475882697
Na 16.735777825337614 9.895010086225279 16.107203404671463
Na 11.376592318692074 14.941538019464799 12.073667891260259
Na 13.178981796765155 14.759877629228155 8.89120672652663
Na 11.443415923970884 12.167642196451308 14.413148717345411
Na 15.65017522677477 13.125235607663392 14.366025833053216
Na 14.900306617286518 17.92525816244649 9.235386500645443
Na 14.98388307848062 15.592256207315202 11.890209781984176
Na 13.721486379867212 11.604261101285585 16.952693949697885
Na 18.70518591801752 12.916506907689614 16.73282706631087
Na 18.71093324169581 14.952095124901948 14.024864171791942
Na 18.25735196634625 16.917507317026075 11.163332151468214
Na 8.842701505673368 14.263139467957181 15.572172148716646
Na 16.625313358337124 11.41861583023275 19.054060602524043
Na 13.585880384535965 12.768591285699495 20.290624409409492
Na 15.360595934947732 14.623720900382148 17.738717375984248
Na 12.663396934759152 15.192030435476644 15.482678134388808
Na 16.564572957563822 12.45510593278235 22.26326228308417
Na 18.8427372492548 18.600416162638982 14.183742447325697
Na 15.858366245308142 19.30539949121303 12.17164858972848
Na 15.778174318379108 16.81456784584402 14.951991566125425
Na 18.215697332515322 14.559943294279496 19.90506214910166
Na 18.658807385506556 16.548715410305583 17.08457616722672
Na 12.772465841654306 17.902728118773055 13.208728123259053
Na 11.001464473869259 13.395910695928714 18.101350241228406
Na 9.381789661354055 17.121654267986163 13.89584172092308
Na 12.686007773732955 16.151935144473278 19.709154159698496
Na 15.271009213031455 15.579452845887213 21.809827741634066
Na 13.476443347373985 18.2138010702089 17.122034910765766
Na 17.307440762925513 21.853619723973566 14.12835451935796
Na 16.198603226310887 17.692534824350897 19.42900170367402
Na 16.72380581239778 19.698271753780286 16.81856612270619
Na 14.009299922360338 20.77904647533381 14.775086550197171
Na 10.184551520328542 16.921140820662977 17.467722884153034
Na 10.80278380896652 19.8288530077037 15.453794959648684
