47
Energy = -49.12777357 eV
Na 8.39074996605659 15.572193613685252 14.834795316384003
Na 9.789178046789907 12.430129775582765 16.41811181311307
Na 10.483681233036636 15.805677524633113 17.469186565640882
Na 9.935589221898221 13.22383158804427 12.879731588693728
Na 11.497437314251698 16.127641779242406 20.724105825535176
Na 10.024625127153172 18.76854193101298 15.43733511147106
Na 12.189726224195498 13.09854959965686 18.77818873564866
Na 11.210090047685938 16.4736181023961 13.038909270560206
Na 11.419469503115542 10.244457278278803 14.014638395592632
Na 12.76912489081003 13.876325053888062 15.204566423940324
Na 11.8761456480206 18.847639479220692 18.518044168258083
Na 14.882057092314001 10.94828609402838 19.86427129730158
Na 11.40323256182254 14.651853098127905 10.107769616179139
Na 14.08664683054683 14.072156456273365 21.439635343298054
Na 13.09957458028719 12.0452196189268 11.621727673866088
Na 12.422194979982102 19.833524115097966 13.038978489749498
Na 14.676306011786158 18.040866717501967 21.055933343122987
Na 13.201497067179112 10.361665513645283 16.925716608744438
Na 15.115519875994249 11.29781690156224 14.18569941262241
Na 13.327326434079781 17.53346596441051 15.482550453297021
Na 12.983170146304616 17.76520976203964 10.367007086078798
Na 14.428633785515515 16.058542203007725 18.265857699309812
Na 12.70400642122087 16.076280870139804 7.224731225003545
Na 16.802788282211587 9.750627510696052 16.859384614716827
Na 15.623252785274328 13.119132273059288 17.174728412288157
Na 14.667454298377809 13.845403461241077 9.12079158325093
Na 14.633551856691042 15.341515032679538 12.666254007192325
Na 15.353668257009849 20.510845070629916 14.555595922461054
Na 16.67773124648152 11.908609261324443 11.151892603277462
Na 18.12714945928177 12.111835706657267 19.53259118424563
Na 16.676964501227967 17.207924487253617 15.235330895339208
Na 17.520631831222236 13.964606324196378 14.1618876081443
Na 15.065241424689722 19.74804007095785 17.834619047423214
Na 17.15008848919816 15.286376300859345 20.645767771937937
Na 15.738294528128694 17.205261536428132 8.409334887628845
Na 18.46959170294047 10.30510772169675 13.627837013227563
Na 17.806851156145566 18.135753007362005 18.89190616123746
Na 19.657557597807262 11.913318019394648 16.513708616126987
Na 18.480726619327243 15.037158036362612 17.43119909227094
Na 16.32907113768418 18.342004435536634 11.685818133987983
Na 17.66869505266988 15.177132310468082 10.352746014083582
Na 18.60271542181652 19.8866296936893 13.764464857767242
Na 19.52109765298879 16.827633950928814 12.682669575093751
Na 20.045504543557676 13.330114420461042 11.738555242596968
Na 20.032376950022847 17.896201454783778 16.155091571377856
Na 21.86086008391598 11.421135628437147 13.879423945897107
Na 21.070516898031332 14.760119894488888 14.969229773528099
