46
Energy = -49.47701011 eV
Na 8.247586999192226 18.379912950535914 10.322000895649126
Na 9.722634671660645 10.702364589805812 16.763149501674743
Na 14.870935081172297 6.568292558980917 13.46154690051124
Na 13.937566124901009 12.119501929731681 7.801100776391352
Na 11.598377848752094 17.45886850682028 16.160139020554933
Na 13.043012485924654 9.946819137525246 18.49272203663385
Na 16.203170356755923 11.449315372481886 10.604328470923736
Na 7.439991501828958 12.491641356412869 7.2316133760651935
Na 16.588441553699052 8.879149029768485 18.968663396722583
Na 8.772556910505333 16.426635684429638 13.27537661381582
Na 12.720772292708004 15.721264943852995 13.550977353290072
Na 17.699387719423157 7.010762840954979 15.902378012220035
Na 11.41545655905841 19.161802256851033 8.698931489377545
Na 14.648584474456147 18.547975996537872 14.379310662056087
Na 15.819034405167342 12.265735746102829 17.901932846909332
Na 9.201351993560635 16.35567358000512 7.341726184404399
Na 12.316309048886197 13.60043124641403 18.428227069440585
Na 14.12540176549425 8.343322037556991 9.673496780556787
Na 13.704420423324066 13.875666025799385 10.995731969537447
Na 17.497051151318963 9.225198528882101 13.101144634043802
Na 10.52440558785667 13.26606011824505 8.381922236205583
Na 7.9579949994636205 8.500804453843475 13.910375754989138
Na 10.626903371609444 9.539921394463022 7.7212227777536375
Na 13.128512197564072 15.85087542339528 7.726025253728149
Na 10.446547617161215 10.533950443927246 13.421643697080333
Na 13.884140688938981 9.818265573293102 12.833722152713014
Na 15.921713489881764 12.451956582787378 14.174191044043349
Na 10.334075017547175 13.502049924311187 12.104396474267958
Na 8.400437691990827 10.76089154108324 10.416328833881293
Na 14.789026176780995 15.367823459365471 16.338103361975307
Na 11.993701477991971 10.93124056654064 10.383671761683702
Na 10.028494337474815 14.154747426561245 15.657452220795287
Na 16.438042409649864 14.936097962669649 9.313733880756388
Na 12.848017901904333 12.071774672620796 15.396858818210397
Na 10.901891656319576 7.767022358560828 11.35105398080855
Na 7.559758093673627 14.697859781913593 10.147769203839859
Na 18.89572208191392 12.818975338083321 12.701994015849685
Na 18.569049206508726 10.630404515744628 16.20281160876306
Na 10.956459351067213 16.291192219204238 10.373091083634476
Na 7.451353706437454 12.386834818311023 13.704676703251884
Na 11.356199554203315 19.056017811031275 12.471954442838987
Na 15.199969164836343 9.254329695701244 15.917121887552904
Na 11.870909160206926 7.9798236904609166 15.256187420141686
Na 14.312542872497453 17.65006129036412 10.76187525678145
Na 18.279916006485045 14.292867805929287 16.039315137754013
Na 16.486469719681104 15.69211371957449 12.972299907358511
