43
Energy = -46.33792225 eV
Na 12.603408781834768 15.620983501917028 9.533995038185449
Na 12.099965978071433 13.084002361528789 6.767278293047819
Na 15.194245833119775 10.723157565826146 6.867893370648672
Na 15.618135639163532 14.45012995396282 7.7789873464306725
Na 8.341322229207323 11.921981848226912 7.5861360707348995
Na 8.84469019200464 15.55655272088234 8.674671441972224
Na 11.70219962663967 9.556580170458002 8.239873728686042
Na 14.930137322936506 18.02272172694905 10.689307211246197
Na 12.564233446939355 13.55547424568567 12.41214532941194
Na 13.902747098437741 12.125697625237745 9.581817273830698
Na 17.315240099226546 11.534319339206887 10.028406383640856
Na 10.480475883933407 12.625687286407887 9.909119747451097
Na 10.71804686469475 18.38720269685532 10.930831372156005
Na 14.831971790483939 8.64266350567098 10.149862907317813
Na 7.057818448457446 13.177907158757266 10.952861041930692
Na 8.616680315806544 9.551520848832963 10.787126276803681
Na 7.0995588498746045 17.259211288587238 11.31493474650867
Na 15.806516829994857 14.67524751867497 11.449120773908131
Na 11.463337887202043 6.847255671244229 10.98276816211014
Na 9.773613844668727 15.336807175767884 12.087926348574685
Na 11.987227455524152 10.045835080561451 11.722094685612776
Na 15.101506971325946 11.23484390297701 12.713640718755407
Na 9.510662229655496 12.00760169503098 13.267834704815717
Na 13.860050467572265 8.005919276958938 13.954712059993419
Na 17.571570436177165 9.086263250414776 13.548808338452288
Na 9.984108400167134 8.510112925457946 14.244414253681924
Na 6.658277953664359 10.52837577405226 14.044672180206032
Na 17.914596651315414 12.931798489590024 13.990907837445786
Na 12.9283383920912 16.913276742014375 13.41176365771838
Na 12.353241613602881 11.184289041359191 15.003307805226912
Na 7.352573237595127 14.41080514509032 14.542641155118668
Na 9.35614777458135 17.740818322569027 14.397159069205719
Na 14.600992836407684 13.945167584115925 14.940632059020954
Na 16.513460472499705 16.72302920420416 14.326469278654303
Na 16.626085857216136 7.592530485771251 16.661543529730015
Na 10.971779544803622 14.599207546548374 15.545646851265403
Na 15.544713907520329 10.7825499822273 16.27703210426974
Na 9.339312966863321 11.357825394070405 16.720360116713874
Na 18.88758107120691 10.451925580177603 16.7544873323085
Na 12.667528317471328 8.769398425408603 17.370956295147167
Na 16.98239978062522 13.956083477972784 17.366255454677322
Na 13.932613752227097 16.39908742759347 17.107030670964317
Na 13.037189961169823 12.814458049135519 18.008873990400605
