45
Energy = -48.16695632 eV
Na 9.941587051842284 15.28443408902101 10.415711046856648
Na 8.56172053200302 18.073931783303895 12.185514596234258
Na 8.034182806449268 14.693162868887597 13.639929472722647
Na 9.198642438628143 12.014782590561664 11.700590385585619
Na 11.55288615507575 12.1409083284535 8.945412892781212
Na 8.903777541768237 11.184559136769309 15.275739451964583
Na 11.986522697992148 18.17254081892047 11.060872213464812
Na 8.10350678710928 17.846889740161814 15.562335596797876
Na 13.222106334481222 15.526537778859389 8.6510928849318
Na 9.155675266365739 14.644572277523299 16.987195953271108
Na 11.668486381293771 9.838854967057225 12.647034187974178
Na 11.010735614118483 19.868512237653313 14.3817690785299
Na 12.906034482115816 9.471384721265084 15.854584879222427
Na 11.313631588386997 16.387194504260314 14.125375321285322
Na 12.70115367738026 13.622682622482134 11.724787695194117
Na 11.680044313093436 12.859993815938116 14.85744137123447
Na 15.097125551698138 18.794597435505057 9.219179339009619
Na 13.838948337683908 9.583784327289811 10.053499230840377
Na 10.81718163067603 18.18889935836744 17.654926956455654
Na 14.814075895298739 19.562083389259964 12.898329288272299
Na 14.918301291295867 16.30748932462845 11.556919646114176
Na 12.55777153322496 15.152711050675201 17.499927249467838
Na 11.350688843271138 11.822302088072593 18.258597206418358
Na 14.948489059016962 7.910137598344857 13.110453252704021
Na 14.047822255896744 18.1686766450578 16.187039904218903
Na 13.710410497624833 17.326933800766557 19.837140799166843
Na 17.158355488434864 15.674413442290827 8.790127133309028
Na 14.687999214289865 14.863183072810008 14.56563971039662
Na 15.444266960119657 12.708736018677282 9.707383040314562
Na 14.672151620616503 12.373725486065764 16.840913408285484
Na 15.245848560900718 11.525166205144878 13.198692916085431
Na 14.509332279631485 9.968576275943343 19.208865202127207
Na 16.612437311904703 9.59936785044445 15.963948699675592
Na 17.277567321394383 9.440953738314217 10.786624162484687
Na 14.344679158667084 13.562194207963158 20.212930426481208
Na 17.961016528562563 18.153395473645325 11.300493409578117
Na 16.203761973782758 15.54254406886526 17.89686876307402
Na 17.26294316291333 17.14209232279366 14.651080501369371
Na 18.6685793428604 7.806124063969039 13.710264290400143
Na 17.71577416874833 14.394680463019451 12.20392493176964
Na 17.916405186507273 13.317431229656963 15.600359996345228
Na 19.046265774050564 12.514996023801821 9.643352594689386
Na 17.555070687656112 12.00637050243463 18.862340061231727
Na 19.191446596857517 11.158644716593209 13.069641131951624
Na 19.924474350420198 10.205122099105548 16.458076903049697
