49
Energy = -52.82249595 eV
Na 21.12422374922924 15.049954552345056 16.998947776079326
Na 21.28884090275707 14.252228469466354 10.8389079159506
Na 20.95012977394027 12.776543605597672 14.206155724400325
Na 19.04716757165054 12.126310526746526 17.63807519546247
Na 20.790385216493945 16.472985985081365 13.736051841879151
Na 17.68770958463905 15.226754917911546 18.86391963260156
Na 19.874779861025257 10.970663082179525 11.247889692162532
Na 19.34301868101763 18.218586673469478 17.108483397815142
Na 18.21689620588599 13.687202241561089 8.783071318424069
Na 18.161949176634756 18.936215435714356 13.896016459185555
Na 18.766730296807157 16.913112292054688 10.796694604047396
Na 16.68682180225415 9.414182812986637 17.57289513144281
Na 18.008722796504504 14.880673839653815 15.281165467924538
Na 16.691807654879415 20.824402122154506 16.774882618240433
Na 17.99525176843669 13.751641872125598 12.114067381766173
Na 13.408450395302294 9.458083641743967 18.6868828162112
Na 15.639207570752017 12.076289201867203 20.07357471042773
Na 14.144328578841343 15.513989969351082 19.035952728107397
Na 17.76486509582191 10.953747244071852 14.498788547861377
Na 16.2584748014506 18.580471904050828 19.54381832613655
Na 16.19134968660393 19.51203156890019 11.002000754954544
Na 16.000995994750667 17.39288715033842 16.341533621647834
Na 15.57639865382884 16.496037329067622 12.800754937862102
Na 16.210601509019817 10.51566210471188 11.418924482262275
Na 15.444217080460298 16.566912636689693 9.127327541393283
Na 14.753699150504765 13.456168048976483 10.112078444827572
Na 15.613697818902525 12.82383111274005 16.888489448138323
Na 14.923465708185667 13.041249651974931 13.582956310901631
Na 13.412409346619928 15.347971830697615 15.606906585458654
Na 14.462239205114592 19.83517376087938 14.143530607971337
Na 12.22147772243049 12.620659424403483 17.93395042863033
Na 13.870746684652422 10.123773158935224 15.138328117451742
Na 13.045858523595832 18.699587816132528 17.45186955304238
Na 12.75225261089418 18.283208163025 10.948161264633665
Na 12.28373194250991 15.055224566775205 12.251181177837054
Na 10.462953974318784 9.643945592773845 16.57417362333577
Na 12.47643193313749 11.218507274071241 11.757807863998233
Na 10.880161474107226 12.842107636464585 14.622130651510759
Na 11.521048282195114 18.00551004646853 14.26056906267783
Na 10.258430404904967 15.734829219398597 17.024115261966394
Na 11.778747412938483 15.242136693532014 8.929637502528225
Na 9.291255383787162 9.969002851321989 13.058744507722313
Na 9.48717793330364 13.151186271834915 11.107751342143548
Na 8.874159197277573 15.925126736793764 13.271929244456304
Na 8.48164623886191 12.539582747363406 17.356650396113366
Na 8.418317503274462 18.510946920680706 15.908530740629304
Na 6.982264108542464 9.763410621695648 15.665559258284633
Na 7.157096825130581 12.775431278811121 13.84224463448036
Na 6.728057268373499 15.416971160265438 16.168203818554435
