41
Energy = -42.47721285 eV
Na 17.30491035386673 8.9239861072334 14.803612792330835
Na 19.65259119213994 11.47626576335605 14.301479105564527
Na 15.586183912553476 8.028330627673022 11.903489150315455
Na 15.558964115331618 10.259924689018368 17.492536440480627
Na 18.213382502842517 10.351174033196717 11.42764540062174
Na 17.88372554307325 12.899598284249665 17.284058120270142
Na 13.763632728985902 9.58058780602086 14.457376736791915
Na 19.254571305644436 16.01055601029027 17.810250229307428
Na 16.30542743794532 9.210042500304882 8.78699046983582
Na 16.08374265041299 12.287337306073749 14.350713941554664
Na 19.61308852383373 14.937338882996753 14.722019436758274
Na 12.102317294030753 8.561220223268883 11.450983008165592
Na 12.075339492181508 10.983705090946865 17.11780797360902
Na 18.339298615743694 13.728363610780868 11.769577354570444
Na 14.42438281355949 13.60928095654087 17.420418680776557
Na 16.68739721089475 12.569461841406415 8.901422556417907
Na 14.403308172889435 11.317919419425586 11.281097918110639
Na 16.157309062658836 16.217081508523986 18.943903554729804
Na 12.378574994449966 13.040422106161886 14.302464016147974
Na 10.33084077988197 10.166161736498102 13.882790628294625
Na 16.904486225972626 15.93734161541214 9.230370891323942
Na 11.169414033233519 14.304026592578108 17.654022383132954
Na 13.421436468233694 13.796601812274899 8.803388643739853
Na 14.96413117820507 14.737454047745254 12.15334581741349
Na 12.952378424183147 16.28527882136038 19.901437963587647
Na 8.849424603878727 12.056508197282708 16.276451764854976
Na 16.34624752382155 15.821173103843488 15.42051800851249
Na 10.994820370491974 11.740555842330966 10.50713120709536
Na 17.757370894286517 17.14019594492482 12.413864624486804
Na 10.605805630166634 17.787783329690033 17.84335514201344
Na 11.7048561232175 16.324148490199338 14.680251183951096
Na 14.013418820977193 18.03348202729438 16.956600000594747
Na 8.410939166690934 15.492221933940721 15.975174148310826
Na 11.488193415722046 15.098151266535776 11.360468896890396
Na 13.790613999008125 17.224109501729078 9.887861052861936
Na 9.053820764338267 13.290228922680129 12.973316172472307
Na 14.60238996719796 18.14283446323546 13.436267248143212
Na 8.69562147064568 18.92131474771555 15.104604125587837
Na 12.033302431482303 19.929705107866926 15.051493049118106
Na 11.361228083122306 18.61857226804612 11.900158807740286
Na 8.557309631519418 16.677072004804867 12.601419500362875
