48
Energy = -50.56351644 eV
Na 19.695758241735675 14.173047946359304 8.287304475722905
Na 18.86788591805941 12.193345297388268 11.180420924030031
Na 16.269096689390214 13.058414877815224 8.926208696490496
Na 19.723127798364203 15.620445431554568 11.49364865293028
Na 15.553297975575939 10.662554099726284 11.325539704887706
Na 17.097902645980906 16.42462611093116 9.230453994557024
Na 18.177001110841957 10.236869672181053 13.86232253075713
Na 12.89220730420344 12.172978209060588 9.418163688154085
Na 15.385106781931448 8.03001235250906 13.606401274666476
Na 19.296535540286346 13.817317136566349 14.465520277461295
Na 16.10136431819966 14.067607104571946 12.644334557206632
Na 13.804853654778354 15.383686346945401 10.059180179066422
Na 12.302813147818659 9.506256590100348 12.57393302443645
Na 16.959817039629442 17.717155079866068 12.415371922303184
Na 19.625788968447104 11.318702657250165 16.787824581536295
Na 14.377655414301616 11.372672233826075 14.493796194198548
Na 10.400108193466275 14.798782990479378 10.409673890134409
Na 16.23472461997771 9.38207222426714 16.78448173500165
Na 14.58538635715499 18.669791583621166 10.08690057405794
Na 16.4873786635503 12.897896840405227 16.33175040293752
Na 12.445943611865214 13.450965349023079 12.833012216060899
Na 9.943385810202427 11.321898682992455 10.997866617326993
Na 19.681178756579943 17.43609788995029 14.419124966080803
Na 12.768355572609696 8.55345130092496 16.018373739914917
Na 8.60835654821399 13.26553565532254 13.400835444555138
Na 13.689465328675277 16.7154370257355 13.369071999508023
Na 17.27257714685722 11.366479901658 19.413079391357268
Na 16.493932642590067 16.127588457239067 15.65535010306984
Na 14.269186517727052 20.191369325000764 13.051476785583223
Na 10.261326607290826 16.14267007962066 14.076317335380597
Na 13.554781761190862 11.31466738098706 18.012120982889567
Na 16.939589603460558 19.61781211270146 15.238831863709825
Na 13.035655136483934 14.57969412806894 16.306039879483983
Na 19.218439487633713 18.006512005722435 17.70269104111896
Na 18.759820936538762 14.566369026396384 18.270708233920306
Na 10.923989493876016 11.456372322590486 15.518382775340603
Na 11.391198755823739 19.2835233144425 14.795458082340918
Na 8.749506975318818 14.002631525852705 16.75208202136847
Na 15.11302435970408 14.00188919896767 19.464313193843097
Na 13.922265054598316 18.039215896168358 17.022872827259338
Na 14.00028858127482 21.41472014311058 16.346513864987223
Na 11.273330994309408 13.597312573665281 19.284283544677045
Na 10.500142433038935 16.84544986149596 17.511008196534785
Na 16.80705625095846 20.49716994870444 18.535352784936116
Na 16.27056690798955 17.132989186672972 19.44110826244403
Na 12.835613388599795 16.548685497138738 20.077013769665733
Na 11.202922147332574 20.17265614496585 18.175519814576695
Na 13.979624121099432 19.7774577716217 20.264674540030203
