42
Energy = -43.72432308 eV
Na 18.54305934247808 13.647597346908062 20.009724815167715
Na 15.556091393325211 15.173211602748763 19.425000261884463
Na 18.622386244858752 16.486462191165426 17.770623411654775
Na 12.659462292629625 19.83016192708542 17.118960715335074
Na 12.627016939756823 16.67302242773601 18.707142231367587
Na 15.399886408254075 17.59063223065292 16.915570611792955
Na 17.98426596685174 18.495957814618357 14.77524980735992
Na 14.641899926636988 19.72385480457869 14.268755564602486
Na 18.919716967233587 10.656713660990345 18.14850456782318
Na 15.523311903224867 11.610697067480976 18.91840004723668
Na 16.67906217243274 19.83696859868206 11.472327484263984
Na 20.627101904575447 13.587063057954953 17.053460605071912
Na 12.426505700196962 13.133159238664035 19.208283684570986
Na 9.863445462920868 17.85786456488644 17.105015432857098
Na 17.16485899851924 13.534264205608098 16.538405956861183
Na 9.464381559840675 14.734025548834182 18.5696637149112
Na 19.39409501366025 15.318356229400036 14.450384596333006
Na 13.962846719587677 14.389666454672096 16.30495871807032
Na 12.365579908705142 16.99545178360929 14.70027472092325
Na 15.794710175397693 15.97132518551096 13.571121118201985
Na 18.991281768137306 17.206074314919412 11.634414879782888
Na 13.214708695775714 11.02992420085511 16.16749462716198
Na 13.595843464334335 17.776078506891096 11.432857010522335
Na 15.508158869511433 12.391313660144634 13.545780969196883
Na 16.20143187230901 16.548771905243594 9.711206278032442
Na 9.905889388687777 12.17618957068444 16.21799886388333
Na 18.101483776763594 13.675083114783334 11.657106101963253
Na 19.24671504033966 15.310513268325662 8.72722425859913
Na 16.504843460930193 9.842114662771971 15.853088942981879
Na 9.215355373885814 15.425657441167447 14.817960045977047
Na 12.200313737837988 13.402875246582349 13.667783562216755
Na 19.089211075049292 11.680551530777372 14.294200864760736
Na 10.821253829170523 15.838064308909663 11.557203360919258
Na 11.089061738329187 9.93312423798634 13.594871567731499
Na 13.916149157908432 14.250320613336948 10.807373370285385
Na 14.818034452757269 10.850781687098586 10.319755532776254
Na 16.631138373133105 13.1123295591245 8.606869097149293
Na 8.963818642967428 12.399799562225255 12.800692813082259
Na 14.417418585601643 9.018358403078574 13.254878437001846
Na 7.377074307871349 15.334097912930954 11.945761088447787
Na 9.003055667354884 13.644702986140844 9.506372311314472
Na 11.545901335959439 11.606196041190389 10.408994073263017
