48
Energy = -51.55723763 eV
Na 11.83215237237878 13.13872303730994 7.183817844541769
Na 15.31700350151282 14.453785144371023 7.971216819349972
Na 16.050312364311104 18.182339881338628 8.847779216803454
Na 12.795532847964498 13.325470306256204 10.472839478592983
Na 12.593106573162943 16.66106420469554 8.727075240691455
Na 18.429320490633405 15.664396925054739 9.973092282790484
Na 9.773704265692684 11.213941672211984 9.544866283889485
Na 9.65005415701344 14.78988185007395 9.42886583825401
Na 13.291579037360501 10.07354572155554 9.618577223845213
Na 6.6764027507300145 13.03762030729884 9.478941881406513
Na 16.317024249560205 12.405979841429575 10.83888394325726
Na 15.02927596062115 15.953989576780952 11.150909813083262
Na 13.653612998458613 19.111131706058035 11.68141948666175
Na 17.4028325399365 18.417325236054978 12.358251416738476
Na 10.687373244610834 12.971638968570781 13.087348631707684
Na 20.527991839862295 16.80725884876127 13.123432802517494
Na 10.912781584739529 9.488351581632644 12.438951935149138
Na 13.752717741091717 7.225886037823592 12.196862698347521
Na 11.454469040631249 16.370516412065395 12.331930680578921
Na 17.621145855303276 14.867281968031504 13.26564080351662
Na 7.653991529374682 11.385677108901332 12.573138034864686
Na 7.626854564637406 15.087452472654979 12.172481503815535
Na 14.257920342363757 10.487319643950574 13.034929069735412
Na 14.32054738611363 13.795515335348654 13.688495091596794
Na 21.450421701715875 16.744736995776893 16.56279608414561
Na 20.135602637087942 13.685443435423585 15.300875399353169
Na 17.4894193554587 11.382304229917557 14.192298410976427
Na 11.944907245044831 18.935608637931264 15.081394706088885
Na 16.38874822955657 8.020838560976125 14.75502792231556
Na 9.639009777489573 10.603366045357248 15.741463607183062
Na 18.04141094518932 17.099115511167927 16.152750987788664
Na 14.873005445877782 17.095462838754628 14.628136576343989
Na 16.47622070116757 13.916605254027402 16.607660927922932
Na 8.831805961881528 17.379362754694682 14.70532433323975
Na 11.832630803686223 15.391972713409313 15.75756178207049
Na 12.729017597237775 12.012818526202533 15.94107572929469
Na 16.751718388800597 16.18182033464262 19.451170578895844
Na 8.35787011915538 14.035879964258735 15.534555805810468
Na 19.613210754146372 14.422792433173722 18.70409424787797
Na 12.802271722410262 8.442047491006587 15.561014419873997
Na 15.542016923548623 10.392915072111009 17.247732577917713
Na 13.782470942398012 17.553901716196133 17.963204376331106
Na 19.06261747917918 11.054487393832702 17.471535535310373
Na 10.275221251271741 13.374071192625777 18.352048201433927
Na 16.885487347241373 12.53549737480247 19.95853067884842
Na 10.015566328485363 17.108140378754843 18.077047773502358
Na 13.739588578821396 13.966887284419778 18.8148094041873
Na 12.290530668843543 10.326308216066368 18.826620055310777
