40
Energy = -42.94025093 eV
Na 9.80105124907473 17.02909366107614 17.12363376239963
Na 9.506723357434723 9.455104373203271 16.514494564521478
Na 16.398110552750296 13.454584493091257 17.157316355149476
Na 17.900176754180247 15.192814569585403 10.871873563155185
Na 9.338812003333603 13.221139913235005 17.500935767148327
Na 12.427554795241443 13.557996568193525 9.467425204030324
Na 14.18321348036067 16.712741731361664 10.54852413371521
Na 16.568910636278307 9.739013431666407 15.977455002751952
Na 15.918605308281489 6.694305684421402 13.710608182341762
Na 11.082605287812882 11.863421647991817 14.813903799269598
Na 15.462004008676722 14.14017322350076 7.939530897002198
Na 12.078815673346405 17.665097156880762 13.930911474940848
Na 6.633209808131067 15.444309463232226 15.826863578436088
Na 10.700208266938231 10.234753771592034 8.951689029172128
Na 8.137954339592053 18.00391347161684 14.014918677889124
Na 14.520223036843737 12.236192829795659 14.674424430930364
Na 7.093345455650381 11.25030943745916 10.529361242372824
Na 13.014502463712427 8.805918945553238 14.742502530498362
Na 12.718418137728094 14.792744486114943 16.477039586168914
Na 12.237439267717345 16.160156825277348 7.38054769426519
Na 15.345738288426675 13.171900593256478 11.300146315296665
Na 17.100561511718496 7.5752869735774135 10.360967473229564
Na 12.629657613476887 10.99049795839444 11.819305902453557
Na 15.740218567196745 9.854506946879185 12.471773680237831
Na 13.203326731812203 7.723400814879152 11.030861397544623
Na 9.772965002219227 12.818875116012432 11.590235082051839
Na 9.198673586933912 13.742961757553681 8.26797358759241
Na 18.02739272906678 11.32089021189848 10.260728978688812
Na 9.678403791688075 15.001142603801043 14.392156550452185
Na 12.240949674359044 12.460076629930487 6.32340644097505
Na 15.754884714475843 15.603855761878327 14.02985630432724
Na 13.002928403467195 11.212003811067893 17.674430019946083
Na 7.5304853686143955 11.875135896521169 14.384011523345116
Na 10.446773307110462 16.37390134971604 10.75679869924934
Na 17.980200483710238 12.614289057961704 13.829076200818882
Na 18.934176231954634 8.870962026493423 13.022540305297275
Na 9.636559920658074 9.305415671244257 12.670435686136921
Na 14.444783295335773 10.55306698043797 8.808101317172365
Na 12.62131264414108 14.493161191891074 12.820216800437853
Na 7.047298217211989 14.844056928419597 12.09219222524945
