44
Energy = -46.08174259 eV
Na 19.06478896998098 16.217783374989228 18.54233254534136
Na 16.31087762141627 18.014855463083222 19.662244650662608
Na 10.133120263430163 15.052313039656589 19.524406775061212
Na 13.17812023710449 16.5861071611859 19.459367352965224
Na 10.246416303827301 12.009763390463604 17.408696470360894
Na 15.816692283945567 15.083057143845744 17.60726823818156
Na 18.930550069658356 13.190810077290413 16.796982867890467
Na 13.148547563539928 13.135527470004984 18.714288617358388
Na 15.851254629980355 11.668433262225694 16.97705020635932
Na 12.921760141480958 9.873398416928186 17.29432103067489
Na 17.987109387803756 10.795288507999064 14.35654729110272
Na 14.778293481968484 9.396807438988015 14.520475187533966
Na 10.321235846405132 18.300455065783108 17.89351034587326
Na 7.692810163007885 14.572183833153431 16.976770502800186
Na 19.752012814602505 16.340698081998895 15.119166484695723
Na 13.772184988384918 19.254289012711414 17.303199070081835
Na 17.044697784388763 18.224413884796622 16.253835179198454
Na 7.551346015853877 11.284986908825962 15.533777248728333
Na 11.576175993257097 15.498516171011264 16.32650327740744
Na 14.277315417760462 16.668760505064224 14.720439542919303
Na 10.783153860352012 10.216788171911768 14.3056561195676
Na 16.63279157256625 14.160584560465958 14.268866440687276
Na 13.183307606333734 12.82277752393291 14.932730495974976
Na 14.968594133855863 20.286730726045064 14.250024925365693
Na 9.649681586708132 13.626206925953856 14.111020803446095
Na 16.948564346832764 8.453956315680292 12.018215562180027
Na 20.085758030197738 13.459789455032867 13.35218788450803
Na 8.665636192542275 17.13148372552677 14.828731676672312
Na 12.827702121965583 9.320477991305635 11.630903614356068
Na 15.457946411780503 11.674265366532056 11.756368737106765
Na 11.620436677366861 18.87651501206062 14.539094716926595
Na 17.174342289312033 17.47912974877564 12.834545145891292
Na 15.133413274515059 8.761487077567823 9.097549184182817
Na 13.71134176983637 18.5129261519402 11.651395054828118
Na 11.74460817185487 12.661193658368678 11.66463858394241
Na 14.424310184097276 15.006449919002268 11.658796846127903
Na 11.030941561422987 16.227118224661655 12.25426064565802
Na 19.190230878635642 11.1079030418301 10.998345308673855
Na 13.284408391614095 11.666662869023853 8.76796542526658
Na 17.77193112696925 14.382959850656484 10.763746841557277
Na 16.91748343085522 11.66439904559329 8.503875490962344
Na 16.20021445820589 17.43260734205143 9.537849260668795
Na 11.991718803870134 15.085265423069494 9.088186659205805
Na 15.28541188259642 14.569682369181955 8.11131743569466
