49
Energy = -51.39680656 eV
Na 11.365601452876048 20.04185880041207 13.21199271977305
Na 10.402712174217418 16.937736950891548 14.545295282830784
Na 12.065951048892394 19.716599205653175 16.536568974527075
Na 10.783181561689428 16.634080294479123 17.880096929754558
Na 9.43603842016417 13.754572357335809 15.746834087644844
Na 10.668401619064909 14.091959462676439 12.483968319677706
Na 14.341833784216806 14.320243344256523 12.781863935410511
Na 13.898080254615124 20.02088711757809 10.864097517058735
Na 12.329903977788586 16.994835950426687 11.575680419810865
Na 14.86259221378273 20.657265376729473 14.324488338214575
Na 10.668678533223396 16.895549716597625 21.250592077545484
Na 13.957244247763763 17.34179182414432 14.751744976827785
Na 12.89705396334727 19.21033326457863 19.820044486222887
Na 10.947786711928453 11.457128526139238 17.89545226373988
Na 16.59544370821838 19.639057223324013 8.69874429964096
Na 12.88998524339593 14.181396083922046 16.218090526692233
Na 13.33226171646069 11.539232823959011 10.923315593075378
Na 12.368958984700408 14.102451451500945 19.80439411224731
Na 14.538227519830043 16.482544968412586 18.17250938982953
Na 14.045793241809573 16.535032717328523 21.954908579408993
Na 14.381723796156745 16.966749242636425 8.655214291575525
Na 12.275131588651412 14.348284339099209 9.368209586379756
Na 11.888588897250148 11.462563881437292 14.311882659549726
Na 17.45757681914932 20.493004395568825 12.028966638475971
Na 15.866290916409328 13.746408227394772 9.456784936856833
Na 15.474186137611914 20.017446490335868 17.63793244252848
Na 13.226473578985438 9.148158104091614 16.582573742570442
Na 14.254152111830203 9.114302920797487 13.091971257017512
Na 16.547531691936577 18.27345497047985 20.424519397279802
Na 16.078159692154866 14.277839965751463 20.544706749011095
Na 14.472483480776074 11.56797528573513 18.865736449619238
Na 15.391272258814322 11.71878816685477 15.209180812930107
Na 18.03170353210113 16.508645657545593 9.158065508498378
Na 15.950507855173628 17.338768730900874 11.902053200568284
Na 16.484002534377755 14.993557805756222 15.522137468478848
Na 16.842617269388757 11.260461042228982 11.686855474707794
Na 19.593393572712387 17.749954178495816 12.109136102409929
Na 17.59134484899701 18.387785099976888 15.236259284259024
Na 15.497466524310452 6.751470587717392 15.24905200634611
Na 18.931015015112763 19.55672179703926 18.255058521182374
Na 18.42688776691377 16.07805555654657 18.285647288817508
Na 17.588381814333108 12.656947406387228 17.930692817460223
Na 16.652997244386494 9.196940568435608 17.540954325756744
Na 18.004199497048155 14.562237611860645 12.077083807002602
Na 18.816649707653458 12.376156621997874 14.480198562966045
Na 17.874161764835 9.006981198233307 14.050944932141569
Na 19.971940277278033 15.78105349534515 14.81004153761885
Na 20.799521627548827 13.522674675786382 17.181956639241733
Na 19.962644160347203 10.16682318769235 16.809990885541023
