49
Energy = -52.36347756 eV
Na 9.385588462884389 13.119356522233879 17.472396871071055
Na 11.885800951772442 10.623918778998354 16.826194446725445
Na 11.92761687341505 12.790233339783384 20.03367632810315
Na 9.672301222365448 15.809911503028738 15.091304364199312
Na 10.16570597134187 12.403327651185505 13.864364900528823
Na 12.20702755930423 9.088075972149694 13.591914524873575
Na 11.231141145442011 12.089840594416504 10.094253364121835
Na 10.007753422160894 15.186989687013176 11.375717131842281
Na 14.609367788025969 10.37549218768735 19.373075718418463
Na 11.335803304126737 16.09290292839059 18.64495933036716
Na 10.430621971955336 18.597723276580012 13.198941994343569
Na 14.965283296812448 13.949781616971554 18.87793944117865
Na 14.946982758963006 12.881731397448664 22.23192825122249
Na 15.30790017284982 11.79992187778366 15.945148178750538
Na 9.664326065717052 18.91344315752116 16.836303396018835
Na 13.580686775716671 16.14931719732895 21.495924545777143
Na 12.578949059944613 14.006983300889825 16.18977467971199
Na 17.67255202110785 9.74548906175862 17.307368339857618
Na 13.452940090278856 12.213126048402493 12.848738745357698
Na 13.72282072893987 9.567415719305842 10.318588726399899
Na 15.89902777180407 9.506042526849683 13.299653259361499
Na 14.46345397348908 8.232273400216103 16.339967783698043
Na 11.45722305260978 14.910929641625447 7.8322706472963075
Na 12.318734349133246 19.32548620723178 19.405575897946825
Na 15.258251407009956 17.608284522928905 18.77832584234521
Na 12.97763788331457 15.912822425625935 13.23185202103916
Na 14.06882869113987 12.274703410706191 7.772370202094701
Na 18.730446236304918 11.568425615082477 14.289396799150952
Na 17.73594321102925 11.777361477716944 20.450503925260307
Na 15.752860180184896 15.638151488674858 15.803920796179844
Na 12.062810294574948 17.733453895398466 10.004903516817139
Na 17.31613272604578 15.422624834209797 20.92190183805626
Na 16.21481948571599 19.286086511289923 15.546326946632716
Na 16.45988330322614 13.72134397305501 12.906077076517121
Na 13.951168292505322 14.68117007702403 10.209637422976224
Na 18.260564071044612 13.445850816694833 17.390351319389445
Na 16.597707616392633 11.543101532039442 10.30618431336217
Na 13.886391641670302 19.474807619985846 12.665222350281434
Na 12.8908269965347 17.988708774277637 15.995394570907361
Na 16.423077442766154 17.07780622538888 12.661975171965466
Na 18.557766430430373 17.108678458565276 17.51136387923041
Na 19.64579147411074 13.507812447364966 11.311961919388603
Na 15.654892085271635 18.17526198238196 9.489453865168153
Na 17.190418576598244 14.89260490077435 9.161777562448789
Na 19.345547842958062 15.28542820018015 14.395759870264742
Na 17.360746296543944 20.397039589790467 11.944689834042833
Na 19.564014643809518 18.783283604996832 14.302958649931485
Na 19.408582586019158 17.223282085558086 10.940796928634938
Na 20.871903288090778 20.418678878758335 11.46546124455538
