47
Energy = -50.5108171 eV
Na 15.227631779605504 12.99759063898575 6.832716409843856
Na 11.791346382732302 12.566757897824596 7.759757666205216
Na 13.139776491569755 15.921169974847288 8.265600281512691
Na 16.773067639182162 15.565391747092749 8.984542694403473
Na 17.545035879004313 11.754931437229297 9.487148400182079
Na 14.435935336047498 9.94156470647438 8.700481898253718
Na 14.240805717720749 16.248955378301208 11.625520490453198
Na 11.082549099593093 14.56149127439487 10.911004506164653
Na 11.774359703090925 10.894618200692113 11.01529451537526
Na 17.90522229631531 17.27943404532961 12.001600335445522
Na 14.285616489665216 13.0671774601195 10.134791502285818
Na 19.807054243228404 14.351361507691735 10.50911813606257
Na 8.50843145439396 16.09214004737012 13.032122090195145
Na 16.82873673780494 13.891647384087227 12.213172288442523
Na 15.115439280293353 19.55533628002115 11.932251021196052
Na 20.307047230337115 18.31449373927552 14.342253044908874
Na 15.557235295193255 10.303381824091753 12.563622446524981
Na 19.063713817853777 11.379507215195101 13.108356778657253
Na 9.920983965660533 12.797607966886737 13.824233140372648
Na 11.396866997409202 18.202640448597666 11.773439171786885
Na 12.246149178758085 9.816362430923784 14.312131829949259
Na 13.535694506392806 13.058347337555926 13.731298158949036
Na 18.450725756550508 20.8337375994676 12.38770265105756
Na 15.573715946648715 16.155321296785026 14.780619504267618
Na 16.96020027261137 19.370138230488156 15.179623428191618
Na 19.702181829052574 14.748883026141186 14.11698913937737
Na 9.671252437556216 18.66878699928302 15.215671818683791
Na 17.61445610986198 9.463196677148945 15.792276464478315
Na 13.307084133318146 18.991336888438262 15.072613590578554
Na 14.437107869193126 10.710029243521545 16.852824615935486
Na 11.759051595951114 15.916051068767816 14.484762470807599
Na 11.060661604573676 12.013841820241817 17.071437336693393
Na 16.687434246837324 12.93096776248024 15.55512848497006
Na 9.06201682144514 15.206118745909402 16.635082213508685
Na 19.589167411971644 12.403852182993287 17.02844590649302
Na 18.454482843182156 16.32645473205763 16.846901678008944
Na 15.185812917665546 17.625118560708202 17.96526142662302
Na 13.472811499603758 14.467235447252877 17.21835284664263
Na 17.00047577324176 10.792860430089707 19.303247108482566
Na 11.529860302006027 17.456484831823655 18.16330590601862
Na 10.555467535940007 14.255380778262996 19.79246065327014
Na 13.385928714577709 12.066702886665071 20.007663367190695
Na 16.56050511271557 14.161977307273204 18.928883689020864
Na 13.768909861238223 15.765479780603586 20.69895526955671
Na 15.8630626601549 13.055751419628576 22.21536621165012
Na 10.653442755103953 17.203693096192413 21.610804040303382
Na 12.079339615463548 13.72254539310589 22.8890185193367
