44
Energy = -47.28695768 eV
Na 11.760637432267501 13.957032040218756 6.640265701312888
Na 10.399212338200517 11.709431304494865 8.998320327212385
Na 15.356833818668324 13.246647530525076 6.151256720820413
Na 7.576988749841295 13.707134245037272 9.14108748989367
Na 13.482165532097756 10.409069755233642 7.431904658922596
Na 16.840650340308915 15.756977448351234 8.26269069960572
Na 13.545150373775021 16.80149799060594 8.429880201207245
Na 10.845948756654419 15.1145688153846 9.94356076656106
Na 17.472322824385156 12.28931289739439 9.323344237236968
Na 16.147522509024572 18.103200154413642 10.818153528568345
Na 13.389402342040487 7.328563312910062 13.629572625182679
Na 11.740199627496873 9.035390648936536 10.651880230874898
Na 8.866773238520985 12.98560890437187 12.242937120645756
Na 14.002286480491309 13.236123452630174 9.273881785281782
Na 8.264097144876677 16.647355383801155 11.930128145628517
Na 15.032598390385479 9.853766920248486 10.762605513619116
Na 18.62974063335252 15.43132021318595 11.13607150196109
Na 7.966057260956785 9.82804793820939 10.947673150046763
Na 14.164440413930336 15.578008060754355 11.718118999938975
Na 11.815954232469391 18.20809321291186 11.607612783243168
Na 11.04313003845051 15.338462119218915 13.54733828433064
Na 9.591101992205626 6.4426280177709145 11.905126183636225
Na 17.122920628821873 9.460300858141979 13.621974488156118
Na 12.236501405953373 12.287475954437141 12.056887719858144
Na 9.790603924524959 18.189381217644364 14.972075811420257
Na 16.955663147715445 15.60667653878949 14.236610699772395
Na 8.065644067943689 14.935610774489804 15.325035017209586
Na 10.19375378592442 9.416197684032195 13.751290900518763
Na 15.944195084520965 12.741057519396428 12.409340852829118
Na 6.899739472950838 7.6357160602657315 13.929590964558528
Na 19.19365139369255 12.41280556256102 12.977488567697742
Na 10.01944913496278 6.130143073413876 15.447785777230965
Na 13.627054612499172 17.502336569886957 14.845590417533664
Na 6.994153288095412 11.154730672914894 14.454249361476792
Na 15.546280395137064 8.6861044713063 16.759646373049943
Na 13.832914413290725 10.535824337381003 14.415828873320123
Na 13.83295237011813 13.916323495728584 14.939304436360821
Na 10.607474258532338 12.283599981701675 15.655929029576297
Na 11.483838616788146 15.518517813661422 17.11645700768751
Na 15.313231568858175 15.34855788212316 17.63112260216117
Na 16.886731244242494 12.22578533245291 15.951901575927822
Na 8.424852844829015 8.836543920475084 16.831621518903447
Na 11.998282885800428 8.747619317573255 16.891179503895284
Na 13.610033938253503 11.933587548870303 17.798814798980363
