48
Energy = -52.02134683 eV
Na 18.640925308038305 13.157105412939531 9.089801985373297
Na 15.232355078346549 14.587555859253898 8.193192437504285
Na 11.541981539781286 15.537624303897266 8.665819551167457
Na 12.788939159991614 12.149515945369995 9.584501973696756
Na 16.048958887689942 10.338580050426529 8.958514841612416
Na 10.17786993428259 18.95339524770157 8.84046416290042
Na 9.072665833322434 12.765678230716413 9.116451704778617
Na 13.985031875313704 18.185485411527765 9.015820609249756
Na 19.020221874336666 10.344882631750407 11.548208367818939
Na 17.237983217988095 16.435425606749188 10.472618589566462
Na 10.000372490983175 10.474753446006934 11.68759915848242
Na 18.979629182535554 13.934665128218706 12.743201739212399
Na 8.39951441542622 16.164917201746903 10.536278955646432
Na 13.012140811076142 8.849462483015234 10.765076857918595
Na 11.936240159946168 20.92170504886558 11.294716031653275
Na 16.123150175742303 12.655488782843314 11.33792715825669
Na 11.481059458307833 17.536438724608228 11.670829245442599
Na 10.862699882874075 14.090737474974146 11.89396019937568
Na 13.140227475309123 11.830523606855671 13.1448279557225
Na 14.141899089492151 15.32816248025486 11.462263162758775
Na 15.823003662226894 9.464861790215183 12.726536726299592
Na 7.562016840693376 13.02100440988677 12.561715499204643
Na 8.718218083951719 19.407407380112815 12.29332419493449
Na 14.585322892097194 18.949419663031758 12.603360681977595
Na 8.340588971845698 9.589943580230797 14.711685266312717
Na 16.786787803777653 16.77388442587069 14.191040076400304
Na 11.853874227395663 8.591847827071291 14.293743867343514
Na 15.141012780988484 6.8238913372409025 14.986912194689312
Na 15.750342858100153 13.536101146701265 14.663124726327155
Na 10.169951381375217 12.533873980408481 14.882375930290014
Na 13.07398874658136 15.981918543446065 14.594596105285493
Na 18.081163270202214 11.027306893374806 15.082409325116142
Na 14.493125471551139 10.213487726008104 15.9932881949065
Na 11.518549513453257 19.330124601055292 14.678340900916368
Na 9.441925507820482 16.153984401880656 14.514361468655254
Na 14.776654665272101 19.056960108585642 16.261272359693287
Na 18.693446616222346 14.618178413561537 16.370456775646566
Na 13.01025705259655 13.263907061401708 16.773861282875078
Na 10.970282030699568 10.317713514287593 17.462325047217284
Na 18.59431270143582 7.720396730186019 14.116356945768512
Na 13.243360335119146 7.439000493634464 17.86975258017566
Na 15.481946800238722 15.863962510093724 17.557325509619293
Na 16.42871786067525 12.387916774886135 18.137731911699433
Na 16.92372900075055 8.598819521336484 17.699417497845964
Na 11.963435456674443 16.93828718784062 17.689585787897403
Na 9.946700953269612 13.962058527146779 18.10051450493398
Na 13.90093107715347 10.404688736519569 19.549697183061486
Na 13.315917746337183 14.200379795553035 20.02624292605972
