40
Energy = -42.8624819 eV
Na 11.999653625940217 14.316765122824739 7.4541147008431885
Na 14.908447920187692 16.288406655715587 6.758483556181474
Na 12.00696266479828 18.00502074756616 7.675825416740409
Na 9.0939528163332 12.288839738953211 9.074518702158954
Na 12.469825314781344 10.292131655263773 8.748284415754874
Na 9.752662201332486 16.049464187990754 10.004059501724889
Na 15.255729474708488 12.913557815637406 9.067510593154868
Na 13.830934030072521 16.348721667863856 10.056574979285632
Na 16.154235644190596 9.17836961570394 9.680482788176604
Na 14.890612098431458 17.528946523191877 13.29813338730893
Na 11.898859098364257 13.258111944393995 10.618775497441822
Na 11.640813955416172 18.908170397903923 11.50591942275823
Na 10.395673283637052 10.183346532143519 11.879185839990452
Na 17.54166330398275 15.388257569884873 10.89232554006998
Na 13.419581547848974 7.531751398581529 11.513402193715086
Na 8.758910771075966 13.52188687204668 12.649350329398278
Na 14.099763198669457 10.750508791657937 11.838992146377858
Na 16.308229204491575 8.723688946464922 13.681090408894475
Na 17.58927166914423 11.740548010893718 11.883725529733926
Na 14.81164464180867 14.100836978167607 12.403910665746828
Na 11.68383099463967 15.806831269986315 12.925799699812519
Na 17.378723224698696 14.883249090728741 14.792224060851943
Na 8.730241661275121 17.314162853610647 13.49681844395595
Na 11.894806878605175 12.514617000061802 13.96056384860999
Na 15.317472168716746 11.860513246759629 14.916530482476505
Na 18.59339555587437 11.501741368523891 15.565491973548337
Na 12.728540806551203 9.127131897783638 14.918091832181346
Na 20.20941867621735 13.64218196500754 13.01009194744215
Na 13.783574811866501 15.007641842723382 15.593011425498775
Na 15.441580172075861 17.272487401134654 17.304768703078665
Na 11.969849427493218 18.049038008183754 15.611781322568378
Na 9.41840193940021 11.107177071160393 15.920122346444751
Na 10.079780679624621 14.785445412410935 16.115107224685655
Na 15.21158017600833 9.902877823697196 17.682027928993147
Na 15.993373389519228 13.59231747018307 18.01677541563126
Na 12.584938456910452 12.222519145293287 17.24045257776822
Na 11.490370836769403 9.396355972523267 18.688887221755774
Na 12.62200335709706 15.371371711275442 18.902261763868722
Na 9.887769627399331 12.694214542218889 19.283251339104396
Na 13.296763064022716 11.77463610386417 20.515117196247967
