49
Energy = -53.15155886 eV
Na 17.79561914354339 12.102824591911501 8.39006986787599
Na 15.067087914942485 14.503125488420023 7.423178190796231
Na 14.487903028640357 10.383281538186688 8.239957165090905
Na 11.785612861761265 13.104959184392513 8.457617422651781
Na 11.207893894526869 9.618199058776963 9.773783721524365
Na 12.268490934144227 17.088907136575376 7.697101391718677
Na 17.737477359031907 15.65608914310556 9.661414036034234
Na 17.000089940117725 9.465959684712805 10.902517972062995
Na 15.195760792067393 18.46757569273373 9.388542816504007
Na 11.37398363016224 7.087615761125563 12.69288533862325
Na 8.588138445006914 12.065509668397585 10.516453397896079
Na 9.797177117509097 15.480816019576356 10.45699339016972
Na 15.227049209741418 12.805315726353466 10.500294617443258
Na 13.541566021313407 15.710059070425832 10.497848097451689
Na 11.781624659984688 12.8601225754704 11.956874261360683
Na 18.247142323387635 12.720847020356535 12.13708048961757
Na 8.119366467953892 8.297131751869596 11.184513097128672
Na 11.723276060229054 18.67852298265237 11.066358982780951
Na 17.97006658889466 18.784330361601352 11.727197125384015
Na 14.135409043327886 7.192787365894014 10.127137762328449
Na 6.513216991792033 14.636997983675785 11.853482482923658
Na 14.68163060211775 18.875032529455247 13.118006653401142
Na 13.826519230444664 10.027939564823189 11.966852796923684
Na 19.73808150020188 15.972647768789242 12.864935493569574
Na 6.6357794659368725 10.865386104199676 13.440563297750245
Na 8.716572070065261 17.241694009023554 13.441442444345729
Na 10.115181550758336 10.228796229930802 13.337643161078969
Na 11.99387232649141 15.947834110668888 13.5356794248177
Na 17.777318818504913 14.007260471174119 15.541029669398082
Na 8.162456542428407 7.550099983576607 14.607000868519977
Na 11.600009455769678 19.137996454227874 14.81604977582717
Na 14.876262119455584 7.228813186490342 13.824368891359178
Na 17.652024343841536 17.714450026759668 15.402003483237666
Na 8.827257342415914 13.724161847211038 14.311387234473331
Na 13.079264025004028 10.05301759988855 15.235607165450304
Na 14.690346701222296 13.0694236393875 13.941520889804988
Na 11.816177436768738 13.152420423800034 15.898545861267806
Na 16.756091962001868 10.320639371680937 14.644795405238987
Na 16.238234249833184 15.863621079432228 12.755564706847542
Na 11.281454155782155 7.43923604959516 16.468216795865544
Na 14.295874669629994 16.246830443360285 16.056588197319243
Na 8.954890145095012 10.435375057729294 16.549634113671516
Na 10.449004285827677 16.323850507797985 16.678620708559027
Na 14.695503896891955 8.205003424430465 17.534110265491723
Na 16.571307900497548 15.409934808578685 18.582727336761923
Na 15.206734048098294 12.226011470957408 17.40448148361584
Na 9.444198328628135 13.381231860115845 18.422303467843896
Na 11.966452663857536 10.587573275290246 18.54435046466606
Na 12.91170478743116 14.576897948492933 18.94882536860667
