45
Energy = -46.9689589 eV
Na 19.740676746743212 14.738565150264758 12.855887283824416
Na 20.985597997068506 11.850872015051747 14.5372900355779
Na 18.972610634264235 10.01440690273029 16.680408192585723
Na 18.362488460368166 17.663012269524486 11.53827915924901
Na 19.896165372028044 14.427660521047022 16.405355784822888
Na 18.19630050071378 17.066696751054025 14.937212448303686
Na 17.6991884206557 9.022192890423792 13.472981985573233
Na 17.07296149330167 20.144884026644025 14.055545758527103
Na 19.433433673660982 11.410824929829252 11.518458185636776
Na 18.031060970413243 16.336392787223918 18.406248591802374
Na 15.99779929874193 18.816796591618154 17.119886511094506
Na 17.930077073051997 14.131559661261216 9.853184020058428
Na 15.316956408738786 19.56220250582595 11.334209615936693
Na 17.253134921574755 12.752271937300568 18.153925664497645
Na 15.945265703765365 15.131103524647473 12.63215432105138
Na 17.31136820005809 12.439943807093202 14.545549874720905
Na 15.570892325181111 9.731485296353469 16.383439538582273
Na 15.038247010374453 15.215923464102897 19.600038815189993
Na 15.483644373073144 15.113590164209686 16.091301298699154
Na 15.905695768281442 16.880983117060538 9.1631302945092
Na 14.226207006829029 17.852718791433183 14.194326311101014
Na 15.935508235206637 11.481670241370741 11.448878325719257
Na 14.356823887304886 13.839060695772421 9.665425284565762
Na 13.366214964184131 19.771044812504062 8.617479359664094
Na 11.692790378321392 18.816775122726025 11.67738241964379
Na 13.520659806996074 12.230136850347222 14.267646857902854
Na 14.155167424778202 8.950377734880226 13.182397393451172
Na 13.800504502666582 12.381282729915657 17.85978899664569
Na 12.465700995586346 15.239806378308023 12.525500534463067
Na 12.953637489730804 17.351523829506093 17.486810425016742
Na 12.189433149741594 9.312985494869213 16.63098532278528
Na 12.441585785091519 11.219691303006018 10.992615125098753
Na 10.70479816808268 13.808291934095802 9.61081993826245
Na 12.394025287833925 16.586389284022303 9.073693210339115
Na 11.404390088746805 14.275018361128538 16.032263144369544
Na 10.655215355311128 17.728103889942407 14.705896946070999
Na 11.647127114343986 14.658739143971362 19.658446651371207
Na 9.844032428280189 12.830968490311704 12.796413348119906
Na 10.605409812088705 11.465774732227846 18.903473371681233
Na 10.766642749659136 9.590864043284363 13.493773869084482
Na 9.044320159698596 16.29279353051662 11.645520080141806
Na 9.54462158078079 16.89646926412147 17.797855500149034
Na 8.930883298633674 11.41150978119759 15.757115650304192
Na 8.109077804642698 15.08880742072529 14.84516725448873
Na 8.137266839946745 13.818756443668585 18.138014033159422
