43
Energy = -45.59372669 eV
Na 11.436451484031835 10.382535955988645 6.113032913978742
Na 13.737573134330624 7.912977363085933 7.241959443516594
Na 14.941160222546438 11.618741051347865 7.680342009256327
Na 10.068833610137416 7.682205571755149 8.037510475291235
Na 11.887877489921 13.444373938367955 8.244722454958548
Na 8.989982200072335 11.185331705314862 8.887166217631695
Na 14.9468184331339 15.124553630197529 9.324531265257718
Na 11.73494870515196 17.090276514943042 8.161263344911164
Na 12.327017275158006 10.010921235647393 9.484330680762312
Na 8.750054235323207 14.864164133175166 9.671357879356222
Na 17.733303651385057 12.329142640779143 10.32334261217724
Na 15.674335819604925 9.031830931617582 10.14216618423993
Na 12.53247410133904 6.756147510641491 10.598333616938818
Na 14.456206546173187 12.345890108179804 11.325490985058673
Na 14.070452959816349 18.18586981913664 11.20602716808792
Na 11.078563184590571 12.301007398198037 11.584098549394831
Na 11.713436878539053 15.586011524496497 11.148171307989392
Na 9.701598259184886 8.881698157194316 11.717857147109688
Na 9.794197591453456 18.440293186689075 10.900599035932172
Na 7.882209442597778 12.278304989246609 12.469654273951763
Na 17.458664818911352 15.518592258863174 12.149794156466683
Na 19.220092193402685 12.72190302839449 13.732385633259888
Na 14.35018169550512 15.276046931931328 13.202965918238485
Na 13.38414756280668 9.32589755723439 13.033616500862877
Na 8.41953636870343 15.911550054976072 13.209382486338129
Na 7.627914382515957 9.257564526572278 14.777364624152769
Na 10.889699358441366 7.407798560553162 14.894351003738665
Na 11.74277240714026 17.76085701843428 14.013651649482401
Na 15.691580704910564 17.938796422725034 14.92701678802063
Na 10.745036559494979 10.798779266255726 14.687651976001618
Na 11.20437203516166 14.16636775955942 14.370038173847032
Na 16.946518984800303 14.651937598153522 15.693015852164473
Na 16.776609685451227 10.335258176718133 13.275340736933956
Na 14.216509959584291 12.348659324668672 14.979925986883028
Na 8.113052006896947 12.763222318410921 16.066308353389143
Na 13.452415762872256 15.753830274180638 16.686557931853976
Na 13.471858708289366 9.623553815548231 16.846842109696045
Na 17.247100467832126 11.138169450228128 16.590936734580843
Na 9.636973191574498 15.98478719314254 16.713030871960626
Na 9.62811049081877 9.653741471626018 17.742990473715658
Na 11.525476606666107 12.7446059853352 17.66605064252439
Na 16.26396963642652 16.7863745323279 18.49085741707384
Na 15.073782763099421 13.223300683954372 18.531837988811326
