43
Energy = -46.24362448 eV
Na 10.895847874546671 10.248388884552575 7.110717652224092
Na 11.853158890074747 13.920197129030669 7.314362748841236
Na 12.447301321446629 17.492142073633786 9.007883680203586
Na 15.431717207130989 15.729411644121596 7.402462281702363
Na 15.105786515168147 11.826671040741257 8.168602580293804
Na 8.509677736695851 12.026880296792031 9.129615624850658
Na 17.604830002061167 9.788589547207325 10.527977371510827
Na 13.536475147519678 8.747615728079294 9.686654582066089
Na 17.417191099364285 13.875090594770176 10.196890121750958
Na 13.897547876403257 14.581005113156085 10.129057174844524
Na 11.93133004300912 11.738242819869376 10.00806324800783
Na 9.265500817350276 17.85818941735804 12.357171559766336
Na 9.911849606350556 8.885086871337991 10.685789223316235
Na 15.908503838987246 17.373629034063814 10.76397384381907
Na 10.263201519325666 15.001014168177377 10.55116722106256
Na 15.147731913199328 11.49796550768332 11.766131710489562
Na 6.585955784306101 10.559377509060322 12.125173545197425
Na 7.061029265618072 14.374294741031685 12.16777266239719
Na 12.447895037528703 9.94658865370821 13.112884307296248
Na 15.163365469602962 7.658380162740555 12.535830064317452
Na 15.512540084202636 14.833036218189369 13.218341138062025
Na 12.654549472086815 17.03717639808472 12.661863250277817
Na 12.423682085435217 13.453790201511074 13.007380025317675
Na 9.534464718693387 11.994056382442508 12.617879791924183
Na 18.418954049100183 16.396246621653816 13.553255985773365
Na 11.826617274442002 6.619868632915448 13.10150143419102
Na 17.086477291342558 9.448831133596087 14.664431505533873
Na 18.11509932284072 12.614018389334976 13.751979960357877
Na 9.685040111755326 15.126297820043163 14.57264924741758
Na 9.356419127923242 9.035083383326638 14.55099710788682
Na 14.73400187338115 11.969517626053488 15.204874437338917
Na 15.305440691184618 17.804148631661473 15.175771897482875
Na 7.451332557879559 12.298176932493066 15.329636540625062
Na 13.128667145555648 15.077436031717562 15.845412925310196
Na 11.140750560573466 11.929820871249134 16.039351651287593
Na 11.353246129124436 18.012505882601886 15.96704257150345
Na 13.574959818025217 8.919158865800613 16.220666673237762
Na 16.716583678199658 14.715060960347703 16.66559570904309
Na 16.871972376901066 11.168702010242464 17.82630223879624
Na 10.670472292798513 15.028813900044865 18.199009113966508
Na 13.702839832699663 12.785232960971893 18.539547678463475
Na 14.17648120262234 16.637967817521353 18.715991326277983
Na 16.521955908774963 14.314735962311566 20.170781157196746
