48
Energy = -51.61104578 eV
Na 14.16904068018539 14.83703783665162 7.304739937359629
Na 12.597933594003187 11.782059806909347 8.021004335581132
Na 10.751961674598599 14.930735010305138 8.775583814729716
Na 13.131777728467895 17.579896454573372 9.752845689501891
Na 16.58390032839375 15.751465101673276 9.994163402467247
Na 16.21557607288091 12.223298757339482 9.130073611866724
Na 17.057699251822683 19.208329171981937 11.278472223343528
Na 14.705445224826788 7.026781722456627 11.882422007949497
Na 13.580631696874047 14.096229719752422 10.655271102505063
Na 19.342303431204776 12.662339068514743 11.341078480118904
Na 13.939920887294662 20.74131542402011 11.59904110194711
Na 11.351365141244113 8.095195390686081 11.873326889198387
Na 10.509813216588599 12.121104089555676 11.064951324139155
Na 11.282180050183618 19.03485081149812 13.052969627089789
Na 16.632044956244673 22.175476636697304 13.459540008508972
Na 13.755532516748291 10.595181574867222 11.226895893764006
Na 16.82243740346852 6.886016713799255 14.54364112251186
Na 18.512018824129516 16.290973950086336 12.959159259183451
Na 16.484239828841538 12.98640107015433 12.847424331599306
Na 14.645414053088727 17.053917943360428 12.71820456105473
Na 10.972754325434328 15.484866884242663 12.481302311541315
Na 17.315130879239476 9.537844496421625 11.592221639264924
Na 13.150300178106745 7.3260829059146815 15.14029385140878
Na 16.979786414785494 19.038221308721575 14.920439343308034
Na 11.18259515389921 10.64729545935339 14.21582507127969
Na 8.298507208507681 13.330517016868185 14.053771608770743
Na 13.450258884461768 13.384160094497041 14.169898354538539
Na 15.020905387348963 9.9568106656472 14.307257959468512
Na 18.616379335006744 10.109880806602602 14.901917418818407
Na 19.25925169985196 13.61006926032239 15.338866167247248
Na 13.899725032154556 20.558432970943155 15.125669368904937
Na 16.165400614038717 15.591594730564061 15.475827864358926
Na 12.622004055740653 16.84252605356868 15.431738398254858
Na 9.098040346820246 16.776230206531064 15.336837463018679
Na 10.808418017423907 13.69362129381272 16.235835629832405
Na 16.36649856155782 12.147023954070097 16.721490494106856
Na 19.23306423206352 16.937351128708954 16.693320262294158
Na 13.000504284834378 10.823547056923356 17.21648562245752
Na 11.047949622070057 19.69537006686047 16.78535955818391
Na 15.847428409829936 8.676567858934149 17.520344818097286
Na 13.80311064834446 14.402498792228913 17.755519163224022
Na 7.940516851105116 14.358171655170269 17.80938693384919
Na 14.765844615950169 17.9900806373857 17.90130701501575
Na 10.995068024905057 16.521325337454403 18.641865866211635
Na 17.067726791446066 15.038659109828648 18.86485127336178
Na 11.275082787053323 13.094844948153693 19.820457206538595
Na 14.884921476712359 11.968344946397913 20.014474588048802
Na 13.864838264677982 15.38270276345054 21.049874688634965
