44
Energy = -47.3181526 eV
Na 13.877016886988553 11.822811852135995 9.12049671287361
Na 10.614038262747448 10.466484624924764 9.982915897751981
Na 10.93181014256981 13.480704005804872 7.813053418929631
Na 16.905672230570595 17.748158715213755 8.664481510470514
Na 16.795814123194468 14.054324267064576 9.174812244466128
Na 13.505055696861033 18.971314591542473 9.689816289825906
Na 13.661143035034609 15.50660017958689 9.073160937779038
Na 10.106115538857027 16.57387009331234 9.977348994378882
Na 13.887851608975536 8.30365687984167 10.78541864711371
Na 8.331455468072802 15.175034133113446 12.924617715703732
Na 12.899322247853085 10.849194495469895 12.677253120557594
Na 8.130860371102909 13.246452556730457 10.040582217424745
Na 16.750058215966025 10.941247208854376 11.41099834830621
Na 16.46909455098462 20.292208409132215 11.243082412178447
Na 11.378780580280418 13.695216476869923 11.335887221487559
Na 10.393149814524246 8.129314297664218 12.94105586952028
Na 13.292683667637693 20.219476696663047 12.962063535715453
Na 16.102816821566467 16.830348982040498 11.787925855704925
Na 18.753454610895073 14.311221471351498 12.133109666771883
Na 19.214568224574013 18.040218267970502 12.023578557850295
Na 12.788022708316378 16.76044099122908 12.432973335674864
Na 14.856832373393225 13.663999164850186 12.236229908983287
Na 9.96010910690548 18.355290323740583 13.350695134500953
Na 14.968667996125125 15.601511648887188 15.081693942240948
Na 13.409316689686639 6.518248117278151 14.034091016751878
Na 15.607756210384093 9.243188550774649 14.340338516719706
Na 16.266959952403415 18.920105827581686 14.582009701227687
Na 17.3609615229146 12.447102318971767 14.748496008358957
Na 18.339970109953445 15.956787064182366 15.30289570586186
Na 13.882343833123818 12.345135206936224 15.653020471215802
Na 10.74147973839352 6.288288659257447 16.27538095192755
Na 16.62166838895586 10.220004988596962 17.52232569534833
Na 9.506785904993363 11.712510414783972 13.607302519539854
Na 12.617303345522988 18.042059385746864 15.98018071180437
Na 11.1948656655013 14.780876526372722 14.92258389689159
Na 11.99704351903931 9.525733677777014 15.720745815647229
Na 14.041079468207357 7.546110034541293 17.560811639561095
Na 15.680674058926991 17.404061089769986 17.921794198081447
Na 12.873640179983743 14.954244525559512 18.159066027815566
Na 10.785075802144737 8.778287196572139 18.879802587028337
Na 16.297025431419225 13.784787854853317 17.919575827273494
Na 13.515357534970086 11.288910375205026 18.900772025517742
Na 10.30364353217943 12.246593736122447 17.194983280067298
Na 8.50890575145631 9.084115039278087 16.036822831306306
