47
Energy = -50.52499037 eV
Na 13.156253404134162 16.290654856513175 6.947873300026699
Na 15.747995223890623 18.965514688419443 7.642940666376316
Na 11.004635253989418 12.985972682721338 7.570581501691096
Na 16.634428426191295 15.326270290122661 8.081518462168392
Na 12.324291187386464 19.549393337800137 8.736047280810256
Na 9.905853804706434 9.125070851587301 11.18714505665797
Na 13.722637742907198 13.654640264486503 9.339056842667027
Na 10.837001993952162 15.978520888084242 9.830598297076378
Na 13.14179657682945 10.02353697278715 9.69638648149655
Na 14.321442585436905 17.17841927580868 10.147137061799707
Na 16.69231951135602 11.737428853055661 9.735983533998889
Na 15.022502142223592 20.403061904415523 11.02379932499117
Na 19.290678599200138 14.366110796082355 10.37159139751919
Na 17.7761177713664 17.813601937244666 10.608694360215965
Na 10.7790125436885 12.580906674548775 11.24353444010079
Na 16.219671537356568 14.652636624151583 11.664419206667764
Na 11.95710545670628 18.653684037861883 12.287389684372455
Na 12.88302756642097 8.013059029395393 12.863884676072308
Na 9.70339017017836 6.988168468048978 14.105448523783224
Na 12.937781756541211 15.158952245416819 12.638798301705075
Na 16.138990938144428 8.820983792157586 12.140716046354196
Na 14.081209508463537 11.762422955267965 12.534896094435375
Na 9.600665351864572 15.1676903215162 13.420292987889106
Na 17.608326291111744 8.613628204372082 15.495601486000208
Na 15.387771218432345 17.645696577194723 13.768414346236867
Na 12.210450435079771 17.0265709185119 15.486855140767416
Na 8.622678006522213 9.273329571569661 16.668366532688463
Na 11.049633622448601 10.463367169748443 14.388954653535436
Na 18.69655518254231 15.373697220223647 14.001689110871336
Na 15.538509423158963 14.169325077758165 15.140601219364218
Na 12.265474910706763 13.412392720311706 15.578318347793411
Na 11.902408639975476 7.688925180989372 16.734815655205683
Na 14.51894311375756 10.32707224365529 15.514659932058496
Na 17.754125270475516 11.772608405024554 13.260760354200135
Na 9.027903874224009 16.413273074502424 16.78980129843249
Na 14.908577024053397 6.52573179803585 15.472730809310784
Na 7.950322167075393 11.600686440226376 13.350687382602553
Na 9.002945578386965 12.844517980093258 16.6110376189973
Na 17.970835903176784 15.246401621010238 17.546229108620704
Na 11.623078772111151 18.235810531615858 18.725037461697617
Na 14.715766663374145 12.762494346425179 18.39605606968231
Na 6.448216467500234 14.551023682592186 14.82229650681367
Na 14.599896807768815 16.357439778013358 17.851368138217865
Na 14.917562911809398 8.80686149894347 18.472605427421822
Na 11.537339469586318 14.63822951063468 18.726417254990558
Na 11.731088592098084 10.867566516078117 18.17688097740227
Na 17.793005896193552 11.846873479479063 16.86130693271592
