43
Energy = -46.2313295 eV
Na 9.578766103435415 9.684960428841205 7.617337767796983
Na 13.26731308280268 14.510515530717374 6.616823078564335
Na 14.209404769903948 17.33814837941982 8.515549925403876
Na 13.171162167517934 10.996965688014068 7.342135191536322
Na 16.221579707903015 8.925888843094894 8.247874170893514
Na 12.52994625401906 7.841371954911884 9.279209337977944
Na 10.146703982441942 13.242853501934583 7.93238078375733
Na 10.763285288728964 16.59069968407775 8.862986749403118
Na 16.291299192148642 12.779531299269314 8.680751208021602
Na 9.135199511898918 8.196084880113256 11.209651422575922
Na 15.954732237396952 16.682938481622838 11.630367002441679
Na 7.560125067363428 15.116428616094893 9.909292015701832
Na 13.390001367201346 14.180725418555426 10.12813893088888
Na 17.878819820578055 10.214731384971488 11.343477226953569
Na 12.454796047615021 18.144167860549267 11.538584729431017
Na 15.408519836923752 7.243879929016157 11.628399707345459
Na 14.545768641747257 10.513541343023354 10.6951780004303
Na 10.414887135257334 14.37151123140547 11.842766093109484
Na 8.893331923322195 17.446932241906847 12.158166355592613
Na 11.18420637383301 11.023513105304112 10.311517715958225
Na 7.668863158591162 11.51131051038013 10.476694422480163
Na 12.28438766111051 8.534614725475233 12.794240701338579
Na 16.200838844940343 13.200535063570694 12.527632478539466
Na 6.47996750915404 9.959112761269742 13.700605040552128
Na 12.84925462287954 12.11712853059721 13.123162011154342
Na 9.670865087411624 11.080165059909334 13.426908067667206
Na 13.447015339599604 15.442101755763158 13.61047441679004
Na 14.534320934297739 18.629536822967605 14.56400157990391
Na 11.066612112220199 17.496798005553426 14.942254408452365
Na 7.420200257288013 13.778746933404564 13.642449214709076
Na 15.405234661826473 9.842302691428939 14.209315055737228
Na 9.504568586132466 7.984651544550383 14.976587459629457
Na 16.659248695904413 15.68588857497575 15.419191101836397
Na 17.81573526882997 12.03550191721973 15.69908906569623
Na 13.645907766961425 7.154496350841341 15.693868378313038
Na 10.808140706960401 13.876912914355108 15.592518189685148
Na 14.469904595656375 12.963581951217298 15.91721370629343
Na 12.047174965145636 10.302341119259365 16.136327961468023
Na 8.3774650700477 11.347582877947474 16.582822915110313
Na 13.644664212701967 16.16812133713691 17.300290204734893
Na 15.27656803267047 10.160802554191216 17.84289782590878
Na 16.194511114205813 14.012476190817981 18.64267700761279
Na 12.624076315434397 12.765274036332574 18.783565404609835
