40
Energy = -42.8635568 eV
Na 14.049954689270244 17.862095528995532 6.777216888649809
Na 14.419292590992146 11.900468453287512 8.438669175046426
Na 12.013636164964034 9.113050173381836 8.50357633517651
Na 12.51555545550671 15.073362565031154 8.5281487206183
Na 10.96667741978326 18.279753077255037 8.352925701417277
Na 16.18719215299619 15.159224315011238 8.864234667998383
Na 10.089950455978713 9.242004259230022 11.853559868997916
Na 13.832633665674717 17.72425266962956 10.32590306645842
Na 17.01858820695644 11.0737601835859 10.91623270305651
Na 11.419468492642284 15.35916675681273 12.324624219291032
Na 12.860756872246236 6.790488943366516 11.322913029408708
Na 13.55971680419885 10.199263541853133 11.33145177372694
Na 10.93352313460257 12.332837647059785 9.889472162975064
Na 8.383198447993136 12.864642535182576 12.561860309506478
Na 14.533711427437042 13.987086067924187 11.59178533473248
Na 15.490844893597547 8.279472310062026 9.2313780061763
Na 9.050379979127294 15.710091725619721 9.995499121527558
Na 10.662039195314186 18.634233033463573 12.053418385124347
Na 18.559295065236743 14.004905011018808 11.585207786294115
Na 17.10210590773293 17.25153430786313 11.783973359475079
Na 8.142099626251689 16.411560720774276 13.547173839217766
Na 14.128482919579703 17.608523477980427 13.70838188766492
Na 15.945917145064668 8.346278497085223 13.144276907089717
Na 11.560653737891961 12.013120366248856 13.396193136990144
Na 12.530995282587627 8.599585228452895 14.522649036789112
Na 14.951846938583174 11.590494853527238 14.168839823753181
Na 16.74735581137099 14.89034990438915 14.56031669191676
Na 9.242349767026777 10.18950703532994 15.463018222392567
Na 13.24777870731057 14.49167379266197 15.16031604656489
Na 18.178610141490807 11.312143681616822 14.51999352570778
Na 11.100114465851854 17.160795976551913 15.66395840774979
Na 9.64198869680687 13.854684395812106 15.89381085199831
Na 12.354976256707006 11.49428302732877 16.712435950559332
Na 14.78489139991045 16.730249597067665 17.1556777504756
Na 15.233816264464265 9.440903158693308 16.87921423928294
Na 15.608740177020028 13.048538420250086 17.51432251083454
Na 11.7230332622259 8.549193860830522 18.27589191213724
Na 12.134504064941801 14.507352149038299 18.54437046637505
Na 9.75272085514351 11.66745884045213 18.934952021622887
Na 13.311730499663458 11.222736952418428 19.973283197363454
