55
Energy = -59.87617394 eV
Na 8.132287086926961 11.056284274340484 16.114605965100793
Na 15.614339231642699 13.116757420290778 10.646400784033574
Na 13.463541985532242 7.937112369502627 16.590329991721894
Na 9.971251998840327 10.382397019906575 8.317390944076319
Na 15.483513732176936 13.494266974890213 14.245008778287703
Na 13.791479847150876 14.268495464615889 5.28516079958871
Na 9.677902973216439 10.915050542451043 12.795101039415426
Na 7.032067451216019 10.686670453295593 10.38956591883596
Na 12.806841188143633 13.852729737410215 8.704490082115127
Na 14.369232004282143 10.497597257741504 19.280557039411697
Na 11.193523274981402 10.588599794272508 17.77389704471297
Na 12.41372027681792 13.875427682192688 12.407103427731988
Na 8.763180274919002 16.22397781870223 8.385699003890625
Na 6.268527097117754 14.509061433618808 10.620258175974177
Na 12.363702441817656 13.775522753331288 16.08557640657138
Na 8.831549773845245 16.960651240923095 11.999469199282988
Na 13.224632027455254 10.910214067016854 6.778930188850733
Na 18.857926507612945 11.659710333746954 9.350524389571458
Na 15.880612669903515 9.717741631104513 8.851188988261827
Na 12.63718964967385 10.658874268241528 10.646771787370891
Na 18.76064239474929 12.53732832226986 12.681665311516687
Na 15.733824284546895 10.131796785057123 12.55109248510228
Na 12.754105708724385 10.676125473553414 14.465462280123097
Na 7.208430721440003 12.884916084175183 7.567896979060463
Na 15.94083697850829 10.517525982945871 16.226381745495118
Na 11.934747101511789 16.856872407745023 6.823186299628196
Na 6.265685041128945 14.10927753700798 16.61573568448262
Na 15.203762259534708 16.379720187926722 8.379407963607093
Na 11.921410670883528 16.893460536924618 10.344926513283092
Na 9.379137092637082 13.976315488431972 18.102450611627166
Na 15.05955860124327 16.478394919724455 12.012869135246133
Na 11.877680796202704 16.920741568251525 14.141297317339477
Na 12.393021936321718 13.444198238793623 19.793619988675456
Na 9.672870709051198 7.933677366065607 11.064185889072274
Na 18.600816068068433 8.665856716726546 11.381713179187237
Na 18.464436998620947 13.146597642839813 16.21116879813687
Na 10.136008094200191 8.164440063989712 15.071196841838615
Na 19.010404647410326 9.747026586149211 14.74071547243674
Na 15.398995522742986 13.813115006115003 17.9766507850386
Na 10.377365619316514 13.455100642783972 6.225356942860333
Na 18.165868123095457 15.293283727705317 10.149548010744276
Na 5.964974156780044 16.09055452915582 13.789891722229843
Na 9.607132574066913 13.426382513532767 10.278899143745987
Na 7.002340902468167 8.788179766547332 13.459124254511558
Na 8.77147678633431 17.04614419145278 15.999717743108532
Na 9.149049895914283 14.132526644209507 14.207794044130027
Na 6.024209778483389 12.346870570339496 13.428676229725607
Na 12.078207185121274 16.65684993217549 17.827606550397757
Na 15.55534962866965 6.817480275392693 10.81903236602653
Na 12.61732278979477 7.728205764505946 8.903894622426282
Na 15.101421355771071 16.623642547775724 15.77986299970874
Na 16.30396136739394 7.313542500706839 14.33582800147843
Na 12.80858303543772 7.428313046908118 12.81509467205363
Na 18.045164977667778 15.90904801958638 13.808417909608997
Na 16.40229083638618 13.047462008435428 7.219717685041264
