5
Energy = -3.72994677 eV
Na 9.131858468559217 10.063147448409497 12.589485296732875
Na 12.734539661939941 10.59606417714457 7.8552919757446835
Na 10.509427098179632 8.71707573823449 9.633432177907642
Na 11.470533843583603 11.924858820890606 10.730914166654587
Na 10.180180078223017 13.114267241486207 13.665782957135573
