50
Energy = -52.30986419 eV
Na 21.222105661749747 14.34635527714742 16.125284705625894
Na 20.575208166439385 13.928104869486843 12.685326023423219
Na 20.576832373868726 17.502712255740168 15.025968761169587
Na 17.94548964717287 8.774762321200225 14.111994151404394
Na 18.69220744012925 19.40616808262534 17.184002795998982
Na 18.468654308273113 12.557043701552356 15.109943810312277
Na 19.533587766653223 12.573758372855476 18.547574071579188
Na 18.589673491743422 11.301065905005046 11.763781354681411
Na 18.08538864449697 9.757152454103238 17.356897657669343
Na 17.477485757752422 17.801615310746335 20.006118584291844
Na 18.283749326610767 15.838125943013265 17.219923703026208
Na 19.598720590375322 17.09382671731994 11.747478674443169
Na 17.387791835191713 14.449756822924812 20.50449875340429
Na 15.755866522550255 14.784276312781866 15.143919938549859
Na 17.128982525182785 14.571642131537692 12.068819842708193
Na 17.11240774288831 17.79673532598753 14.212927103243786
Na 16.272611785634574 8.535965231703512 11.055692906967286
Na 14.231168302016087 13.196418688287512 20.832388697812753
Na 14.196028445330823 7.826600941917065 13.80240732768047
Na 15.806601512252637 12.458930098202778 17.718118455041182
Na 15.169514268884395 19.25625540706264 17.952693622559195
Na 15.51903167070749 11.194631860235646 13.995502919707913
Na 14.787170370189234 9.034765734666808 16.926712911863547
Na 15.631532789345611 11.91643722692053 10.175991989200373
Na 14.756911874021483 15.878235559575163 18.48575555775806
Na 12.270047638107163 12.187642429870811 8.800963138588457
Na 12.927119176495136 10.256980082755092 11.667359667338152
Na 16.484550281216013 21.223391278150178 15.382869261159843
Na 12.584451637704364 11.129946732533542 18.640384663611634
Na 12.212925518152602 10.627499399810095 15.069695293854323
Na 12.71463366192673 14.036278480149894 16.215670786061867
Na 14.62979631884199 15.148074781634037 9.510886735875971
Na 13.59222940142254 13.786699859618583 12.635158157033587
Na 14.999479586588862 20.220735013082102 12.519888941375495
Na 13.670459792106785 17.519331623221056 14.959250710522793
Na 16.610229557991403 17.83190986796193 10.57176900658507
Na 11.47861713427914 14.734695051396509 19.48314489535548
Na 11.983653351120678 18.108415777475656 18.0865270260846
Na 11.115989635304581 15.10918475336261 10.278970619249671
Na 13.044683254620512 20.851001699179594 15.695629858284846
Na 10.319176695581918 12.366596904966954 12.44991238899516
Na 9.829980644801397 12.297401973185774 17.079883868082437
Na 13.116570914826466 17.558359434828695 11.508169911944988
Na 11.666414318919111 20.774831290755873 12.409284533371128
Na 10.788148270673501 15.66354642159886 13.64162493203788
Na 9.542135237207665 15.854678972006944 16.927870619037975
Na 10.271739693353931 18.889910680330537 15.117487161278085
Na 7.925630033350364 13.699195234815384 14.58119714265821
Na 9.504830213247152 18.196626908866726 11.555589843952552
Na 7.515036381884886 17.06952070102839 14.202146671749762
