5
Energy = -2.07689388 eV
Na 11.743839899402472 10.217777028554679 7.1129445714976764
Na 13.695503644741043 13.643242625009071 13.228696815073643
Na 12.363945788686566 11.28071698295724 10.602343519031372
Na 11.159979589481955 12.01085055994593 14.201956619398707
Na 12.697699850100555 14.508381575945968 16.51502724741178
