50
Energy = -54.37714854 eV
Na 11.732910097098141 13.104622760120872 6.848953739264207
Na 14.375010640612043 15.64714866575674 7.241608286637346
Na 13.29608400163487 19.174129694587517 8.424491328672065
Na 15.2419452323649 11.908152482927987 7.788416435986475
Na 9.691100814753014 12.984174681824102 9.967065489226144
Na 12.430475716159874 10.164829464853028 9.797585300474685
Na 10.883916666513603 16.22602116770906 8.688570219228968
Na 13.081468832375224 13.623347572731367 9.913093944956128
Na 13.96359797942014 16.80870427104957 10.727913419508278
Na 16.126615427041184 8.585979569790887 10.069366808833646
Na 14.654540408329478 19.92104183499653 11.925467853761075
Na 16.656351640562637 14.495165946301915 9.901007340578568
Na 18.63931396004189 11.436876256877763 10.506570613993931
Na 16.739100224760808 18.033702644906988 9.035559217014908
Na 11.165777677040571 18.783464765235635 11.294113080971576
Na 17.521337707013416 9.487909273935351 13.662575590576827
Na 15.344640211548928 11.464814409715094 11.467490689191607
Na 8.565167102043272 12.886788249154696 13.316495407009878
Na 8.232694024887735 16.299481678510926 11.859230502073057
Na 12.035266991827337 11.85864774746427 12.97369052975842
Na 13.85090552352615 8.607617998052081 12.958219882183974
Na 11.297048719543131 15.305677915284207 12.547342714823996
Na 19.825151921318277 15.073688720159057 11.431807072585489
Na 17.032817088527903 16.973082011641804 12.547999465869697
Na 14.666580033231451 14.326660445640478 13.095892679720297
Na 14.903318604594668 11.387605639986482 15.033036375051516
Na 9.863670513339814 9.36900332906205 13.125233339250183
Na 17.81324426497721 13.193705629901787 13.587601323993253
Na 16.128482759547442 8.910164618461378 17.128959534562917
Na 10.544443551178553 17.986355252468957 14.7180746740296
Na 16.796263433235637 19.4797345616252 15.106009460236775
Na 14.009747517136278 17.265261845946945 14.494210374406693
Na 13.52646318289413 11.741606811429762 18.175196165535265
Na 12.44850410955065 8.864368796257539 16.377520430694783
Na 8.959332710923366 15.121408424190118 16.102518703904956
Na 13.366160786809507 20.126997477185807 16.12632791199702
Na 12.234100257490306 14.09786988930232 15.729777291160262
Na 18.42543129416962 16.150952115199566 15.75039353106955
Na 15.54805928024203 14.446542250828786 16.683057996844187
Na 9.998437787078966 11.4554291827737 16.290324793235765
Na 18.056335414979262 11.918655803346894 16.9234660793661
Na 12.241659628296748 16.897682602830493 17.776001303676146
Na 14.014641775443765 8.739684195760951 19.94031303996042
Na 15.802489389858698 17.670736930729117 18.01754881197698
Na 10.723121967403173 10.039317917930163 19.504275531315006
Na 10.84691417798636 13.748776955276968 19.18199444178017
Na 17.84686215527691 14.834035365424695 19.332353893800825
Na 14.351132865305345 14.815607240807557 20.08440123029448
Na 16.397770453957392 11.604391083745751 20.08715637950689
Na 13.01487111837101 11.863653492522864 21.644997411671042
