5
Energy = -3.72944758 eV
Na 8.286937334433496 6.8989343547633055 6.655732413757325
Na 8.169696121239538 9.087968627067891 9.40531003605441
Na 5.191236074314866 8.172159436774608 7.7555348654613585
Na 11.132196306014139 7.857382137929797 8.287547593723605
Na 5.356218192140464 6.021650348757994 5.125515460559031
