5
Energy = -3.72989738 eV
Na 11.685264454948769 8.472956004423235 9.319896210851901
Na 12.216908880715419 10.684639739508391 12.043709577996763
Na 8.840684051262643 8.786214815158816 7.474504304258822
Na 9.244747226083135 10.850507131999416 10.171423075009765
Na 9.800692434196954 12.993979356117075 12.778763879089798
