53
Energy = -57.67565315 eV
Na 12.476955494294616 12.587373227615121 6.506028867046388
Na 15.671438741873256 14.032646731293685 7.723175386518052
Na 12.514737728720622 16.016413637954546 7.876745693337912
Na 14.873028343447682 10.436896379547996 8.32126809104786
Na 9.643919054659413 13.734515951749362 8.615805459524259
Na 18.754705227565342 15.268080295572599 9.245193366267538
Na 15.73602692221694 17.339892017998054 9.25945478913333
Na 12.611743630165732 19.296137228116564 9.575414255781633
Na 10.910180787062698 10.247348301018938 8.920458071344903
Na 17.95380859440563 11.67180668114745 9.776250410508604
Na 12.953230511362078 13.060043193976224 9.91157791281194
Na 9.708923457996702 17.05312480880757 10.107040829952913
Na 17.01734441640953 8.192219130964164 10.423716886617902
Na 7.021869228591686 14.74053403460974 10.957242991030105
Na 16.12445383922353 14.369413238076788 11.31454784213257
Na 13.01779040602458 16.39431123985848 11.439858714665895
Na 8.238609033453146 11.239765463360062 11.182095842282322
Na 18.07894396752217 17.242505981110835 12.332933075867066
Na 15.035668040299052 19.228609477156926 12.394919769178898
Na 15.198786197773678 10.742964314886985 11.9011970419643
Na 9.614663682462579 7.874038956717795 11.504497588451994
Na 10.204471063091596 14.1086659763139 12.185774813324567
Na 19.395890213884993 13.717766480326972 12.587227018348898
Na 11.075279693122177 19.071426859474528 12.923512192267406
Na 11.543468204434692 10.606545117207473 12.445363050378576
Na 18.520328462624494 10.101020942569145 13.156353917407872
Na 13.449839365435581 13.454691032524766 13.447232469725062
Na 8.383027556359874 16.804240365745695 13.740442656643975
Na 15.815487571723184 7.83311968316614 13.949905624629531
Na 7.509174247066479 13.191126391252192 14.320172506169403
Na 11.845450893530247 7.672599663161866 14.508497468498403
Na 8.815632572362354 9.677854295771322 14.587358618912852
Na 15.351494601937388 16.292406597538257 14.455972979407015
Na 16.692673837288897 12.785144676223823 14.717814471570563
Na 11.709930845089197 16.167775471709643 14.98266207208219
Na 13.877239142734608 10.498313375342503 15.455329188241018
Na 10.778203708953388 12.541620352730872 15.589632486091324
Na 17.24636523648898 19.02871011227344 15.413118428951941
Na 18.656475445040012 15.65529204746784 15.719860980082847
Na 19.8750999761771 12.149232870137647 15.945084644370468
Na 9.90507687570185 18.724455493390444 16.461228060697064
Na 17.185892693224964 9.820378908033698 16.78089631711688
Na 8.964303333569642 15.252070180554492 17.11713144911953
Na 14.265368771499325 7.5922119268770665 17.30127110297756
Na 13.95300519580981 13.835139741724708 16.99203893576724
Na 11.15880429388809 9.572913709478748 17.646283332255646
Na 8.14599627662219 11.659525503186178 17.660033446023824
Na 16.008870992841786 16.62993536741839 17.998432621543785
Na 17.25613925694262 13.134215271910287 18.2969177210611
Na 12.050491368265824 16.46712831116802 18.569986920299073
Na 14.384079699480747 10.866097079339228 19.016560548735136
Na 11.234970589491173 12.878133530135036 19.184833759764384
Na 14.432585981210325 14.289547645730263 20.401592583492356
