54
Energy = -58.84686612 eV
Na 9.09674717559833 12.532511370218032 16.924774997312326
Na 12.536707944852171 11.195509060320575 16.487341385418567
Na 8.103937687316137 16.182576758437726 16.93691316220494
Na 14.521765094393349 11.333702670818491 13.123904857661305
Na 15.26925583567376 8.731135042796565 15.650883668711314
Na 9.935326934750883 15.437827064279873 19.83954854519367
Na 11.26541594084073 11.860907820973884 19.874190019076984
Na 11.237607139083622 12.610069394326214 13.546883742433277
Na 10.053999873496464 14.61338376334179 10.853744136249352
Na 12.472958856113227 14.642443580222341 22.18486183698156
Na 14.676351371874798 9.923854971384781 19.104217538084573
Na 8.256628498245172 14.497244052374588 13.921936640930852
Na 8.767036666368378 18.320231896323676 14.066860869819832
Na 11.704925028509873 14.75388176702825 17.01874354263973
Na 14.499012376291002 14.513525136987756 14.785121205464296
Na 17.89122310200211 9.977282330447022 13.29109382714403
Na 11.398711013153127 18.095870163807465 11.004379562721901
Na 10.838372258317 18.323274758704954 17.40618983171156
Na 14.602749746622658 11.814306698491768 22.173025050967773
Na 12.801218453770039 12.111884123093754 9.654025527847779
Na 13.275955348903395 17.166203442965116 19.731190077478914
Na 18.59103277174603 9.859406448919959 16.993564542020266
Na 16.69256595233066 12.113878252815843 10.491430491137677
Na 14.108858257952706 13.588157233746765 19.137436345800168
Na 11.43756903536931 16.258035824379483 13.971764937412345
Na 12.157700162508046 15.631014988335215 8.248610098948303
Na 16.006641488079463 11.951176980167052 16.5371326587556
Na 12.083585908432022 19.828591998016265 14.404344370200404
Na 15.931463205314017 15.302038184639583 21.678972505124502
Na 14.315979049001012 17.619235047302134 16.35093372574294
Na 17.43734496712604 12.214358361764077 19.91922536075841
Na 13.733692114707283 14.721337669837743 11.367475110191616
Na 19.590275979831063 13.4480965108168 17.176282987979185
Na 15.509898097085054 14.550815516757483 8.144745311185417
Na 20.95378700795474 11.463195207843253 14.626390487219266
Na 16.7127271307641 15.391390702336222 17.662736404251216
Na 17.771094900824007 13.382415837816545 13.93253619908476
Na 20.209430247813987 12.853676023543704 11.48214806387339
Na 17.201105948573968 15.60673890468481 11.20141452074789
Na 19.146560412137326 14.246725640202845 8.502636705999716
Na 17.53091451440836 16.97339404869766 14.558615604501181
Na 15.625961587251258 20.679537593991583 14.24532550178451
Na 14.57116126643101 17.753814929224934 12.810984167750238
Na 14.161308890891185 20.585497057190963 17.769025721694767
Na 19.160578646158182 15.548204884970241 20.26499797578181
Na 19.961937263936004 17.103607066912332 17.191695181155545
Na 20.93544454858664 15.241366506689298 14.204506690850586
Na 14.731073082097417 17.9957159729255 9.357151284067129
Na 17.649117910984508 19.17777263390101 11.548449559300073
Na 20.539496496013378 16.762940232807676 10.957804436334031
Na 16.69942587806776 18.321319305548887 19.5359615138146
Na 18.13864359125504 17.621390624357723 8.361763813264993
Na 20.350573287088437 18.88430960865402 14.002588300334926
Na 17.84036347962327 19.93356116636314 16.666239674607493
