51
Energy = -55.27986104 eV
Na 8.170534900843212 11.977955041232203 14.734663690410514
Na 11.050137746219663 12.154916876100053 17.524642988729912
Na 9.133676945485197 15.120245365672043 16.733858153311317
Na 8.590178893802106 15.108081933409986 13.18580205866643
Na 6.745946322373563 17.71436338976006 11.835385628592114
Na 8.388489324193896 18.219791929356983 15.076560821605407
Na 12.383805668319182 15.456886528805521 18.708253974547826
Na 10.738992287860146 9.373184188152367 15.205899664706338
Na 12.43885546439454 9.003864622606939 18.616397604222392
Na 11.502726258923747 12.657063111135031 14.029934535556555
Na 13.583423871893906 9.37642474685128 12.692033849122335
Na 14.073906722926488 14.066975161631877 16.077952809978886
Na 11.233915725445376 18.61898150679647 17.509044274234
Na 9.070619880343738 15.915665882181022 9.718442253339559
Na 9.58413166510741 12.505348120464976 11.044516433294183
Na 11.659042527128452 16.474997066889475 14.788781080624576
Na 10.236935715703975 18.354579253018155 11.907048033321589
Na 14.34269472360458 18.611610742618808 19.513142445536282
Na 13.986478061616943 10.498330411126032 15.968422381672351
Na 14.932923810673126 12.532387205346382 13.149513985190763
Na 16.06951324482506 15.290753018082837 19.031795557739933
Na 11.100699245551946 20.486967669037394 14.563264200173233
Na 14.258398043704606 12.167337145201053 19.236298188020957
Na 12.246237197623536 15.079271279542318 11.656885618771973
Na 14.640816842975747 17.39679854310348 16.33235149530368
Na 17.082297958800886 12.295167768431613 16.623617064611587
Na 13.196659606159184 11.837652611112686 10.200297522928476
Na 13.729898561330216 18.78604859824029 12.912822828543677
Na 11.754625222519175 14.395221542752088 8.183785800508426
Na 18.384863189866675 13.314555549184846 13.38539300405826
Na 17.65360057255519 18.658347959498546 17.916149940182397
Na 12.878337379012825 17.58895594827389 9.470386199388326
Na 16.220024570664055 9.299084140798303 18.486675673385626
Na 17.182144165886395 9.780758643408163 14.184832508694262
Na 14.425982556245467 20.696186374325556 16.4500208204643
Na 15.206998827724766 14.684780272220504 9.46479022385763
Na 15.669251965457226 15.834442720975236 13.103318148872898
Na 20.69280557451254 10.811639732891804 14.275489121603101
Na 16.94159501341562 11.514505131968699 10.550941569809137
Na 17.85689664947629 15.684534191304403 15.963699151976206
Na 17.04071810954212 19.07239071507513 14.307529635272218
Na 19.615856390340834 15.726530485697758 19.278605379581016
Na 18.291369222786674 12.216058606441823 19.826469294082102
Na 16.604287780733856 17.913413560077117 10.558732527757567
Na 19.466018352347973 9.721660263306926 17.34903005990534
Na 21.79848756591801 14.311893240861663 13.834061960345897
Na 18.57389498887201 14.847031084181536 9.982210424216367
Na 21.01033175165728 16.971653952398505 16.244243902668448
Na 19.37529144704496 16.77478604124172 12.858928908068345
Na 20.76185189959756 12.254815112571116 11.053977005509376
Na 20.569342660533604 13.271921784556456 16.995335550510195
