55
Energy = -60.20917517 eV
Na 7.25329792718752 10.949741399983902 9.918519897476413
Na 19.49825436937156 14.045762034657153 13.08756343315194
Na 15.470578529087302 10.376016069005605 14.9338080975439
Na 11.032375426063943 7.1680466363158395 12.890982011468687
Na 16.286405993433977 14.225999218540439 14.835757498928896
Na 11.223052460485388 10.62471116014478 18.437694122574257
Na 13.509568119622454 12.90659962722257 9.578696123877025
Na 12.892146527996292 16.506256272312232 18.32587800978373
Na 16.889560449577225 8.406743249318703 12.024164809557517
Na 10.284214687319302 11.921517623537957 11.499413317528413
Na 10.14307355061837 12.12418707983466 7.923160626487717
Na 11.63985987715012 10.289310370068426 14.742629244909462
Na 7.129237858750641 14.742327233632949 16.071778947796265
Na 6.928481225579332 12.84285277249371 12.99347817451383
Na 8.369606981824848 11.29160359227727 16.268012930941946
Na 12.972353327651124 18.285710563825106 9.950596484544004
Na 9.344167710998077 17.866666865858864 9.916602991633924
Na 18.147537218244672 15.30074302469346 10.03917286767511
Na 11.008588427996472 18.780190889707697 13.1081741067152
Na 14.280918114124933 7.080532083298838 13.849866383234756
Na 15.054055855947809 15.725962127270114 11.60870821266343
Na 13.319388153881407 8.129017705627327 17.069683358501344
Na 9.759314585379052 7.859250461063774 16.2650147054694
Na 13.07007468318433 16.283736199472514 14.726066224926525
Na 19.015616732494873 10.498808786783853 13.917064157059313
Na 16.702751953054797 12.124154614736884 11.532808263951512
Na 9.896979049803477 17.20126274443699 16.20138489239655
Na 13.21380730361602 13.12097383483429 16.71211147618053
Na 13.413432400191109 12.965505965615293 13.155490988648625
Na 15.014819637036403 10.851699055489703 18.661726141386488
Na 9.987654910056886 14.056321626442463 18.247524720761255
Na 10.200170417849897 13.862041123395786 14.63458142412492
Na 21.13830619211285 12.69340986812551 15.803061480817998
Na 17.900049179256648 17.213634699263963 13.34501169284165
Na 16.594855398166544 18.557164734361447 10.14736272514564
Na 16.036180854725494 14.557990453615409 18.518125943753514
Na 15.950697338314347 17.646132068582094 16.463252696230594
Na 14.728707279467173 19.114700731175482 13.224108300889064
Na 11.376846126877945 15.512435220807223 7.950189290817703
Na 13.432028815596315 9.826532386631605 11.571468904539943
Na 12.756092472726328 19.466332731281174 16.2392740400219
Na 12.789384121328917 9.72766505044592 7.796085949145971
Na 8.267672715835108 9.458981377204157 13.158754940246892
Na 18.036688476208024 11.970693716257733 17.1322146059265
Na 15.966209995939886 9.630955654368943 8.927015070911521
Na 14.98543570034729 15.96242837328701 7.99265105588363
Na 12.971608134225008 13.395517310026033 20.228896932479667
Na 13.435150827631054 12.964082406485764 6.17203381638969
Na 11.32925181740993 15.456176848440911 11.502393891863832
Na 19.037885779195648 15.571599209458345 16.516780499553867
Na 16.694386153475634 12.88602428568739 7.851222780931319
Na 8.108191543837286 16.339888603106946 12.968012381342383
Na 10.178535788434274 8.725692272346425 9.873978083827197
Na 13.681857783630623 6.859373982290754 10.13674782365695
Na 8.082257151988738 14.477960117162162 9.782866558681098
