53
Energy = -57.71149779 eV
Na 22.323998555050306 17.703560483647706 16.163077212183335
Na 22.177790864578554 18.29236059835813 12.587967104159477
Na 22.859900625880385 14.09799644103094 16.464504953110687
Na 20.20735598555058 15.49000566662244 18.286079803098787
Na 19.978786906442547 20.45708815931793 14.40226873742081
Na 22.25309941061504 14.637371196977382 12.974840801905653
Na 20.967314113348092 11.988056962128637 18.815436781945024
Na 19.691084648428305 16.29772061133017 14.49918163566331
Na 18.99756220396013 18.61490121653485 17.274007112672752
Na 19.68149755427512 16.464991722140102 10.922703233142016
Na 17.559276452510154 13.192125671513004 19.385053004329507
Na 19.634864012175 12.830773002089357 15.691076092860778
Na 17.08780797077382 20.28618434717021 19.75880364188718
Na 16.98507910446181 21.589691849302532 16.11531543434663
Na 19.054199947044832 13.038157240447857 12.09733246412034
Na 17.142909773397395 14.680170566750714 9.230484868072221
Na 16.858111054797345 15.206501849886106 16.320774424005975
Na 19.386178226784125 19.997608758087175 10.953247416565103
Na 15.199308498762342 10.522681259360366 20.290946855580188
Na 17.102471309391607 16.637813778467343 19.809450835797424
Na 16.497689845832 15.234066741674955 12.749785878985053
Na 16.937366907125693 18.552907520339627 13.920823787602753
Na 17.82187899218161 10.195408380986697 17.66575529153179
Na 13.925220734929837 21.41542745809687 18.45339170146586
Na 15.489933984474423 18.529997877864755 17.236032810509496
Na 16.514773753831168 18.156289560830448 10.293819967509979
Na 16.476872724751015 21.50829274929694 12.364775121167163
Na 16.539392636242507 11.525730299328997 14.45792252281431
Na 14.579276282845905 8.999893971622793 16.529298351713173
Na 13.867271598073287 15.551627477899903 18.064307941427757
Na 14.652210490656326 12.314182442185924 17.38949760307096
Na 14.401701205712994 14.242389421980132 21.102131506917516
Na 13.77539935096894 16.891531596225647 14.611441498812237
Na 11.740974893032506 12.476655003834859 19.636162612740875
Na 11.834915972187266 18.57150196012222 17.57693198605058
Na 12.222255524055631 9.026621490689719 19.0731977242239
Na 13.869483279263658 15.489802697992419 10.39930630372533
Na 13.47887788351387 13.508680080851008 14.016771156598871
Na 13.685452129248619 20.572235020258415 14.904728153612044
Na 13.878204415015704 18.12611628746633 20.53453434344452
Na 15.463934092122251 12.13613935485249 11.159293596442165
Na 13.142284315440138 10.173916820085731 13.39822396605564
Na 11.048566482143947 15.10367535917817 16.079266079518558
Na 13.340877136587244 18.80801938291181 11.817214632875903
Na 10.877743636042812 15.822748990661022 19.837802152496486
Na 11.402630841001383 11.032658631656759 16.36040537088851
Na 10.332862348389865 18.459554760174253 14.369918243901735
Na 10.915248002709728 15.726221724281361 12.283620349648059
Na 8.49760913385217 17.152732807162216 17.432490332858922
Na 11.917621238078503 12.529886099697007 10.854801329266085
Na 9.780071224577156 12.61225056074631 13.792895044581439
Na 8.642551807876703 13.328468858251954 17.525226594056193
Na 7.8971441856311495 15.600266409370805 14.354230051153245
