53
Energy = -57.53621047 eV
Na 18.843050101488906 17.43209654077844 18.189795616143826
Na 16.055770854065717 15.989656554442973 20.174316786083033
Na 18.14726452474656 13.607364083692355 18.288489517054156
Na 18.765036689245072 9.909910952051852 19.223469168424142
Na 13.14935553553991 14.28587670438332 21.486077879367294
Na 15.727027093397139 19.191435017483617 18.21885328946062
Na 16.119728046943756 12.06194439868356 20.930226018313782
Na 12.828568333370205 16.989677643376982 18.56697334754288
Na 18.490474776115015 21.265268992157125 16.989753802999928
Na 16.043332053996625 15.923573296069454 16.541245039528054
Na 15.923725997361696 10.740860701442095 17.618339137008213
Na 15.251182381833948 21.5518407675045 15.419047109006852
Na 15.603337574191128 8.372746878669997 20.130977961099664
Na 14.11440878999492 13.533701273288923 18.14669638305729
Na 8.77845511385214 14.171217919221052 15.87925091749293
Na 12.299425768685708 20.411985671939917 17.275596923963562
Na 10.642180914526884 14.034628164419676 19.009841230757953
Na 10.308508198620446 17.900976639149228 15.41051360706678
Na 13.995989963946071 18.109026530506586 15.24553908143528
Na 17.80257214305859 18.61245153393351 14.933202209214294
Na 19.438247297549875 15.18775282360911 15.163353594457982
Na 12.812627598819049 10.844313917420498 20.021932021655033
Na 18.0392637069486 21.810502395168562 13.28201624243698
Na 12.12696184443594 14.933324619532497 15.649730173821302
Na 19.27340341223849 11.045317609638147 15.75429575276539
Na 13.174184646041697 8.241883956478151 17.459745509170457
Na 9.557252128553595 19.07495259738918 11.855448929916736
Na 18.93703218829499 18.79577701193647 11.593729222297801
Na 16.568979426054938 13.050718235742412 14.898349368079472
Na 16.964163826208477 7.792256003605066 16.643797245594275
Na 15.488183934333925 19.464143447272722 12.243614923052633
Na 20.811530574409996 15.931916030497462 11.893872151821995
Na 13.620481394743502 11.063795061798052 15.155326258199086
Na 12.249770986696545 20.747493622745726 13.514348293166346
Na 12.483861122874384 17.168126170678452 12.436532465080447
Na 16.766839837901607 16.020500086761327 12.820917079569966
Na 9.533576998445076 15.431177012873803 12.588242779096095
Na 19.116429381964974 12.843306408025056 12.38484893994794
Na 10.712139853820617 11.119504547185404 17.082348342080405
Na 20.16131019098873 17.97626281955083 8.435096224981715
Na 13.894459386081278 14.032495817404351 13.016005385978074
Na 10.65402930701658 12.186411660429103 13.435330147293394
Na 14.386217778286138 7.567038530407837 14.112633789128026
Na 16.774677299793648 10.008209715469107 13.237706503855295
Na 10.78429975734456 16.776614921269505 9.360504577265239
Na 16.66366141620074 18.857333649563994 8.85738437432495
Na 12.930324755106303 19.5985447992568 9.849889937727662
Na 18.14804639359852 15.436187918109765 9.63143041709028
Na 11.085687070532526 8.655346663821934 14.40796512192802
Na 12.013711134265188 13.494354670742297 10.274640889143116
Na 15.96082155391068 12.68314281608819 10.674688369230717
Na 14.55737015905405 16.164242007083846 9.846756041408687
Na 13.39528723248276 10.293457020800213 11.747236929097207
