54
Energy = -58.90243139 eV
Na 14.914208347155707 14.17408960779623 7.175952990726777
Na 11.199185109109695 14.215392441828719 6.5677024744079135
Na 13.84895794763682 10.992468730449866 7.284555245161044
Na 8.559506985705445 13.229566568343015 9.189510535786223
Na 10.594917039186514 10.778561547857045 7.779474080824838
Na 13.349813873156695 17.006150289297977 8.160387339156134
Na 12.204486244252504 7.706395552026283 9.134594889265175
Na 17.79021537591202 11.862026132689172 8.108336048655305
Na 9.88711318393442 16.552453974569186 9.317135456096091
Na 17.32370406623355 15.60038321589536 9.071826957691608
Na 12.169217290129513 13.714914994272236 9.743516441984589
Na 15.729254248301826 8.901595098325805 9.01017699849941
Na 12.381949130585113 18.821325792497618 11.040810050622023
Na 9.95316176133329 12.518463528172072 12.485722518560292
Na 12.722574179848097 10.4516172361352 11.031861182671108
Na 6.50743889590078 11.78055802540791 11.859549809501281
Na 15.925037451632475 18.769874504397894 9.820649318732025
Na 9.117189796234396 9.577558440823726 10.613425764172963
Na 17.9921233733614 9.91976609836628 11.431247169622546
Na 7.572725595898488 15.288978706781092 12.02951256279876
Na 11.07783192561167 15.877060973866696 12.658546838138585
Na 19.011738664942303 13.343836490271034 11.442602810546445
Na 14.83531206159048 7.5253244241459 11.98469237537696
Na 15.564111272133639 12.531360526463768 10.52914432961897
Na 17.965932416724737 16.861050874119947 12.30850520539529
Na 8.923273525262697 18.67371441184872 12.175455101697866
Na 14.54308082575916 15.90053617412558 11.398277464263495
Na 11.254602804869702 7.688493566526994 12.980457104223941
Na 16.4338388086914 13.998640643250885 13.904276629628768
Na 15.259096202714327 10.6494523835792 13.744064998601985
Na 19.789715730699083 14.85691811119337 14.720602853320175
Na 18.76164700706328 11.3615487037331 14.667630855636494
Na 17.459561860242722 7.91966229577428 14.4585689586666
Na 11.339732686841856 18.8830291620725 14.923798385334512
Na 13.742027929306708 16.19024417076417 15.12129266389469
Na 8.354588671822457 9.78072753260097 14.38121946569175
Na 17.10120450786583 16.84914126185641 16.241369679652887
Na 11.835104907586558 10.628084612896988 14.91715748268235
Na 8.549312650067508 16.676725326663465 15.268952985300228
Na 13.958389039466686 7.799927099747471 15.699642079576108
Na 7.399498901436438 13.22992673812419 15.100633269778742
Na 10.846127798751775 13.984805335626309 15.766083189675385
Na 14.188757416009834 12.823412808053236 16.532968312269617
Na 14.198866446560022 18.951066384470703 17.32322500806049
Na 17.600636811505417 13.506167028838822 17.387699776279444
Na 16.399843480742987 10.078139834708841 17.20759053269711
Na 10.436338891150575 7.788521514297707 16.595422122276318
Na 11.347110132101754 16.866871592494814 17.935483583251315
Na 9.419567838712721 11.164505535575255 17.611708933942108
Na 14.705003179639643 15.684989512608565 18.71283199118785
Na 12.757670064446048 9.997220885572842 18.385414650589073
Na 8.452709107261699 14.645139199147275 18.293263531770837
Na 11.832868390131507 13.497377364587118 19.2204754363184
Na 15.241577611347795 12.253696499030294 19.87445302428903
