54
Energy = -59.18587924 eV
Na 16.68035736010566 14.010323545691259 14.854762347002351
Na 13.390986465584039 16.9937057217973 10.219574557932605
Na 16.29848483185697 15.374872866873083 11.483188041765445
Na 10.11498286273952 17.934581128929924 9.491922805584146
Na 13.974229058386339 13.5904465572076 16.957723134405416
Na 10.892328809784102 16.59671700859742 12.87342279872613
Na 16.621973877812053 11.823046836092775 12.218250038327263
Na 15.167941150141422 10.609144795479295 15.53347791441382
Na 17.557996668378678 12.691930224821306 8.985091919323011
Na 10.902619496746677 14.99925146640403 16.24871586870675
Na 13.834674912497789 9.811740088215823 12.38979460587882
Na 10.805692021044113 14.362885573546471 10.21244132842886
Na 16.54802934231552 9.283508267046448 9.739977299276118
Na 11.402809214562566 11.858346642685202 18.661897293299308
Na 8.530234810841746 14.970736201966448 7.780678975065516
Na 12.120089545835329 15.393880182392293 7.138729053731078
Na 13.117300424485896 9.45269751571201 8.804932662398448
Na 9.427954865026173 13.448217068476193 13.28542502669354
Na 17.35740581270678 8.302409600870183 13.236321917325542
Na 17.07619072335205 8.545681536343945 17.24394942911184
Na 14.326369996268067 12.360855556444312 6.538731837165689
Na 7.568472015087741 15.919346637251298 11.253705045599833
Na 15.700200145453291 18.92654535996455 11.963603942415451
Na 13.9897273854376 12.804668015379702 9.805943043109997
Na 15.576907999914841 15.55512134045862 7.92410261332326
Na 19.576388526170703 10.446331019662553 11.310579051883549
Na 10.72517061893602 11.996337249972958 7.6526582214654555
Na 7.705317099570253 12.32766381561778 10.223153394383267
Na 10.744503055331142 10.740156857210586 11.217881710365052
Na 17.75105085461625 17.304496108896025 14.481475430510985
Na 14.137714055642013 16.639509029552475 14.414111256195953
Na 8.67498701717824 19.14194631842232 12.749259844338612
Na 14.6645212507972 6.949608760404879 14.92459353012596
Na 14.580914101945165 19.758545814797287 15.394205883059595
Na 11.279647691569076 7.911423718373191 13.957260993153005
Na 14.47115989953255 6.708951012579135 11.36604455366696
Na 8.123239699456734 10.227762712953567 13.622020485337734
Na 19.45828039282943 13.920608056010929 12.62671116988471
Na 7.827358794718506 16.32118502623296 14.956635385982658
Na 13.231189292609029 13.49222305671345 13.171262034460925
Na 11.464549186073876 11.215332782697509 15.179151102635887
Na 6.080515511142465 13.326303321087927 13.482577514085978
Na 12.272047702931891 19.772506358129306 12.359668390367153
Na 19.70656834524783 14.612251182848278 16.269599821090672
Na 12.828794784956953 8.600581380475909 17.347777422659934
Na 16.75900219981442 16.078658548513516 17.739318539578854
Na 9.334415546810739 9.17252229815441 16.960746467388507
Na 10.948230763451217 18.7095320515669 15.648388256037519
Na 18.979623552817333 11.072598418625589 15.041986031105495
Na 14.788801467347144 14.099520175327246 20.1580514601657
Na 8.19045480812724 12.651719595397147 16.45818720362799
Na 13.351700328863847 17.065806073326684 17.919461888985097
Na 14.799753360391696 10.63317926036228 19.325730544330572
Na 17.504682452086033 12.426622414770824 18.139681071445928
