53
Energy = -56.09723389 eV
Na 21.375363698528552 16.12242982034367 15.679819438366446
Na 21.167433512209932 14.81956717792619 18.853022471965495
Na 20.699634929502327 12.857245846024666 14.503280215914039
Na 19.06540591489816 18.568984413067927 15.257222399693957
Na 19.18737438289479 17.53743881747481 19.348666658739823
Na 19.59523701074596 11.847653131930626 17.678055159860225
Na 18.845397344240375 15.647817464017498 13.184270382412514
Na 18.111135340495874 15.172830880129446 16.853904352149996
Na 18.687597343383455 9.393893755455645 13.56380966381528
Na 18.037722681289807 14.302468041838608 20.453526205124078
Na 18.827639705225263 12.58752304176605 11.657753992221318
Na 17.276576656376818 9.290979136125753 16.855085608061657
Na 16.14604312361667 20.39023638739134 14.601026453477095
Na 17.339824055494155 18.41779632928729 11.829056239714106
Na 17.54625378289709 10.925205991487493 20.260290333833805
Na 15.58065185846181 16.271633356664804 9.582700114371729
Na 16.438852154478706 19.07197677548051 17.825514252605295
Na 17.148361644681117 12.277690628529966 14.709765726051588
Na 16.000795021766894 17.146061428898914 20.90491894763279
Na 15.95071279650257 16.942704340471412 14.89120274326487
Na 15.830443513437526 12.66573728431258 17.837344632055213
Na 14.463495285780283 19.348355475895087 9.114336575214487
Na 15.221601641251045 21.58130068956749 11.5104453207374
Na 15.509954330254672 14.407476545282076 12.56349371299416
Na 14.500763102561544 16.009527588745566 17.892139359064487
Na 16.541652687691105 13.116777280888678 9.238889160563032
Na 14.196042307728003 10.655781355137634 20.249158249369074
Na 13.887998094769415 18.284929178411918 12.548298332100206
Na 15.108949576088213 9.16142445833506 14.094944004860958
Na 16.322991318868013 10.182110841025038 11.037049163457512
Na 13.910851475048313 14.043291255686109 6.983215200103695
Na 13.989647202882926 10.91893528245445 8.428267731129553
Na 14.538435249410751 13.931683230160608 21.076661905660025
Na 12.591850168577752 21.621758016790476 13.660525133648106
Na 13.277899915207865 19.90210202481868 16.487601396824395
Na 13.361088160884751 18.980339839295244 19.7545779234073
Na 11.317902746251583 19.795751615096126 10.76876483141723
Na 12.735066602594376 15.687532367867924 14.8612733391443
Na 13.701943738506571 12.409419507000989 14.979283280814558
Na 13.651744393502822 9.504780975891276 17.212551764488467
Na 12.38495993580608 13.167003294253838 18.257147709960634
Na 12.216666368279745 16.85756363745143 8.277829084798014
Na 12.97505351416612 13.795801331380096 10.28094386909501
Na 11.517959057830607 9.619102256134134 14.561681614339673
Na 12.843569427274215 10.537727751100311 11.63740834709003
Na 10.980598317745612 17.517838238564064 17.452467288630196
Na 10.750648076961593 18.755383399194965 14.265901964144277
Na 10.925206015441528 16.32114360244989 11.660006449081482
Na 11.79903244875956 15.896816393398728 20.54310814005001
Na 9.872224282480175 12.220957951980834 16.101006053753803
Na 10.861006595012295 13.104894413707544 12.901382333670938
Na 9.195719880384114 14.701409123554068 18.308328477047603
Na 9.174053351977978 15.591257853516172 14.785751594122168
