54
Energy = -58.81345109 eV
Na 12.84108752353272 12.527681384465938 6.5074185653596
Na 14.390554140267765 15.911586723601589 7.074719872771891
Na 10.848373598086477 15.337626376748913 7.725639682784031
Na 15.61212158402723 10.954061380019159 8.390274079770025
Na 17.12972996511839 14.288618802252289 8.985614220444132
Na 10.298403117373729 11.807434822169219 8.950472153173772
Na 12.427742947204154 9.08572747019133 7.8823227400291636
Na 12.894441526534152 17.514657138384116 9.962245835165684
Na 16.441363315294897 17.910322286794244 9.479748281487472
Na 9.268926846012482 17.69314538739748 10.036842064479014
Na 13.51834070569116 13.762911772211678 9.72759410708338
Na 18.94040537728538 11.219326643770499 9.996302522454396
Na 7.746150224612253 14.321973006228871 9.331613759717522
Na 16.474273350441933 8.773211831364597 11.279912570691863
Na 15.552739624238832 15.709356019238589 12.074521732747163
Na 16.065952811984953 12.238113698125066 11.628296734040745
Na 7.3536677623615185 10.956206316412159 10.867709236582655
Na 10.623014193838054 14.757613519978323 11.355936539547777
Na 10.01333122127379 8.455926193043359 10.562656803132427
Na 13.296884527374866 6.876994265647725 10.836483192734654
Na 18.938787860924066 14.165507048455746 12.233803166531555
Na 14.996179316954231 19.31218789079923 12.521514119135126
Na 10.249716697880624 11.406453562703458 12.759524080077567
Na 11.389438080527892 19.74241594714605 12.336740196467131
Na 13.105703395079695 10.384920307927711 11.072866172020436
Na 7.439370931352829 14.003112401923397 13.00127776179699
Na 18.29968441088633 17.78454827621516 12.789086701987234
Na 8.21856135997374 8.653342190066368 13.706618071295061
Na 14.860515397913176 10.267356194710146 14.298311612515178
Na 11.75828783198542 8.090163400483545 13.869293568615365
Na 18.522941739754394 10.765141583310054 13.651344807429693
Na 15.114499953319596 6.754451240220506 14.091921682559201
Na 9.020563720781432 17.275526746080725 13.745586483539777
Na 10.412804253054754 14.251803674925164 14.84894122343781
Na 8.20762083535928 11.699149123562089 15.811852470413474
Na 16.383164695945972 13.53513010157474 14.907718209059095
Na 19.141671318984855 15.566751641016399 15.67263619195157
Na 13.156939706860557 19.556229162396065 15.673200417227331
Na 12.658912448334544 16.719637216469028 13.69796143278004
Na 17.17882005980598 8.779887057578586 16.493103717620556
Na 13.504608570483086 14.57125691865371 16.534213792854942
Na 15.984258708873849 17.292546548026756 15.511144911899967
Na 11.997895916439667 11.298588600062404 15.966487643748065
Na 7.537338955397472 15.282877230455203 16.48062164379272
Na 9.987377477943474 8.634419249705475 16.987101853726575
Na 13.619626263720145 8.195790551778426 17.088161164325808
Na 18.736248299682114 12.10074972423364 17.107472912947152
Na 10.784357161689366 16.9972662205815 16.999469032265566
Na 10.266753602838925 13.548313695884067 18.287268344872526
Na 16.71340687215138 14.896241741840536 18.320691204464765
Na 15.276406536091677 11.476364844376825 17.932721948818397
Na 14.10736138137247 17.40388432576275 18.574775778150396
Na 13.583846226664448 13.944937276402008 19.966079588699714
Na 12.132134636911676 10.563862255122377 19.4274723872703
