51
Energy = -55.26297452 eV
Na 19.424347712098076 15.587698883416241 9.658627386446668
Na 20.83625275568965 14.698734837026342 13.195370620891822
Na 20.635354993521766 18.270303405394934 12.146230989264586
Na 19.56974472838249 11.188685512619209 14.662359734164195
Na 18.19346917312461 12.82634163642424 11.763972200618385
Na 17.208404955928977 9.119969678038224 12.387898707677635
Na 17.7287603901206 18.71032235580992 9.867108628222878
Na 19.45500462027316 17.551812504971732 15.659636005328043
Na 17.338739707101062 13.070106941375029 8.03433678176077
Na 17.842629490465583 16.456718276290772 12.703098212215878
Na 17.994763354011823 14.208166049217452 15.530691681809948
Na 17.53006788212622 8.613494147474663 16.125442794543737
Na 16.963295905589256 11.641035922350744 17.980243642228295
Na 17.664974841595527 19.947013925189054 13.585872635113125
Na 15.17444530165995 11.58701270697506 10.524982016338011
Na 14.882216449967135 18.605018803187736 11.931239182615146
Na 14.655820646563948 14.138684010758165 17.180181332472692
Na 15.959422843791247 11.395505960331809 14.46634159218918
Na 15.750047038675527 15.34763388155748 10.266687790126037
Na 17.221441974509855 16.206264515419107 18.506200544639498
Na 16.328781814441413 16.532226390910438 7.23101362595308
Na 14.312753974497545 8.066638284908208 14.864354766309733
Na 15.692972947592656 17.267831237283968 15.413692485217801
Na 13.768493412274013 13.748146830965695 7.73046017645077
Na 14.706674781052172 8.659880342559998 18.656857371311155
Na 14.91029417301292 14.472631215628661 13.507045583131482
Na 17.03910234484909 19.868249616958323 17.237056901673967
Na 12.44749233356181 13.888385662717205 11.11083102420107
Na 12.665258863110031 16.96966740762875 9.402264751162596
Na 14.33053965838055 18.256939909185235 18.7169492812637
Na 13.330301964101011 10.896951968848736 16.542086655608617
Na 13.717388296220108 11.981304464355055 20.01677854150451
Na 13.274779382743718 19.710641758837035 15.402204472914729
Na 11.764505065420853 11.023768515094611 9.324016308508229
Na 12.737895244885587 10.579775102963925 12.873014628852824
Na 12.238697658329937 16.993857053549274 13.131359911262754
Na 12.4143620867317 15.578144887800327 20.094729376307708
Na 12.166231749075418 16.353304398656782 16.56957578407106
Na 11.080945501946966 13.122444839874921 17.841743057416693
Na 10.018946077124017 14.180140000815646 8.770570033710126
Na 11.698751590859223 13.591640632707492 14.481259532023927
Na 10.811650288624547 18.8303887878989 18.40718933265299
Na 9.87355654202092 10.554043204463426 15.497627457530688
Na 9.257528957047716 15.649803378862575 12.024793493751751
Na 11.018986677634786 9.72203662958484 19.051065087628604
Na 9.415427291534407 12.091404917352122 12.06033302548726
Na 9.287822998508991 17.551646277978918 15.244445897051566
Na 10.12763676507331 12.866552241045063 21.06039383763014
Na 8.92058386862942 15.627338859498082 18.57833699589655
Na 8.347763849135086 13.99338002525156 15.305977464219183
Na 7.933871561000783 11.95439626953891 18.335367179715504
