54
Energy = -58.46433522 eV
Na 20.573362473075722 19.73560822017686 12.842869831280948
Na 19.2112071279591 18.047138011768492 9.695916249676381
Na 13.262038129504885 19.992869103047166 12.673374113372152
Na 17.535674493671973 19.56064179223449 19.789802986973438
Na 12.648485123914362 16.658403554256036 12.53659572412391
Na 16.93189116436369 19.68266933054749 12.226150697471647
Na 15.459278024227965 20.526156457995874 15.39268026888823
Na 18.608326967159233 18.979948860407976 15.96279006510828
Na 22.073933153821226 16.615316155057144 11.511944740666438
Na 21.549091422299583 16.93171679021746 15.296213745713306
Na 15.940543896871592 16.49924240753211 10.610073220679366
Na 14.469541616420708 21.04078719704013 18.667494572975897
Na 18.928242771566094 16.774433528928377 12.848781138518431
Na 10.048338519717873 19.087845449936637 13.998960910467181
Na 13.082363897657517 14.744599109552066 15.539053840571793
Na 9.866188957310149 17.26696741252851 10.861104785556165
Na 19.483017750519668 14.372636278518264 10.059740415460647
Na 12.696870424136877 18.200151099640728 16.17835506502851
Na 12.870893186474413 15.158171338316711 9.206815679267267
Na 15.794365556685657 17.557877564453907 17.76864015705122
Na 15.64024092280725 16.881330260522393 14.270221115444222
Na 11.885822122058837 21.52461775750093 16.067236747297166
Na 18.473097285714257 15.113887010480997 15.90228166217276
Na 20.974824420984184 13.731977519162344 13.463347211646687
Na 11.265721885246956 19.781970511458386 19.254578986941787
Na 16.15642480085517 13.12909748364124 9.357623380445471
Na 17.242332339713407 13.687037591730807 12.834366120971156
Na 21.429276039928734 13.820648648693467 17.147607145798286
Na 19.556460066579774 16.62599708169617 18.754500756748037
Na 13.812283512131312 13.471153854590245 12.131387297846679
Na 19.15045748474358 10.997761592319156 11.82779100671073
Na 18.86115360536556 11.570463958581717 15.63738854332264
Na 16.62497985110142 15.804916943045148 20.761128066668
Na 14.05399349726398 18.435207718624426 20.971872603976646
Na 13.030167788519336 15.578892133750006 19.04620580668881
Na 15.235598663497658 11.849470438540235 14.924504362703031
Na 9.393200926673236 17.539939700178827 17.36452819792131
Na 10.417786320569796 13.666416398717898 11.352837388310434
Na 15.743846812837573 10.420375519196426 11.609289154069321
Na 9.763003075897226 15.58841470476352 14.31266335850436
Na 15.810589552497435 13.924882003683312 17.629157750400267
Na 18.58849170354641 12.936759528525787 19.247946640717334
Na 13.362219564168525 15.266342973827316 22.53877605080572
Na 11.203458885364848 12.006994495262646 14.501130535443323
Na 12.289304355698198 10.324111478445271 11.419909599032366
Na 9.989050775240804 14.049910435248263 17.670870048195997
Na 17.035186610428433 8.719975157029207 14.381436793092487
Na 16.260753967795278 10.247463479879144 17.855956479672216
Na 10.326572098078785 16.66465535847952 20.843915990740225
Na 11.257733737174876 13.013992549912446 20.85565802539103
Na 14.377275144760027 7.31454470574596 12.032436090524106
Na 13.38535787460998 9.063355474633255 14.960788267555312
Na 15.009415967959029 12.50839345115684 20.683749051466854
Na 12.84210940970887 11.710994326696968 17.751903152358935
