53
Energy = -57.55766907 eV
Na 13.512137800165315 15.410636322428887 20.879260319377646
Na 10.561112196256623 13.068356088347723 19.366464893833435
Na 17.004104463375686 13.78098313788938 20.096532237825677
Na 14.02893867451535 12.062450506226469 18.906620458543827
Na 16.636685486727053 17.468510444750198 20.25586401080955
Na 10.789941519717525 16.58680306000839 18.58124926902923
Na 17.575879956996797 10.012874332848515 18.646040738867576
Na 13.404621472115542 18.832132777917106 19.20485590306947
Na 11.8372480047121 14.065077537510195 16.30004848819252
Na 20.189845656352567 12.866777488773037 18.250255903299962
Na 14.684930007232607 15.442504840996365 17.761484593234307
Na 16.369695110736586 20.961004695922824 19.240494958925172
Na 18.396908369988147 15.916964787444867 17.477974605313246
Na 19.265755388202923 19.204021130605675 17.98599630497538
Na 11.19583283305969 10.45235025412034 16.977079795400822
Na 14.154610380085218 11.72802899566498 15.305690603200443
Na 11.117182120621031 17.682245503331064 12.210341807398494
Na 8.602158453109173 13.2117264512818 16.16340352209572
Na 17.102718784019398 12.61545775681033 16.698516170454486
Na 10.668161839124085 19.865131593344604 17.013759102393056
Na 16.047320801157674 18.573473742063026 16.65653132943895
Na 9.498765450769552 16.781275764308933 15.250024391632456
Na 12.940363458653968 17.62509783893288 15.42860912530485
Na 14.38699999341302 8.766206676635704 17.547534523765094
Na 16.652525444869358 8.991700106542915 14.821692540524479
Na 13.898991792653666 21.485678961326695 16.62852222618743
Na 17.67728270890964 21.574218149360554 15.871665832503885
Na 9.397008432420133 14.456101617589526 12.527067019404607
Na 14.926051451524064 17.319806992360796 12.254657534827444
Na 12.75219615791701 14.495744373763111 13.092662878416254
Na 11.898075430707848 20.69667816294408 13.727393927032328
Na 19.78258374896 10.559905478531434 15.470818779006605
Na 13.034011637011165 8.366058885252176 14.245685708049889
Na 19.099559054680373 9.288873641137998 12.102804264806984
Na 16.042162961352993 15.143327008106748 14.552188509361084
Na 17.401430453088636 12.109407196527528 13.08819204700319
Na 19.78494383046567 14.25027183720018 14.742164243626426
Na 14.168416930866902 10.968613925723254 12.037489320045202
Na 13.651479916913425 19.689641254245828 10.26122711298716
Na 10.759270790225731 11.278190807416362 13.555198262882794
Na 12.594481414501491 15.985207790282736 9.579936400900129
Na 15.77241190827282 8.135184475263115 11.349570375963394
Na 18.474156608738728 18.065870231885487 14.284183245112848
Na 15.411335478935449 20.559279169448864 13.447313515481868
Na 11.655515648941444 12.47434507860916 10.089674873127999
Na 15.285308177401244 13.96059209787904 10.876752833556546
Na 18.272087979267088 15.50922754687786 11.498567438671522
Na 11.574835146912765 8.873397474472284 10.991019509274981
Na 16.01014486401937 16.737395603723236 8.778759915459124
Na 17.264879860553062 11.347036297393668 9.660036479781287
Na 17.552564569815672 19.20751455001924 10.91079067970104
Na 14.05530192225524 10.06053905080777 8.62095353551021
Na 14.548471819955985 13.412946683048014 7.647651166011707
