5
Energy = -3.72843911 eV
Na 12.214919319721378 10.487515398554287 8.705599886824855
Na 9.33866079625307 9.395358521710172 10.400201880515535
Na 10.281708186383945 8.004530010196877 7.420308033261746
Na 11.150321095476214 12.176994247282982 11.59525742816171
Na 8.439362265486995 11.010844903804298 13.29378251962962
