55
Energy = -57.39487911 eV
Na 10.57487940837869 15.847271554525905 16.76337093595712
Na 14.113316078051412 11.482835983947975 18.29302131525937
Na 13.29919936829083 14.83199050055836 18.537149924267023
Na 10.22996130639004 17.75661026627447 11.324652660082902
Na 10.625896060375739 12.713725151499636 18.29512514108177
Na 11.223287080082278 18.433070317247154 14.558098110743103
Na 13.69620582780683 12.91031977145924 13.360373389586462
Na 14.059320109048691 8.297939265691229 16.805263751858355
Na 13.373499187374087 6.802881115944194 13.721645818360958
Na 7.032753391687661 8.477472483896184 11.648187760942488
Na 15.785273334479292 13.821398601839858 16.413424642917107
Na 17.880958157535872 9.917332667220238 12.788383282973667
Na 9.25295936601423 15.936477367804047 8.528663366685416
Na 10.671719207634116 11.357404007142277 9.442866345467282
Na 6.545928913835276 13.82301572405623 9.293787649710572
Na 9.919366125346807 12.44657419224031 12.95890537354854
Na 6.693335327933857 10.816532213753339 14.255110101397106
Na 12.531330018454636 17.208955473823945 8.826063919476807
Na 11.748706828576386 14.373322327224903 10.713970758355883
Na 11.698133303255812 14.85635359445663 6.3637156864233
Na 10.06444090585557 7.0186748499560485 12.622497938201
Na 16.613819049062016 7.377847323809232 14.751469042752914
Na 13.501743074505077 17.26899129655795 12.250841629915143
Na 17.37084467885274 12.964183713197341 11.135459461545125
Na 14.517537321141772 13.280312748401373 4.989898188983706
Na 8.643416509256657 10.150774374830569 16.972775377043696
Na 12.236607986871611 9.8886095950116 12.223777999507616
Na 8.523372536076835 16.410374807508596 14.07590838288254
Na 14.085936429630774 11.862278197538815 9.966928244763173
Na 10.817692376216046 7.381130844461722 15.988895732715795
Na 6.991045646717364 16.77271258594074 10.970238741165785
Na 13.852297730850344 16.555480247463045 15.614785766507236
Na 11.783018746092427 11.447212347557501 5.6284955593484955
Na 16.52347002567398 13.15839221594211 7.794891531054935
Na 17.053167075991755 9.99704830279731 9.401099207391876
Na 18.37420510553841 12.899957527058975 14.37583108964717
Na 15.952877362861669 7.391723344248045 11.434471120733976
Na 15.005392606227087 10.286112812035519 6.569741058414447
Na 6.633475813076302 13.910916629787 12.807255507550865
Na 12.216160525275685 8.308379693456526 7.159950413721105
Na 9.518875317456374 7.918510596845132 9.359770540639316
Na 11.89575489911261 10.95897827653922 15.473543385922275
Na 16.17579336096716 15.383121039653252 13.347189305652794
Na 14.937273360897926 16.17000838854418 6.681301345397019
Na 7.587802559455436 7.582069758896497 14.912379781288223
Na 5.049947287256761 11.304954378137172 11.279306736969604
Na 8.838056574204145 12.954820952207522 6.848724225750165
Na 7.145409963147012 10.47735850675038 8.797818199748683
Na 15.510833347911623 15.674567179489566 9.9849021051256
Na 8.232285605710592 13.462145077179052 15.89946510955399
Na 15.318310320154689 7.254351049693235 8.112764518561342
Na 9.139829359205217 9.483707891082078 6.297865988718337
Na 12.692384053591796 6.936417741943025 10.327601245994037
Na 11.44291410471754 9.348412852808647 18.797469060989954
Na 16.652937479884297 10.502937772065248 16.107864020747005
