50
Energy = -53.98490562 eV
Na 19.79198533174076 15.515297273286954 11.275118676772928
Na 21.2671820595145 14.971862121470606 16.418816465859674
Na 19.135854079768592 17.752747336466477 14.039282243528264
Na 21.15438646891649 11.650301158128608 17.97341049126754
Na 17.316727943618172 18.34345502896144 10.856604547516419
Na 18.716909484076055 14.271855747962023 14.40995974965076
Na 18.244313668741544 16.84300153856402 17.248774807817203
Na 19.49648045405067 10.88508811971843 14.703863214246503
Na 17.04214854426628 15.118634524507844 8.94794905074435
Na 15.439651805125296 17.998510637056825 14.452347079034631
Na 18.017248693036493 12.266742786346356 11.389972425964386
Na 20.159984215568173 14.995126498579792 19.86267008910064
Na 17.00887788803977 8.218140887228484 14.5449275127852
Na 17.445238618447398 20.931823393145088 13.439165434379838
Na 16.400632266432563 15.292318505555713 12.395171858098259
Na 18.17399864160475 13.080040496218933 17.48659826021953
Na 17.96068176337842 18.372140632918406 20.287723386645126
Na 18.65476395735447 11.789011743161344 20.660418960100458
Na 16.611976639011036 15.022754190983905 20.20269841216281
Na 13.947463709706941 16.858297134644015 10.431726478755184
Na 16.679001265983047 20.240338324748336 17.03759072444093
Na 15.548412791714632 14.890995610912208 16.26820320227694
Na 15.900574710890416 11.796988058097238 14.35092861753906
Na 14.519342280468297 22.31893058633735 14.794417401177617
Na 18.006352750910768 9.554426890352474 17.774253969132907
Na 15.329934084538595 11.850420972462373 19.0660623160717
Na 14.367779416354114 20.372672086487913 11.654331838629348
Na 12.01917755562752 18.288804009509636 13.387726935751521
Na 15.61581844361614 9.643752650417598 11.431338963767388
Na 12.913187005646849 19.85991878916927 16.55006762675724
Na 14.51961797680883 13.00757565766812 10.36598904530498
Na 14.743898351592813 17.629409020310053 18.625982339022844
Na 13.29399631039855 14.64652361706931 13.307338193465371
Na 12.996044400709037 14.640148381545762 19.423355841839594
Na 14.38904829424149 9.225533167913191 16.94134804117627
Na 12.993774628663566 12.557059212595478 16.29166331652038
Na 9.601220653468923 19.926783133866902 15.755325083305648
Na 13.535116299572001 7.966317456446071 13.87481924442274
Na 12.334018694763701 16.222378384536214 16.196052015526767
Na 11.264263044034394 19.33821902746964 10.089332386673446
Na 11.302458245972467 21.708604037436846 13.135399704538484
Na 12.562147514793647 11.179275928791036 12.787485239976618
Na 11.778573909782018 11.14862089305994 19.138722915005513
Na 10.495852880472013 15.817517164616548 11.44604794375151
Na 10.652019329810587 17.623894155685665 18.65068793671918
Na 10.839956518123733 9.907012058684423 15.798381528361967
Na 8.6603975508223 18.986493670464874 12.438268403954645
Na 9.859690990745015 13.983049534849096 17.738461848489496
Na 10.121087540277497 13.254975643417104 14.294556918959707
Na 9.060309736619194 16.53818031413669 15.139721244427653
