55
Energy = -59.10216157 eV
Na 10.027985109246305 9.509023389240435 7.097454505159646
Na 15.324238492783271 8.65635088070713 11.954734863793185
Na 11.965497139453278 7.293008228726554 12.418094133442517
Na 10.996059124690122 12.252617330440474 9.676385719944003
Na 9.823233973338919 15.502373965759087 8.5163971389223
Na 12.442521220950681 15.076961288510054 6.298935745854827
Na 9.78935626486305 12.804707105415181 6.356154924080481
Na 7.19799363481969 13.289174121757824 15.05354390768413
Na 14.296036847288809 11.346009036880652 15.33588812423711
Na 12.725323462359453 15.313708577230264 10.981447103676395
Na 16.819177445707812 12.973556904078077 13.848202160033912
Na 14.017598125155532 7.9683092157168325 15.262730742892982
Na 7.747096042249425 11.609052285557146 8.907841676836902
Na 9.421792767319559 9.533386968606914 19.106935601936257
Na 8.145652839805575 10.12972759586186 15.95113171809722
Na 19.800369045938687 13.803683572877052 11.418765686085186
Na 16.381081654558322 17.49039740464926 13.72224240867034
Na 17.819106064936314 13.441204158014328 8.675668073318366
Na 10.293599482627098 13.932499040912447 13.256750339113706
Na 7.546812273455453 16.462418711599256 14.022691623371907
Na 9.469463889124459 8.946894371785675 10.469576433545688
Na 14.022541638078412 18.191811247374748 16.230382747928687
Na 12.95300144359063 11.351931828321389 6.502357281336258
Na 20.069183240430664 11.979233601541857 14.361029682222854
Na 16.225420398264845 14.88859251712556 11.236612959598821
Na 18.68041877538076 16.921385552844807 10.524563080966857
Na 12.60816086441601 17.713229172503297 8.705701206353229
Na 13.770537914616463 14.983673349004606 14.392689240558953
Na 10.826027021553106 12.40210337153316 16.351783887467302
Na 17.813919234223356 12.31974532491255 16.978862749742966
Na 17.454560551279958 9.601209413492336 14.711580939775148
Na 7.6360877948713055 11.029758240466178 12.522331380734693
Na 10.991116000746862 12.708745449600869 19.647370978507087
Na 9.050598999903539 15.301291926634034 17.26980770333721
Na 11.124313210250605 10.28663885022344 13.52398823852485
Na 15.740432300608484 10.409212908844083 8.717685838559662
Na 7.737076589859819 14.4100785418507 11.103252493735035
Na 14.279571897598878 13.627185743694646 8.572245274363697
Na 19.069381828247504 15.420644253697462 14.269677968549718
Na 8.568010421348234 7.64745838872525 13.482077036384014
Na 16.01240097760976 9.47802827102783 17.856175486798676
Na 10.725995491552139 7.828756882634087 16.121350349441062
Na 12.63076978218758 9.845859999833339 18.070488555069677
Na 15.417237486766838 18.215158212481338 10.5131154979544
Na 13.014825983901192 18.341416477372615 12.80769735428986
Na 9.874708022662452 17.208420468474024 11.536513943942904
Na 14.610748371754617 12.782652181946316 18.459883478463986
Na 10.806222615614969 17.033021917720927 15.010896457236734
Na 15.901049384656918 16.431495321657216 7.7967991373947045
Na 12.560873910022666 15.383130461188031 17.71531933483368
Na 12.737631276397714 9.047401597758295 9.380993116491897
Na 17.956633764826247 10.971201543056111 11.32640079711309
Na 14.074370163796894 11.835645793271148 11.653981195160958
Na 16.300925183573476 15.54486294087349 16.765263650424373
Na 7.674399984773981 12.493101520026267 18.518695752079314
