52
Energy = -55.03686535 eV
Na 13.148901338234117 21.458548864613466 14.192240288816784
Na 11.979855896337623 18.50762605334451 12.29767655154264
Na 15.189333585299718 19.653474744709868 12.05884383541951
Na 13.87019346560862 17.300343162512135 9.527842494472912
Na 8.81279514324976 17.232259696567148 13.196812258752596
Na 7.117397733177583 18.871612419561043 15.786704178484438
Na 10.365566871603576 19.832560127533153 15.054366349987406
Na 12.729524782665221 20.135729874291908 17.760282208704858
Na 10.940796932113404 15.441031073391851 11.015698384282565
Na 16.389095200944695 20.89129527947134 15.295825540887668
Na 17.312058606592508 17.241756687974178 10.818556530875057
Na 13.922985949436804 18.109715806143242 15.198854347690588
Na 7.74138909887558 15.429324711280355 16.167384108143214
Na 16.132723515870126 14.291466226757361 9.73559856591443
Na 14.305810085263769 15.757631277071537 12.661856388185521
Na 11.244654184957493 15.787308130758504 15.181124405288417
Na 18.63128389701049 19.789062427395685 12.786441037326984
Na 8.726517354321523 13.634316725538906 13.430867703773329
Na 13.082258025157872 13.003458507438214 9.801596307509088
Na 15.877865971443581 18.833111904636944 18.068197825375112
Na 9.720283333910313 18.002989474467768 18.009764374871917
Na 12.993973603355428 16.655278779723663 18.31536648607596
Na 9.84623734300224 11.914725664957777 10.60717978459614
Na 17.26845502890744 17.22505928226617 15.024647799923136
Na 12.201359047913037 12.951591113913862 13.313483153874675
Na 20.244820451363108 16.623385377919842 12.67529721204333
Na 17.357455139305358 14.335128606964963 13.198300954297894
Na 9.943866421777676 10.223162066505939 13.752053544931359
Na 14.183909804246627 14.148985703898056 16.065600539693918
Na 10.21579960170638 14.482503356598357 18.388562832521185
Na 19.59343033192447 14.436838040577504 10.074804953751759
Na 12.89124000857205 10.04965765958702 11.597415794110287
Na 19.017016544212545 17.508934682355285 18.190987269902408
Na 15.29599016121815 11.55762414300533 13.917076187951778
Na 11.414180426064766 11.800051429499112 16.618224449834614
Na 17.83617436362528 11.509525965837367 11.234940921522703
Na 16.141127408467725 15.380171105839253 18.677354446627202
Na 20.694867083458444 18.642713890830947 15.400632331760693
Na 20.19781712981357 15.165099010580544 15.856054858234309
Na 13.258696447935689 13.217325499951192 19.46373545470853
Na 17.381518558217664 13.010487468016471 16.543753931232807
Na 12.867181133017226 8.954520964539947 15.010777436892132
Na 20.592850512946097 12.88497178181883 13.29071948631964
Na 16.108182156462004 8.627155293126435 12.074985842970943
Na 19.463814647934974 14.24797128556208 19.184908408898686
Na 14.631250095603113 10.794921681859746 17.51837215123892
Na 18.59403069812509 10.38425675846256 14.476345049870469
Na 16.588011933785655 12.20709393914189 20.17628483587056
Na 20.863670030557252 11.83910158457129 16.844991323149586
Na 16.123719985248812 8.24281066678207 15.503041538861664
Na 17.986979350688568 9.777843373105622 17.966577216363316
Na 20.148152728594322 11.056504795997762 20.321165283792283
