50
Energy = -52.61893451 eV
Na 9.564281297722344 17.082459493888532 11.09227997119472
Na 11.009867157630238 18.75731333427109 13.987733865676239
Na 13.00116043604335 21.970196395722596 12.575899465481914
Na 12.418313977033517 19.00430012368553 10.660269611204471
Na 9.58629341994048 15.11786918084724 13.969528811690722
Na 9.942336631218634 16.950032374933798 16.793359285855512
Na 10.310724646189001 13.611952767772545 10.851166003239472
Na 11.157734254667915 13.242205260203342 16.475203441511216
Na 13.35324911655427 20.924185343818472 15.894130508704185
Na 15.759712878620874 20.55863316888668 10.854579076269628
Na 12.241485709405522 16.010958131213293 8.858658800034442
Na 12.69540368913175 15.859737958483224 12.395456734920149
Na 10.334550311895471 10.070499891970918 11.273029985481594
Na 8.986470518160955 11.724401529193473 14.021121031495777
Na 14.465920299293648 18.68452986835126 13.466291622180277
Na 11.751523849256222 15.322767453514865 19.25034283801451
Na 16.31080885485244 21.61604872066809 14.222499952161357
Na 12.44440228118562 12.360044437296553 13.325155704930971
Na 15.439794501228183 17.006891501568184 10.431598637387221
Na 13.242606906274577 16.163926649824788 15.812729470919615
Na 10.913050826075628 12.047555379419506 19.71775012110198
Na 12.601483147013214 18.647987898112422 18.316606728580247
Na 14.038162733769553 13.378177152186224 10.214219443698658
Na 9.395463706704122 10.233266511845763 17.244454565400453
Na 14.576166385917466 12.853946862056905 15.89326523375018
Na 16.121392626267635 15.53144999843746 14.069170448418312
Na 15.04808199731317 16.288238140732226 19.054529490986617
Na 16.09211275367699 18.577406316274434 16.483569206913707
Na 17.92711347902762 18.739691823014425 12.962820204930896
Na 16.026858538712492 12.160574697465634 12.914469470005512
Na 13.790351138883272 9.768136662317133 11.305128810465993
Na 17.638376977832635 14.432305143277745 10.775873073806592
Na 16.66082922970589 11.256298627350638 9.637836612646954
Na 12.870895204522125 10.0457395193327 17.528978135235644
Na 11.316926396690267 9.047375567940964 14.431803761916175
Na 14.425418113580301 12.828493058581746 19.41339146639825
Na 17.55275551889387 13.96408504037158 17.108836767012196
Na 19.053785131590658 13.610236949141761 13.913031989643764
Na 17.510552266674885 14.264525802915806 20.623539542296392
Na 18.29554065419274 17.363232948744027 18.986074436113398
Na 19.039106011234942 16.790272660287943 15.673755531364117
Na 14.801786605147 9.218941259819418 14.725114038132595
Na 20.35894057087242 16.39497816877398 12.344712309518235
Na 17.062012270931724 8.80523615213906 12.106150628483157
Na 16.24380779292582 10.219704663557916 17.856651849752804
Na 19.127352742863973 11.522452644306766 19.164192394160946
Na 20.692742571539338 14.91601118500417 18.560089105856115
Na 20.884543584748847 12.073647648163455 16.344907269514398
Na 22.038830579023916 15.113021623553896 15.169562495993258
Na 18.197926748289905 10.334201107081865 15.054255754494053
