55
Energy = -59.84420192 eV
Na 6.087070826381882 10.067995807531785 8.661860153928231
Na 17.897484185836028 13.251141579901756 11.2385084258836
Na 14.338437907879968 8.056137605312486 14.305186920701365
Na 9.453418897810806 5.648854456048085 11.04520363303191
Na 15.186257403804508 13.061373065346519 13.791722364141572
Na 9.756685837115285 8.886701902725632 16.956377156188122
Na 12.529499483202814 11.53537690460458 8.150719580039766
Na 10.979772577210733 14.395501364440738 16.69830326162535
Na 14.829230838782554 7.65672743269094 10.629358374784852
Na 9.468483531673476 11.374672534015556 10.66706386547321
Na 9.092182894504901 10.987849075971585 6.9203932145049345
Na 10.582558836255703 8.64717762521398 13.323972841157307
Na 5.583624349518089 12.767340067327567 15.072374530519117
Na 6.01976950430646 11.730154680126741 11.816166675751425
Na 6.810846358817265 9.42584471235627 14.98211068046434
Na 11.811832697652696 17.44402186963511 8.03265283176446
Na 8.253810051663907 16.710504291789764 8.15926704287528
Na 17.03806189213153 14.09677240775625 7.8973641516131465
Na 9.585361481357877 17.949717813139394 11.049882506986476
Na 12.586061099254211 5.581146476894458 12.38156054597922
Na 14.358484589452814 14.036501684109162 10.287125782557071
Na 11.781623016300562 6.119126704992705 15.777832498096947
Na 8.440437790614432 6.219449217508422 14.483560953178232
Na 11.647840653687329 14.059126169235556 13.019813614595884
Na 16.868076116627734 9.981502233683699 12.650799254765102
Na 16.2236927465685 10.833107337404613 9.233627669189923
Na 7.769695455627277 15.341646462378375 15.636936516833686
Na 12.404098263079051 11.17040192287581 15.408795070883631
Na 13.249675470844366 10.833055835655738 11.791706066282064
Na 13.386732300683581 8.700306474737165 17.75069792669951
Na 8.121781269402087 12.069828362770846 17.540581791754402
Na 8.965352150603492 12.051612020595236 14.175665714946435
Na 18.651064254974646 12.327466876113533 14.5640973852025
Na 16.349779733152904 16.293284477537913 12.380246892442617
Na 15.35021838154554 17.114071535363635 8.909169398515981
Na 14.33576683580063 13.388602783948008 17.49339705713216
Na 13.760674566104257 16.25511577983324 15.10914849086168
Na 12.978101681941963 17.25844727542034 11.624931183504215
Na 10.124032989136518 14.386781191384063 6.225763119265591
Na 11.399825555879602 8.512793808294502 9.796673824571185
Na 10.367895551438357 17.147996167086287 14.290446746360299
Na 11.326308834979788 8.43467722367173 6.106194716436765
Na 7.348560020131579 8.379481679425634 11.574349782817176
Na 16.08191829340343 10.503969941066828 16.237549186517555
Na 14.54635099771667 8.435842417282084 7.208843076704521
Na 13.678750594033009 14.710035855250977 6.581312367274633
Na 11.473730206467819 11.543855198053116 18.841102443766975
Na 12.057676641827992 11.718129658993853 4.730173827701353
Na 10.708518658167346 14.596544542618735 9.651804309233885
Na 17.063295804460452 15.147185107052374 15.82642493191928
Na 15.439809704811811 11.575746022788948 5.8624685348454895
Na 7.831033726562771 14.988299685704792 12.069408961599285
Na 8.520020074960632 7.504587520500417 8.131542449689244
Na 12.316120261123375 5.6358175243012445 8.540996729092594
Na 7.198896152725668 13.466881629531228 8.72305296734823
