52
Energy = -56.1621407 eV
Na 16.115336250526344 9.625913217895807 11.988850642861133
Na 13.27164004560192 11.80546614383834 10.445606037751944
Na 14.013653616646398 12.061974273961896 17.398710918506826
Na 7.166964427266737 13.092241797459574 10.172636228647267
Na 15.08199288980574 15.010470121176382 15.318176027081599
Na 14.98795495079888 9.047783977052386 15.545688282653007
Na 12.449898135258435 14.918501181537236 12.839571204241063
Na 11.566078486800555 10.155920842294138 15.753190935193553
Na 9.43602758054052 17.47552610433981 15.523976533312167
Na 18.461561420002962 11.962686160334059 10.58386220326803
Na 8.054200083708803 10.703623231267342 15.715241092152876
Na 9.444478250701211 7.849705422517346 14.007870118013622
Na 8.804007972926861 15.258809439809246 12.97420274694552
Na 12.347825902369935 13.016292371704704 7.241000378586516
Na 17.483101870346776 15.809638736672895 9.859252150499271
Na 7.021754015140478 10.314919821728418 7.859304895263794
Na 12.850972320457192 8.767249145489435 8.55589442820353
Na 8.721089695852106 13.559851852442309 7.057893093424138
Na 13.72711046546768 11.893547841088544 13.899861154651909
Na 15.868755448084974 12.862960277896782 8.26176129338127
Na 10.389493777309086 10.512505704723118 5.7503746608093165
Na 10.02273817709377 10.780678751552399 9.340034691917266
Na 7.978062392355341 14.177684170474276 16.6755148479915
Na 6.246454066063856 12.999421261562736 13.610874544813969
Na 15.201418846390544 6.506220430448999 10.15925897297316
Na 15.818056562443829 13.799462022617773 11.917247384092784
Na 17.100809414683514 11.977766069592603 14.650733902693913
Na 12.835084193570767 17.736446324457283 15.182097584283682
Na 7.383840338353615 9.823646708341732 11.6904399024811
Na 15.006620712911491 17.377744230252983 12.301142583262182
Na 5.9552573937472655 16.50791885818413 14.889768085433094
Na 13.743027656972059 15.651654427278185 9.4564679415122
Na 11.425753005046882 14.32363504920197 16.144277650919232
Na 8.355051662736 16.719456504793992 9.420759027165747
Na 14.278088227713551 10.247937755357924 5.798265790472251
Na 10.180369406851398 11.910026148197659 18.51228199061161
Na 11.152447359221293 17.91612146390318 11.8829980212354
Na 15.541665751811495 6.177202964173706 13.572768552097207
Na 9.97199594684414 7.413246535509401 10.59036765217518
Na 16.724973620089838 9.405968084035827 8.534467640505254
Na 10.600325767296198 14.241407548605341 10.035048030141287
Na 7.688608151464633 18.703205453858313 12.52128114278593
Na 10.11109103265084 11.799728826374515 12.855990936736012
Na 12.672876853017689 8.732384712593076 12.421545789684032
Na 15.250278125406552 6.807689153889094 6.578551404263235
Na 9.89826350717417 8.081517598799703 17.738678025716773
Na 9.322922647355375 7.51377627973645 7.238728339010137
Na 12.22706685307581 5.319854620914824 8.291155399756514
Na 12.444256989584165 6.53167278805543 15.445743642115195
Na 12.393323982409296 5.1913146701381425 11.98417916338004
Na 12.167171033506282 7.325478220254161 5.160135219872109
Na 5.551466340995809 15.97497981563077 11.465565144084394
