54
Energy = -58.46746516 eV
Na 10.8130416874115 19.43574757432343 16.900633443933554
Na 9.95580746699566 15.646099263954957 18.685872186026437
Na 8.32285776109208 17.64828298190249 15.18666475934224
Na 14.118750990016697 20.55979015774304 15.807450205483132
Na 13.13462123498112 14.21427539731539 13.367369202803122
Na 10.50945997736261 18.865578785033968 20.341990573394952
Na 8.371492250588492 14.185362597050124 15.508340891423781
Na 12.932858077239645 16.87070175889582 10.696038245710474
Na 14.69875812910279 8.569506482904982 11.1463760124347
Na 12.926495226625581 10.326267873218365 13.988331755802202
Na 15.626306759036204 8.335279805874082 14.92728112810953
Na 16.304456270790165 20.293620185052117 18.62057157366094
Na 17.617478562681857 19.382392341690885 15.367638850895263
Na 14.581216310013243 11.99670138627631 11.294122864431472
Na 12.925995616698225 13.377783181264567 19.63991820329294
Na 14.432363459018399 10.66987825874933 17.41630418209673
Na 11.965462658043371 16.043265373228298 21.741609561454318
Na 15.172250308302695 14.382040431472918 8.73332689392634
Na 14.707857892486505 17.24901044370063 14.911570740929802
Na 16.068544574484218 12.172176011054717 14.529467916558234
Na 14.066494056735447 18.954685500762945 21.599398342463285
Na 18.079493868853366 10.376243966292423 16.826320466632055
Na 11.47301857794541 12.584360911590027 16.393391014343653
Na 19.883130961415674 12.239613521355858 14.357871524766491
Na 17.629948954658214 18.401277389056915 21.309947090065116
Na 15.499461575459216 15.607588701122138 20.93476615386117
Na 16.830889350698115 12.763876939004575 19.26325037508294
Na 13.463070806690695 17.474764480690236 18.445734199393073
Na 14.683722196666867 14.383967661343974 16.886754100764822
Na 22.56888685092386 14.522180985262922 15.6091412492098
Na 15.964167905521638 15.813508670691645 11.851235258365445
Na 22.19912399652583 16.423692840508295 18.654431464691985
Na 17.756257914136782 9.790859248778252 12.557679981871242
Na 19.595328189429264 13.871637859077557 17.45659977552776
Na 19.26612376987876 15.411433451000049 20.579829619934028
Na 11.45104526044453 16.084579317307824 15.665306449980115
Na 18.00723652903795 13.1365808180476 11.56477012870708
Na 11.44349552706072 9.966136620538029 10.675789111333106
Na 10.090428141222128 12.24295012165928 13.019878285945984
Na 17.81407350757807 15.342590812647785 14.687025077597216
Na 19.809477568016785 19.047961494307792 18.572987351845985
Na 13.550371139046693 11.062875255319355 8.07987849804556
Na 17.207987499128162 16.749303275490423 17.942719522260944
Na 20.646832280868118 15.32222432399155 12.50055388476408
Na 12.9216282275642 21.303745067879074 19.109023621006642
Na 20.55743192316996 17.384107726756795 15.546399852534893
Na 9.843104252442563 15.795566003860408 12.40741509033188
Na 11.648011680735893 13.579215677372511 9.909093541888685
Na 17.048398315921833 11.092002305782035 8.964980620955362
Na 18.661682435846515 18.22666776393792 12.056815700211382
Na 18.653542801350703 15.638397326904506 9.325475359194028
Na 11.675898805886188 18.800681923426666 13.453149391297838
Na 16.13581001897988 18.155234336034397 9.189323245282123
Na 15.270062476864318 19.533399312325084 12.328393170873664
