52
Energy = -56.54527952 eV
Na 19.842513691242292 17.638346051452668 15.687043420548218
Na 18.761614765906486 20.114846700774454 18.151123196017604
Na 20.136329330917413 14.10247860004418 16.380730013959674
Na 19.024646881516727 16.597786693728697 19.16701511621281
Na 18.32070101548685 21.049177695465946 14.766949854343945
Na 19.89622014437747 18.80298161052499 12.453749339175364
Na 18.590292189713345 13.174184900117735 19.63685459950271
Na 15.309206594283134 20.6269712501977 16.812195417044816
Na 16.51503788360075 17.37747490917826 16.90777435612512
Na 17.57118315076327 15.419489337125038 13.816672526273667
Na 16.078656561203516 18.737402539793166 20.132069553421
Na 16.986538467606994 20.092690054906562 10.502965212584067
Na 20.642800198214076 15.027419999208512 12.784695012543473
Na 15.007750480045242 21.712537516399053 13.218443515454751
Na 18.624012250606448 10.649074308713923 17.099579413918104
Na 18.24287950722772 16.735603088457694 10.371387058333578
Na 15.315648291700654 15.179055762197317 19.863395701899236
Na 16.244299393308243 18.537360094557034 13.536413651381359
Na 13.219005081197457 17.776990211290514 18.092662469578407
Na 15.48069089329527 11.313415739693184 18.70039213353897
Na 14.907096566487994 15.607788193708336 11.437276047361474
Na 18.486571027883706 11.843459397029177 13.807981496933158
Na 16.716497621388402 13.827550824368357 16.75544938055787
Na 13.535073788369141 18.929407026880718 11.183742133638253
Na 17.66251748882544 13.358178891602769 10.740319183392499
Na 14.02081203510691 16.037381806613155 14.800350352860788
Na 14.898498468019081 12.659796852304826 13.957513352337966
Na 15.474090032017887 17.31917654824675 8.413647672995983
Na 13.18690646394591 14.003238288937094 17.396073964916653
Na 13.77317892870065 8.225203730732256 18.571191553401956
Na 15.59356367786952 9.373456599679889 15.278077742284884
Na 11.223462993214682 15.28699713342157 19.870039214495435
Na 12.69897778161817 19.240165778954303 14.7850876024137
Na 15.709746490418485 10.464401395606801 11.378409874578303
Na 14.657053121282981 13.2691714514658 8.530182215130033
Na 12.619367640365505 10.731360490037172 16.480843390952636
Na 12.111853180227541 11.60948345738472 19.95308486281077
Na 12.075446606198934 15.976688151538639 9.139560900384597
Na 10.449432176084787 16.132014867177617 16.246468442710974
Na 12.558693731063737 13.014699162757685 11.171062199372058
Na 11.273448678382326 16.454012539685806 12.667039118639318
Na 11.383278272376488 13.205204955821765 14.312111903395456
Na 10.169392262944921 9.079329833097558 18.350375870190735
Na 9.62559625607591 12.751114865604011 17.536704670032552
Na 12.615313746810012 9.795129022730872 12.997330250776441
Na 11.984294072755628 7.447985292153099 15.592261223583664
Na 10.797994605976404 12.702007695473553 8.110888412634619
Na 12.674838467560772 10.026429509559044 9.350367729281428
Na 9.127472172896391 14.482291860982992 10.686742613519275
Na 9.3646092603351 10.161214387494024 14.951533132464101
Na 8.148891560913743 13.669356624488445 14.181666180844614
Na 9.592716656051573 11.079707356492616 11.417912344363193
