52
Energy = -55.46433515 eV
Na 23.596904792605923 13.297580943952367 20.46152158466753
Na 22.986215087082773 16.321713547297104 18.564240270939308
Na 22.69458972167439 13.28357935201602 16.873911636334537
Na 20.897282466011262 15.379121060187064 21.351485721803552
Na 21.23359969196046 17.079916904211874 15.400494095160974
Na 20.37728143201702 13.678803659225785 13.968813990731945
Na 20.473831510644715 12.043690175043592 19.91997290933166
Na 19.888430514135546 16.43269603617366 11.834872856163567
Na 20.082345355609643 10.973947775527893 16.33492539354798
Na 19.895933131862858 17.823795900770996 18.85752342027562
Na 19.4628499729854 19.794783298612913 13.023741359701788
Na 19.20764903846964 19.037455697786065 9.432514193082506
Na 17.17398888195114 12.771394557738839 15.049634320133226
Na 19.446500041388735 14.527823883691969 17.494616239624712
Na 17.98844362989435 17.8154732993982 21.92715927102005
Na 17.24384732318193 11.473863619121824 18.4075024764652
Na 17.12991993311114 13.993045043727276 11.819749478191053
Na 17.767705680645378 16.332236291780717 14.917498111364225
Na 18.27252472339737 19.59569337795842 16.305875487194516
Na 15.150137629762137 15.890140762185853 22.695032960011623
Na 17.568289433292836 16.00563609531871 8.946172554831799
Na 17.006014186782956 21.383274653275794 10.735475631377959
Na 17.530237289942733 14.551442688762327 20.44943259242874
Na 16.46226513688034 17.942631770704455 12.040562151269118
Na 17.827235421725774 20.691735669141586 19.800365167908055
Na 16.973643376596005 9.444037947768104 15.138839766136131
Na 14.665214713957704 18.03289431693966 15.440323985704147
Na 15.576625532292805 18.917167843524044 8.554112154456691
Na 16.32930762057693 17.593373958537533 18.60719001346155
Na 14.602675341636315 19.328592325085243 21.107052814389515
Na 15.214348629034538 14.518619245863277 17.37575938213509
Na 14.569597618225346 12.686810528162495 20.585871067876738
Na 15.044708277856031 20.95237506593037 17.6089552532849
Na 14.132726738173654 16.01426635233567 10.295416870234588
Na 14.38379350019404 11.527757504436176 13.031668373527912
Na 15.995211633372284 21.094824144182038 14.06633243340093
Na 14.385557177599035 14.907706695126864 13.836810556512404
Na 11.832393543589196 15.772248754240993 16.3398331672962
Na 13.211433237826002 16.06426133096847 19.908150611392067
Na 14.146250905579159 11.193912516971153 16.69617780814599
Na 12.450800746776453 20.61928061801537 14.829179577239906
Na 11.640500934138297 13.971643456718933 11.835579723286996
Na 13.64866301267043 20.04055626295504 11.349890569518715
Na 12.26184253802596 18.961373923042224 18.22432425101989
Na 11.663048885178053 13.041795012109814 18.646803543320864
Na 9.642508419116895 18.58055882988079 15.756562049266812
Na 11.389374383908123 12.453024294619953 14.976500663723177
Na 11.859624775773339 17.424511283882417 12.9599211243289
Na 8.606184512065083 13.442820300053711 17.05895341710897
Na 9.715267197395193 16.410363681074163 19.139111030154595
Na 9.07171140526357 15.280163664539083 14.038866989189057
Na 7.055822126041529 16.538723223218266 16.889383979667638
