55
Energy = -59.09099009 eV
Na 15.355413925314778 15.827057222602095 15.16319240302493
Na 9.442559762688767 10.306688860313606 13.956826215938166
Na 15.233071092340204 10.191865177559272 18.392619294671917
Na 9.321767466461672 15.76568056100775 17.078265208880072
Na 15.477650708326259 13.94671455268253 12.112639131439922
Na 15.364284169520685 13.949114857811175 18.324567737100423
Na 15.315408263406917 19.51370796428426 15.176147687592856
Na 15.493274747636724 17.708508066365376 12.025374158871418
Na 18.141140847409456 19.42686125862094 17.474632259386087
Na 15.36761784687441 12.068580908664112 15.171358211959081
Na 15.514765286635129 10.184063218740476 12.039487964675708
Na 12.284800815448309 15.764733807088126 19.283898913518506
Na 9.335708640797963 12.115549322057952 17.084380103958267
Na 18.475372058040207 15.798018301657708 11.180249309936503
Na 9.419895734328204 13.946319764828974 20.26688098860871
Na 15.344208650684315 8.384511132474039 15.196890690553804
Na 18.48785170997367 12.105739497932152 11.18468204032199
Na 18.375239636436604 12.099230086763614 17.49491783368677
Na 12.312398686518295 13.944506454347092 16.0175964793572
Na 9.495856357771977 15.792935710438261 10.734777758219835
Na 18.173129218426464 8.492122999871677 17.48969995178855
Na 12.287334508784552 17.714692060409742 16.147066893057833
Na 9.514216379091538 12.074808944672434 10.742751833211816
Na 15.212750929369209 17.703917055830075 18.375537024885926
Na 12.309298939192972 10.175365544170166 16.163708584114488
Na 12.536867912075323 13.94150458376417 9.791326869535784
Na 18.358086994789968 15.814907630100299 17.48759590863309
Na 18.471044499306426 13.955272084825014 14.31432823634536
Na 18.483175802477984 13.9466979652978 7.9987900155748415
Na 9.640309567920928 13.930315177478152 7.510588256118366
Na 18.367625545452952 17.609987088830458 14.287048517658251
Na 12.607805254606111 17.71793117796917 9.745012319631897
Na 9.703504067478978 17.571317120899355 7.67089279800103
Na 18.3921835385448 10.299686518248782 14.299076096724276
Na 9.642855990516214 19.38987668788504 10.745531434672873
Na 9.721398771883132 10.288366692887529 7.684140040651174
Na 12.439421762321103 15.823051013181582 12.97554430774044
Na 12.626451653945942 10.167614640799549 9.761348655022708
Na 12.618632346102581 15.743528039162367 6.613196541820615
Na 12.443484388327361 19.50176183268601 12.984989372791622
Na 9.674417476044242 8.472524480277187 10.76305097194366
Na 12.626717076313437 12.130111172454312 6.6203522057314235
Na 12.452189139494893 12.062634178682876 12.984032411567672
Na 15.562763205833965 15.840948903491642 8.868943197872923
Na 15.685764204766055 13.940346207892816 5.796126962730989
Na 12.47219945414638 8.382844556815805 13.006939142460222
Na 15.571977532223343 12.048033813571708 8.874985908692025
Na 18.2142654433371 13.960331346284603 20.72103420790879
Na 9.302474404696637 13.935747656128127 13.939687762959052
Na 12.296394341745682 12.132524274681234 19.293830389885223
Na 18.09788563420279 17.599112014646447 20.5571484956405
Na 9.417467168750328 17.565781442272744 13.942317828048125
Na 15.188796733575778 15.749353137422684 21.45218834772585
Na 18.122512641891667 10.321337295760577 20.56821793766144
Na 15.203385838535953 12.152332707195466 21.460660952277934
