55
Energy = -60.1382997 eV
Na 12.028039839615513 12.02717578 12.02717578
Na 12.027613546203973 12.02717578 15.890684804822047
Na 12.02840995255434 12.02717578 19.3836142816096
Na 14.607386731554715 10.194324135752868 13.887451896705354
Na 14.62514714098984 10.169401316684189 17.630421074622532
Na 5.8606726946038785 12.02717578 15.585111425929707
Na 17.20550484269128 12.02717578 15.720669463327601
Na 5.819810065720702 12.02717578 12.02717578
Na 17.332667349907286 12.02717578 12.02717578
Na 12.027613546203973 12.02717578 8.163666755177953
Na 12.02840995255434 12.02717578 4.6707372783903995
Na 14.607386731554715 13.86002742424713 13.887451896705354
Na 11.031646784070245 15.019493303725074 13.89828500990362
Na 8.854750359684797 12.02717578 13.883769301969549
Na 11.031646784070245 9.034858256274926 13.89828500990362
Na 14.607386731554715 13.86002742424713 10.166899663294645
Na 14.607386731554715 10.194324135752868 10.166899663294645
Na 11.031646784070245 9.034858256274926 10.156066550096376
Na 8.854750359684797 12.02717578 10.170582258030446
Na 11.031646784070245 15.019493303725074 10.156066550096376
Na 14.62514714098984 13.884950243315812 17.630421074622532
Na 11.028945894644718 15.055056237928367 17.642551867081664
Na 8.833964959955663 12.02717578 17.622117692642227
Na 11.028945894644718 8.999295322071632 17.642551867081664
Na 14.62514714098984 13.884950243315812 6.423930485377471
Na 14.62514714098984 10.169401316684189 6.423930485377471
Na 11.028945894644718 8.999295322071632 6.411799692918337
Na 8.833964959955663 12.02717578 6.432233867357772
Na 11.028945894644718 15.055056237928367 6.411799692918337
Na 10.126866010889897 6.1748301630119204 15.561191051669862
Na 17.013631203638237 8.407326836593379 15.575750864986611
Na 17.013631203638237 15.64702472340662 15.575750864986611
Na 10.126866010889897 17.87952139698808 15.561191051669862
Na 5.8606726946038785 12.02717578 8.469240134070294
Na 10.126866010889897 17.87952139698808 8.493160508330138
Na 17.013631203638237 15.64702472340662 8.478600695013391
Na 17.013631203638237 8.407326836593379 8.478600695013391
Na 10.126866010889897 6.1748301630119204 8.493160508330138
Na 13.584032348204316 16.841466554624734 15.739066772888473
Na 7.884022512969573 15.056259980821583 15.73124766911713
Na 7.884022512969573 8.998091579178416 15.73124766911713
Na 13.584032348204316 7.2128850053752664 15.739066772888473
Na 17.20550484269128 12.02717578 8.333682096672398
Na 13.584032348204316 7.2128850053752664 8.31528478711153
Na 7.884022512969573 8.998091579178416 8.32310389088287
Na 7.884022512969573 15.056259980821583 8.32310389088287
Na 13.584032348204316 16.841466554624734 8.31528478711153
Na 10.123296052284264 6.123105023218155 12.02717578
Na 17.022351330006927 8.350872396253392 12.02717578
Na 17.022351330006927 15.703479163746614 12.02717578
Na 10.123296052284264 17.931246536781842 12.02717578
Na 13.578393322510783 16.918510042709762 12.02717578
Na 7.818761015837314 15.147107536518089 12.02717578
Na 7.818761015837314 8.90724402348191 12.02717578
Na 13.578393322510783 7.135841517290239 12.02717578
