52
Energy = -56.25523253 eV
Na 14.948663263582278 11.089410080106033 19.89605484203363
Na 7.135402111677578 15.98830514235492 14.150469665805664
Na 13.455925387059647 14.791608665608745 21.087827930413926
Na 12.710209883991004 13.481195873118317 17.8507471115432
Na 9.645817571764157 14.432192153972716 16.09736158980315
Na 9.441227306087736 18.19028795842271 15.709741816746144
Na 14.193033556126391 16.836311072094073 18.015330597976675
Na 13.161128922690127 18.557377306855166 20.790219154341838
Na 12.942282113498106 9.998876520023204 17.231330424362984
Na 10.280690686956179 10.857635743037251 14.966677231412424
Na 16.561975228197177 8.72053183594355 17.00747092861221
Na 9.447440421765437 13.71328673119453 12.672665383166743
Na 12.420005742924356 19.7303246264916 17.262853478895195
Na 16.765536816965415 13.342628565706523 22.105350560596218
Na 10.818647122554784 16.58981791989625 18.785831824119814
Na 12.488372282355906 14.83405799122589 11.16287402640597
Na 16.164117872046678 14.140712846475935 18.866062489258347
Na 19.51028414009779 14.940280073519816 20.123337519487126
Na 12.480182658517503 16.61894525540969 14.648010170550144
Na 12.979303228294981 18.36643801720188 10.564758877274741
Na 16.392284058239394 16.964495346607354 21.257971290327436
Na 12.739983269525942 13.021650996835719 14.433091569472275
Na 19.795879328255698 10.931974506687467 15.704247106431543
Na 15.813841944157282 20.084304650736545 18.589677284648992
Na 18.545089385073403 11.396853031355162 19.099370971271533
Na 13.838596311779279 9.51618601557822 13.95393930538758
Na 9.877224107138757 17.375298148305713 12.22632503885108
Na 15.984079667015527 11.783892852889405 16.017088260897722
Na 15.057358793896016 21.920010946031272 15.411809571768224
Na 21.86991898663614 13.060111069407935 17.867161556756688
Na 17.806405233090867 17.302730177652712 17.990567424797813
Na 17.369907402612366 9.823608858583372 13.35542306472622
Na 18.888084240267677 14.0783471289318 16.68688126391206
Na 15.522771314509988 18.624825663008213 15.156594856166475
Na 11.824168785320593 11.207023204257432 11.52831911123388
Na 21.255723045983636 16.768464928264038 17.31642312987858
Na 18.702178672548087 20.120962689877526 16.066215350528577
Na 12.128715869166667 20.054481966403436 13.677670992116386
Na 15.618866128210682 15.037414773952808 15.306501839111014
Na 15.24011525181004 12.463040078109831 12.159190501831167
Na 18.417380048524638 13.387261901173996 13.125187865035306
Na 21.64333456564885 14.574325042917959 14.443706842725126
Na 15.27588397494868 20.514476530343508 12.067426436598144
Na 18.63392582401885 16.813300346700466 14.561810146800493
Na 15.791801617567542 16.512268944157434 12.145244159690305
Na 19.715013391821728 16.33166895027946 11.251324488409916
Na 14.05064886796479 12.558657970278553 8.831443411639619
Na 21.627617548559037 18.238199097513785 13.973625842108172
Na 17.175151128274866 14.348107647386431 9.692732920248073
Na 14.348399492118393 16.035455932540536 8.315942404175791
Na 18.598696559311207 19.59349371431919 12.445824832171896
Na 16.871157342583526 18.281451668999782 9.440217013533365
