54
Energy = -57.10889202 eV
Na 7.510530052957825 14.098523123773777 13.926643962449909
Na 9.98762632673124 11.242260085759296 14.298276922919753
Na 13.884895354349782 9.989187565353962 8.771274341298199
Na 8.163066371524952 16.50400865729886 11.464815080176113
Na 12.11018638315595 11.550616570967986 17.25153826352354
Na 15.58048781875399 10.399065931974325 12.058093708779955
Na 10.127480473812643 14.172435877418403 16.134935950291023
Na 14.895586838791578 9.532576941625738 17.796432884728738
Na 12.080705347194991 10.935148106728654 11.576062942197941
Na 13.135439148574768 9.512226185063941 14.622994387237737
Na 12.161140450791871 13.003493908809101 8.740853466221225
Na 10.539692434020012 14.043454022760482 12.227523291663996
Na 11.010834935637142 16.124103805576347 9.319643041123557
Na 9.340550000465507 17.26236241258671 14.66823164345512
Na 16.399326909438717 8.360396804426175 14.779524685986777
Na 15.796420074231701 12.78606265377528 9.508019448659638
Na 11.612588493554112 17.93565331364377 12.175677567410837
Na 10.849335700584149 17.717096731232953 17.611187633454563
Na 11.891044817827686 14.530169967386717 19.077871075541015
Na 13.373130323340494 12.94678736962033 14.225837492313843
Na 15.166096661444469 13.114214868676598 18.58010967410131
Na 17.54383166926249 10.461613599247666 19.680326011037632
Na 16.40205270157655 11.856929587203151 15.462428190687644
Na 12.882639114417701 16.093581560782106 14.959552695665176
Na 13.75704672059568 14.98183941167397 11.398336192056073
Na 18.751060819328472 11.187753437908272 10.917429834682428
Na 13.669199672899428 18.385196854501118 9.51310840255798
Na 16.469055646731725 16.545292001819956 9.790882209155821
Na 14.380912636781977 15.241493198860788 21.29479314559497
Na 12.007703490981775 17.84753273499725 20.754883553559555
Na 12.37234714740012 19.638100042216376 14.996524827888987
Na 14.271237876099695 16.909079420958662 17.964779809926682
Na 18.91741896834226 9.641942968798233 16.754274472817375
Na 17.112188718957785 13.900864042599617 12.537665766534479
Na 18.967690893419284 14.320273812148967 9.20343011883208
Na 15.31536092608918 17.551061183577243 13.059689641596414
Na 17.68539918171698 13.292547540222627 21.373135735826914
Na 16.401747323277093 15.342227502812154 15.704298481326626
Na 19.74879101235232 11.783656977817962 14.296613106732961
Na 18.94462307088274 13.273064168564824 17.635501178623652
Na 13.852194249797725 20.906291787814016 11.985860817643134
Na 17.289443406082313 15.924389141144541 19.260937136291975
Na 13.569854370907484 20.31171568214171 18.177357291330026
Na 15.680349215398712 20.61901517121002 14.999295609515523
Na 17.34313814653351 16.40975073749474 22.784324910062715
Na 19.11100162647105 16.8307320018347 11.866825979925203
Na 15.360984458598185 18.709495359614685 21.002235673518516
Na 21.110412650731828 13.863989164019454 11.889275074983885
Na 19.994929272440334 15.196139224591226 14.837826415857045
Na 17.457232370756895 19.94088606285097 11.891460408605628
Na 17.018205513361412 19.338457190846732 17.930036464933007
Na 20.044036065609895 17.03778785615712 17.64227710099142
Na 18.366101069530643 18.370994466979404 14.888673444483317
Na 19.047765998595445 18.6072075955726 20.639995643166603
