52
Energy = -56.73865507 eV
Na 8.754268777459387 13.935098716061082 9.939594517988718
Na 11.672129360182183 14.822119300344763 12.695693616290844
Na 16.12364982996001 18.78781894236091 11.49768947908579
Na 16.10364881036261 9.474936688539508 12.209246055064487
Na 7.879828920363462 12.036689052740119 17.022141551582692
Na 10.158436765593718 10.637260653594506 8.289775521737008
Na 13.660362289780288 11.970739697196759 13.99343623348438
Na 19.722916454804622 14.129718204132775 14.609495342756347
Na 13.581362509494822 11.726449954618179 6.789908647300512
Na 11.28846420335685 17.113060708792716 18.558669253355777
Na 18.29246411177008 11.5945724773478 17.258489859544913
Na 14.59189926081874 17.995612232195228 17.306624277375235
Na 7.969695708440669 13.156732686123314 13.416935912345172
Na 11.575643831100406 18.109283606005903 15.061138206632881
Na 9.310768623989082 15.35722101794647 15.91166954305696
Na 10.312451787418217 13.849692989777841 6.557834875592514
Na 8.77548183919918 9.586270314407574 14.268012280172714
Na 12.300981701429603 9.711870698504688 17.541138243212547
Na 15.857667870022173 9.598018509489863 19.374373150396778
Na 14.58458014274252 12.216159599904513 17.523596047730678
Na 10.77237914127798 12.160341568200081 15.438485512792523
Na 10.088268286730548 8.09935984816123 10.962112999197815
Na 12.232171165131948 13.398480213967208 9.346356967703482
Na 14.058310616300853 15.24181789684464 19.731455272549635
Na 17.60035786833093 15.392405228326629 11.799208379875761
Na 10.743904215347417 11.409872231223593 11.870847550896382
Na 12.432933605479052 8.769753127632997 13.770168079333912
Na 15.102855044454703 12.704643529730063 11.050680142693908
Na 13.21554868602327 9.731407620587916 9.980393478625171
Na 16.435823250691623 13.903018674804192 8.186136921551237
Na 16.829169555858744 12.611739556196177 14.141720291898409
Na 16.986664587846914 13.223764514862504 20.098862386133973
Na 16.58668003800256 14.908999265626294 16.752597148652427
Na 12.850623755627286 14.95492117452028 16.22288434710756
Na 7.446711455434112 10.630179613056786 10.851340019891321
Na 14.354884276306018 16.070727883498755 10.156887394767368
Na 17.282703185179138 16.995762780336882 19.401801661459825
Na 13.498929851728331 11.75973282937594 20.80157790049895
Na 14.775675155867015 16.27770937257752 13.705324833941408
Na 18.648491321568912 12.07867986277242 11.061369139539293
Na 13.664607427049871 18.93518165742097 8.344838931519094
Na 19.14805951019724 10.026405119696266 14.078866931952932
Na 16.498522940967902 10.284599377112402 8.712223849076343
Na 10.853833591554514 16.692456569539228 9.028225532711577
Na 12.457399249706526 18.61140656488877 11.744548573976658
Na 13.479010140067539 15.548452214280314 6.679678425686791
Na 9.016155554938925 16.86208402140202 12.437722420067372
Na 15.75171412028015 9.346664466504311 15.735024339636757
Na 17.6551531509405 17.75403225833514 15.13672128234619
Na 10.976309361709486 13.29637524386121 18.787039279494856
Na 14.65828675568282 20.04072943517158 14.441790859188325
Na 19.784420935172122 14.87223082914574 18.12090713026839
