5
Energy = -3.72972978 eV
Na 11.904547108011256 7.893475925281112 8.608113250713263
Na 9.875905074500182 9.676258559141564 10.719881281047137
Na 12.7716007961235 11.11127665648785 9.340615061967712
Na 7.89571955836664 11.532513372945765 12.79144997672317
Na 10.759969024931394 12.943264811041917 11.610487080999889
