51
Energy = -55.57882182 eV
Na 13.038233922408976 13.169332138630311 7.504823947933731
Na 16.473328122845462 12.249276384391992 9.100570101041326
Na 15.912407842243407 15.79710435842304 8.383360837112026
Na 10.28345750039842 11.037998703690802 8.803630217125136
Na 19.298879616009668 14.429846698052248 9.268982973870257
Na 9.982954482060698 14.375235113599276 9.977534334015916
Na 9.070279384488167 17.823616929391267 11.145566339425912
Na 13.491824756480606 10.042883516114731 9.481626300912273
Na 13.710457149423268 14.099020481807154 10.625296525287828
Na 12.361292102443295 16.941828944560147 9.06724304774659
Na 16.766345170374958 8.938579040415261 10.784010603315284
Na 15.044299892219598 19.39371632379379 9.028997983017415
Na 18.88820551778621 11.729850041125692 12.348895814809826
Na 11.523193398839227 12.033907899807232 12.270508477351571
Na 11.594371726971342 16.15482262145585 12.731171268914304
Na 18.212517783160244 17.857098923952492 10.287648282649421
Na 20.570591784779214 15.748303481358686 12.21137027194215
Na 15.197259748480775 11.565567945280629 12.298667728127862
Na 8.016011094945956 11.56417230972807 11.80192201208066
Na 8.358566774950893 14.9555036229836 13.26242929589091
Na 14.9130032302614 17.25409692265866 11.671915372100884
Na 10.06070008279405 8.641723128150433 11.466857225236248
Na 17.156767078543403 14.676131829522909 12.083637155573516
Na 12.34471717285184 19.653577937332035 11.743854029544815
Na 13.325692911918404 8.450230276936523 12.840886410950587
Na 15.980681345917436 20.459235193048386 12.348898466661405
Na 10.42321842870707 6.568116200710326 14.371154269634935
Na 13.99922501633386 18.527195502544963 14.781155061870482
Na 10.216561417766755 10.088167937475314 14.900477828357387
Na 14.101927888700608 14.683671829410292 14.261224849512509
Na 10.798450966443825 13.474802518291362 15.665898149836371
Na 7.298921313221905 8.657369660431824 14.196955257268439
Na 19.33525595524107 10.969560124428407 16.189185301669628
Na 9.77122401783463 18.209499687910853 14.789472472360028
Na 7.068389351387108 12.22249307732665 15.094662133086793
Na 13.013671027369039 7.878549142654587 16.505886954099203
Na 16.6311047870225 12.73556723222146 15.296556930520975
Na 19.463193241863905 14.634010918745167 15.30756650364789
Na 17.81771553368697 17.739418227981865 13.899073884014182
Na 12.002573100228815 16.555724621816548 16.960520438115324
Na 16.559350536572033 9.182452556703055 14.504362396806805
Na 16.171170128209102 16.189491428297526 16.68914781251485
Na 8.238904839360586 15.366132905738368 16.922349433327692
Na 9.317272123735119 8.114500600568274 17.50652464806965
Na 13.483859516406534 11.17961769487591 15.257919574060146
Na 8.51442207473825 11.64220559287596 18.06402113462102
Na 17.703366965110327 13.357190444157705 18.51520447504785
Na 15.664674083723762 10.347420978240898 17.946806320491245
Na 10.74653464665584 14.13145848311446 19.347958936520833
Na 13.997608195695392 13.590648043268748 17.860285963236457
Na 11.859568519059156 10.686277092668043 18.39952751734082
