51
Energy = -55.45677767 eV
Na 12.534094026213996 12.112063952448828 8.078276574200846
Na 13.060625347204438 8.613631081782433 9.099495974575273
Na 15.677016831337605 14.186413765200589 8.177637184389058
Na 16.145248632559312 10.542505550002623 8.854131876290214
Na 9.869864220033781 14.232509609258084 9.53957372921237
Na 10.197067886682392 10.598582406595629 10.453046541163719
Na 19.053848261851755 12.723713248711197 8.903394345849225
Na 14.667105306880607 17.686244305299528 9.544237543659694
Na 10.941007164702226 17.659236121527083 10.494138777935394
Na 7.432994393879667 12.584487579379942 11.940884195718223
Na 13.22038981380516 14.678756691799842 10.59044482812236
Na 18.07479982648598 16.18548192321307 10.170328753998854
Na 13.609176105120754 11.140305473801002 11.462356126165918
Na 15.716586984973421 8.158869576944475 11.671865718364675
Na 12.010623165385745 8.163580722506607 12.651449700128776
Na 16.605984763526813 13.151638114421138 11.420516413838195
Na 18.79962401855633 10.20139132618165 11.49386537734223
Na 8.441093815939503 16.06355880256131 12.600381367796071
Na 10.75383650902364 13.251935755762723 13.003546801600631
Na 9.230696733751707 10.150781313197458 14.032402003555426
Na 17.114406084651435 19.501170364885862 11.564148097242807
Na 13.438711563816511 19.62282402015098 12.519814884628415
Na 19.98193084389955 13.707442929471405 12.309935547245313
Na 15.684715309451256 16.534996515759545 12.708961838693229
Na 9.617235071062781 19.263142796975036 13.791485317128858
Na 16.063893327252284 19.182847528360668 15.042918160257091
Na 12.230528714861135 16.562298697777326 13.439829060650755
Na 17.510750588183814 14.206219585941444 14.985764560715037
Na 19.01745802625829 17.18926618721937 13.718406566511051
Na 20.99225618265248 14.704792020999484 15.509416776673012
Na 18.239942765982693 7.917827101800356 14.265769295477579
Na 6.720465455708172 17.118262098291005 15.740911831653166
Na 9.958828641762654 16.51069405830548 15.835227308252025
Na 12.46504863103141 19.19423515098823 16.145395616903496
Na 16.22879427189702 10.794054869900986 14.133170716156677
Na 14.68267216972424 7.80189654702392 15.340754817764507
Na 19.63079324143484 11.261491572245871 14.974242401004371
Na 8.023116175572932 13.526200875786703 15.39985225307386
Na 12.634739574427293 10.683712150710166 15.024109856402907
Na 11.067053002937133 7.820904580335395 16.196127424952532
Na 14.18211530825255 13.644992045931263 13.937606167810802
Na 14.59015424577962 16.21964534856473 16.34204418641975
Na 9.057248490182976 18.885577905664203 17.908689984420292
Na 17.13623809700245 9.685345098702516 17.33629126809629
Na 8.845565783046025 14.84189595653697 18.65976210109847
Na 11.882170192404956 16.66898416972206 18.833604319477388
Na 13.375848594610378 9.723706589986097 18.374060501521598
Na 15.064268930707723 12.622070360757794 17.304334827715262
Na 9.933339996947982 11.114501960736147 17.575961570271613
Na 11.78226091352214 13.813145197997583 16.52862147985285
Na 12.244310379464016 13.028712774279954 19.809351810424644
