5
Energy = -3.72885423 eV
Na 12.182620172651495 10.946401820848772 11.278804112750198
Na 7.224769542851417 7.902510335670834 9.900122921764774
Na 11.934791880636585 12.610481390887042 8.339022257009429
Na 9.726896173708479 8.556333378892752 12.11236067386603
Na 9.483535243782862 10.350965319468274 9.104317929590254
