52
Energy = -54.5765554 eV
Na 15.085073300076457 16.26495310400358 9.113874861640772
Na 13.472458347005126 19.319309821095565 8.8241566542841
Na 16.46753758592925 19.372965829914904 10.53190843185335
Na 11.757497795341367 16.53807573908117 7.963187837085923
Na 16.52531450568952 13.070479440781948 9.144304927649038
Na 14.004841334899785 10.731308238522635 10.705995122071126
Na 17.78678583736877 16.22980729156149 11.215581772047885
Na 17.41714942986034 10.080826054206737 10.608201917378796
Na 18.42272970840816 13.1459650444023 12.276426074295069
Na 18.43656399065634 18.903184332894156 13.375598649726252
Na 16.236492900555525 21.595355090652998 13.247369744577208
Na 12.96048068979229 13.456454006471544 8.90187150235552
Na 13.32958419868426 20.385338714861398 12.058798308029745
Na 14.793055201432974 14.163571532213515 12.0684197317185
Na 12.156473292992859 16.897472054798214 11.402027425265125
Na 19.91116737473829 16.001666816194746 14.189116177845523
Na 15.861304216875054 11.012269078976347 13.737429536458162
Na 14.956666684269335 17.400450076982303 13.475560102233237
Na 12.443232369871156 10.367198491220904 13.762373187367965
Na 11.318873769908711 13.194930214109478 11.881827307197513
Na 19.25302094804693 10.075435818559413 13.504673393851943
Na 16.706529436938315 14.38917450913434 15.059117507824208
Na 20.18456091229008 12.919999408878445 15.31644313778156
Na 20.25666195959434 18.737870485126987 16.45935973122762
Na 11.267439752452976 19.066922473296653 14.352085578428095
Na 17.582775224802226 21.05673588659507 16.44309781642658
Na 16.742699299984565 17.618704514542483 16.508544555813856
Na 13.104308812627393 13.747124284160469 15.065076784739365
Na 14.206389573110929 8.835111919393402 16.28804787830639
Na 15.499178119957204 20.238751082674153 18.984640093219966
Na 9.513564259856508 12.246810209449297 14.692526167044702
Na 10.353836879606217 15.756794727932785 14.166996347849638
Na 20.90262281647502 9.846710956334004 16.70774835490527
Na 14.243068546412111 20.03795654039657 15.719141026192856
Na 9.147463316422549 17.90683114867061 16.783673524327142
Na 15.254086938034426 12.042151170990099 17.209455595208595
Na 19.48290360332577 15.5922279706887 17.687502217108126
Na 12.939997650846296 16.75238778420613 16.711690724444313
Na 16.097539105480486 15.054471620964241 18.583226574232686
Na 11.702509901682523 11.255479204212376 17.249676595908397
Na 17.485399463793712 9.509535556609068 16.43414331305889
Na 18.626566551301966 12.151605109667624 18.389345515289488
Na 17.645316983047323 17.761483796979665 20.246793668273288
Na 10.10691381248883 14.484380968123736 17.320122495738264
Na 13.985599954405549 17.379611858686307 20.176072817925547
Na 12.917886325426437 13.947757835664705 19.331243215200008
Na 13.685239950932948 9.977566886696946 19.636977010523335
Na 11.916470834931973 19.77717491088873 18.303863090585885
Na 15.938583646414228 12.300789672780462 20.794389795971
Na 18.84746907007969 14.414186419234644 21.01542692796557
Na 10.627844370552417 16.796706748818785 19.727756726769343
Na 15.803774237491933 15.419802419166563 22.340403481304637
