54
Energy = -58.66534732 eV
Na 22.554110172396058 18.503889637057963 12.990624940666354
Na 22.98836074367067 18.821806293789987 16.50349134686026
Na 23.743385940261177 15.752170533819195 14.961157359696422
Na 17.90493331141314 16.93845899290443 13.41745800255715
Na 22.22036816579275 15.778779958070968 18.48305672022308
Na 20.07427989555658 19.66281138722753 18.2295043296019
Na 19.98173904543793 20.110328181131496 14.683285629117453
Na 21.06013260893786 15.408207120087368 12.434518453318692
Na 18.70101930202623 16.650953288694822 19.427062068612287
Na 21.47912913577934 13.144726642189303 15.659495009935688
Na 19.57071414618893 18.657261913160074 11.024033691719433
Na 20.247177190802372 16.486676719374486 15.891582813629777
Na 17.08310561310394 21.808293294951973 16.5183122919978
Na 19.398182482703476 13.243884764355867 18.603557937423698
Na 16.940851647499684 19.96505527460623 19.782485154040884
Na 17.029661753545057 20.616090793312704 12.99281536342104
Na 15.166609519287533 14.743305128939827 13.276191531042167
Na 16.271413206492284 17.16081081236863 22.185108254722685
Na 17.663107454417347 15.066468157964152 10.5066364859993
Na 15.769309312316649 18.199083694645093 10.612393902217375
Na 15.118742104483058 16.79864956680736 18.978551408923963
Na 16.849523633767188 14.647194897048779 16.634189120342246
Na 14.697754185173315 22.56104273424298 19.15059401658369
Na 17.13146372330532 18.32454047846609 16.45432188947432
Na 18.511896324021095 13.174632179124245 13.60359917732134
Na 16.25306847793768 13.824547148988938 20.525276863020615
Na 18.841212429938203 10.624654712464507 16.249915470410347
Na 13.61484783661537 19.380063256474088 20.883017793171643
Na 17.66363347857778 9.6182896642327 12.988482733568564
Na 15.642088307936056 11.998421494286614 11.233509413223079
Na 13.925775579530267 19.74428082614399 17.218619342275485
Na 16.079345149398165 10.906764763738037 18.62353706159562
Na 13.889016566949987 15.192604771792144 10.067218800009035
Na 13.497890284438757 13.46459788117676 18.084657108836243
Na 13.464338341214503 16.108138515775142 16.064655625352803
Na 14.6026263823598 18.2141387367265 13.840904094027668
Na 13.687900815500916 21.466286000603176 14.053907081911518
Na 12.438049161918846 12.731775833327378 14.793163395301649
Na 15.671846542908732 11.59317598157548 15.208483817636937
Na 13.051939752705465 15.245569279398275 21.37115179842896
Na 11.431490791882977 17.275139359880438 18.732696784205952
Na 12.587375996546633 11.40517961048561 20.40898670662586
Na 13.955712504479687 9.36718172252236 13.157778980701282
Na 12.04821544241248 12.176860281019893 11.43305758068177
Na 13.087831981397088 9.787605607820696 16.887222123643713
Na 11.761140994978255 15.629702426282229 12.87433446368131
Na 12.1766819298516 18.815898431738155 11.428153588739326
Na 11.1623772032071 18.62890500618597 14.990052091948304
Na 10.112889611499638 14.15180460597906 19.728542758474585
Na 9.817041788016162 15.28638845368465 16.228866389078
Na 10.125285857184197 11.661935107498188 17.27689254736472
Na 10.614798187647665 9.855427110174176 14.100521659065434
Na 9.143529015745191 13.176120765106122 13.403482877288912
Na 8.664495047263735 16.922685259321753 13.044015055527897
