50
Energy = -53.73061447 eV
Na 17.981478128036116 8.433624057154322 12.904080182080293
Na 19.611672563759075 11.110873389532463 14.684852958512444
Na 18.15257790077072 11.89750408004271 11.462983866057789
Na 20.135387685581115 14.583866014971509 12.825974151148328
Na 15.323475425499751 9.740754897826772 10.68013738321969
Na 19.539892514797874 18.039245828840997 11.836129583459895
Na 18.160361608897166 15.22396228393812 9.82858111067174
Na 16.04608779180466 12.569964563180646 8.570243789964202
Na 18.755660133733667 17.20369650237857 15.122831165127188
Na 16.756632852736285 18.758549398610093 9.802015919668237
Na 14.528853992196915 15.775300584235216 9.297182417134733
Na 20.580080255975812 14.28050459887846 16.426407676039485
Na 13.634977365870549 18.671116709074226 11.351775884219554
Na 16.868422023413977 8.433883995072685 16.554004103228646
Na 18.04629969024272 11.64951895937912 17.838509315404146
Na 14.678018841762654 7.456938892901826 13.623488102965187
Na 15.831477260193095 10.788408262326861 14.261934044895884
Na 13.572999972260593 21.908136672661396 12.827573117810704
Na 17.289461519939827 13.830902527187304 14.775722259507546
Na 16.623055194885957 19.884389727449992 13.636350167632
Na 12.49127388750207 10.245933001138988 12.579838407476176
Na 14.732755975547276 13.376899645778883 11.95483460294737
Na 16.27492119819045 16.504724706060472 12.529066751616043
Na 12.562910438582705 12.475039142821528 9.459149952704822
Na 16.736728927411665 19.128368315136488 17.50150093955666
Na 20.229212631194333 17.743314082511684 18.20919807139911
Na 14.951966252766237 13.252985589481789 17.635233149770894
Na 14.792414170358937 10.381815882250708 19.438288148905492
Na 13.338679440377174 19.205280009378743 14.998481403801023
Na 10.588998748264512 19.458411907315885 12.854002876554489
Na 13.276363274171961 9.500950716294907 16.261692736236796
Na 16.50845331648111 13.327046069732788 20.825384450219214
Na 12.327478848501215 16.11259603732222 13.608921743215484
Na 15.20618147319981 16.408084096181156 15.838560543932157
Na 14.878010315101552 22.018251273917727 16.24465085349784
Na 17.748044995365966 15.378800692957936 18.135401602976355
Na 11.118712347945886 16.14673499256946 10.29269452013689
Na 10.388019836808688 13.190901535547427 12.285555982070221
Na 9.982290914651513 10.729126715648675 15.071578140264293
Na 12.912032618677669 12.949861549165943 14.950864086574454
Na 11.421744841001692 12.00851928977142 18.130460282281174
Na 13.233084913456182 19.476896962438254 18.38867270803138
Na 10.044913862189226 17.92477235229679 16.417176486766586
Na 12.89370473257493 13.855279682197294 20.706756223416775
Na 15.018926864953293 16.70715241543675 19.875981512246803
Na 8.766121436383758 16.46615605266613 13.104728347277472
Na 12.357954241708969 15.697556050080786 17.526600580109843
Na 9.561505391495023 14.243586377804515 15.718161460781472
Na 9.388470014605764 14.861144098873675 19.164286821404158
Na 11.4570386795999 17.3046925926525 20.52389930235666
