53
Energy = -57.99674675 eV
Na 16.910161333706217 14.086114684534188 7.263205272289798
Na 14.20094853934352 14.59798004301283 9.251259744185292
Na 14.005480631235832 11.715683613609869 7.1087861255163896
Na 9.768097568610905 16.591067323286833 8.261769267023041
Na 10.55888100022315 13.00850943338493 8.035399636817408
Na 11.295120144020652 9.356181805796206 7.779979431752527
Na 16.394157477046615 17.429554438059466 9.320081329578196
Na 16.208364568822766 11.630180221662133 10.027706672766048
Na 12.674299310868244 18.171016239234493 9.960096738355515
Na 14.543254241702785 8.481671579383086 9.21782505226207
Na 7.884719084577307 14.252409341731282 10.354368328880232
Na 13.795198250244699 13.158101756048886 12.936165133107604
Na 8.837968607671392 10.556174027502854 10.263771853790637
Na 18.053839258647233 14.618275086715002 10.636537270729685
Na 11.280858672334512 15.020508694077598 10.939404064944885
Na 12.50730549162522 11.268929115040475 10.396617005140211
Na 9.265545656324438 17.742801261116153 11.69759323750882
Na 15.470275107042594 19.908814016365994 11.866553008103887
Na 11.389462025117826 8.047762945662441 11.272173653953223
Na 17.86014832019929 8.40949920530136 10.998446969965672
Na 14.64862687658629 16.550245347013906 12.384150610463381
Na 15.058723762743666 9.357593773230745 12.668780912066175
Na 6.55714915925544 11.84655386722193 12.786954816685071
Na 18.144665395213007 17.605977730892963 12.884981092267989
Na 18.562596015089834 11.509327681364034 12.702794654097726
Na 9.980945793171205 12.542589095124299 12.956361916719551
Na 12.098325288301828 10.105087405533283 14.152582182788404
Na 9.138257958949831 18.402012013520523 15.296348570170606
Na 15.48609656964108 11.599171727265148 15.627269655324712
Na 8.754814318899426 9.076139279304117 13.77252629108398
Na 11.43820621130853 6.7643228465431555 14.70368334473042
Na 20.324425505532886 14.77927426713048 13.742266931229265
Na 11.36810299564697 15.83316837323666 14.299570414870535
Na 17.802873164290016 8.89065595038674 14.92609596946568
Na 14.296417081712345 8.382017134851582 16.41564164411945
Na 12.315689007331532 19.147332240408836 13.567706922618557
Na 15.579750457873946 18.57592474414344 15.287015722150999
Na 16.976502667855 14.330850222477629 13.898474560347816
Na 8.400822303371378 11.981690241132542 16.05011139592
Na 14.45518713105718 15.313295628369627 16.0615500794862
Na 7.866426675888359 15.180649943227847 13.93594554191768
Na 17.114017240742317 10.079099574766596 18.32666619925141
Na 11.869177067716622 12.83994784517094 16.263793260277087
Na 19.000590875250467 12.479232781330397 16.279830726761833
Na 10.657111863239802 9.329875457630122 17.216918673072644
Na 12.28908431596114 17.98983344383916 17.14674966523514
Na 13.643337523515514 11.180692667021807 18.808062252325787
Na 18.255453177744904 16.214425478937084 16.455302796724254
Na 9.555412200232002 15.359003435527056 17.34055455351845
Na 15.493087058447095 17.287107784928345 18.77696412512965
Na 16.39021205988651 13.679928313772278 18.52265017374739
Na 12.808807790372509 14.835918983197134 19.229564887883605
Na 10.158920049389325 12.293720741554754 19.31829051245792
