55
Energy = -59.99853152 eV
Na 7.904832896771051 10.623864727166387 15.348536612950115
Na 16.342911116546436 13.68839149320556 11.343546964842506
Na 14.948430596227707 8.368816698116632 16.2519077529006
Na 10.36710709234548 12.073815915381616 9.128602362208953
Na 16.282460601419253 14.157376018437441 15.078462274610805
Na 12.787761863853266 13.66446703938333 6.185554713711211
Na 10.585187052145452 11.620773592921015 13.250462559017041
Na 7.782758003794731 10.656370153732032 11.417303181979957
Na 13.18334086252897 14.254079620656192 9.51471638207337
Na 13.569201819132314 10.980407278869075 18.68401019776244
Na 10.433480621903225 12.301264716852444 17.355223502847196
Na 13.242495373508135 14.476854217115932 13.111121855026783
Na 9.733770825240859 18.109202617935757 9.54422942398886
Na 7.171728176384129 16.90737479526912 11.851108480517489
Na 13.166254818723074 14.557446163106604 16.88151366289287
Na 10.12291015367501 18.38189728461914 13.189417758318388
Na 13.517891305369929 10.581660159065187 7.910362903829133
Na 19.29142083872316 12.594444191770727 9.785796252225397
Na 16.84004481170099 10.05963419927115 9.870895464997536
Na 13.649561496820063 11.112023224756193 11.401631109893898
Na 19.44599401181578 13.456617898210887 13.26880230382726
Na 16.65475382419915 10.811240475471111 13.717648353132
Na 13.520275428596083 11.445317366268263 15.188555974298009
Na 7.227829982928633 13.921710763665136 9.74140083086
Na 16.949939074975322 11.22271257312246 17.38847767633717
Na 12.72548768028014 17.159787016363275 7.517056232626144
Na 7.249751418659244 13.82634932208715 16.93796425860114
Na 15.890234321691784 16.592404601999373 9.119465702010025
Na 12.954650468404749 17.59809773708948 11.112016191459965
Na 9.792277079765167 15.809266378594113 18.478650551873596
Na 16.072326091745733 17.10122307241673 12.762511967667864
Na 13.280968533059637 17.623149793588382 14.947982907034838
Na 12.269838653222203 13.954823792039463 20.24168960563115
Na 10.900559178751106 8.916199635362409 10.382666884374496
Na 19.64865446966755 9.812717969644408 12.309107858476493
Na 18.942180174305225 14.344957678418414 17.225375487797685
Na 11.21055596388974 9.011724383483166 16.35936850316413
Na 20.118050827540923 11.234411481797169 15.764527304228624
Na 15.758397833034135 14.18882438517483 19.12929056857518
Na 9.787480535950989 15.172855370812655 7.567572689394146
Na 18.939145358606748 16.086373249233763 10.847452104435542
Na 7.477256193017908 17.12869519811111 15.516163637788186
Na 10.15721272743988 15.025473380874047 11.321005600076061
Na 9.40385214960532 8.046188336386335 13.440406896346701
Na 10.512030702572194 18.748168391781448 16.706861233492617
Na 10.217016400938435 15.109238376857826 14.967623595892958
Na 7.187803832120468 13.662494133691284 13.404942343138698
Na 13.184633067539517 17.331101174034472 18.863504648400568
Na 16.536464204830136 7.543797459073811 12.61172518315015
Na 14.192462711019076 7.662550583446396 9.953192109243913
Na 16.278103223238208 17.10427222406791 16.893770948342272
Na 18.449917331543183 8.226916440208953 15.525890434716954
Na 12.981644975636918 8.161197754039183 13.318670215534134
Na 19.01715202744721 16.709007080769485 14.572395415797912
Na 16.16967039444374 13.108091593478404 7.819981544972458
