53
Energy = -57.99430417 eV
Na 13.870276414121813 10.802461829402043 6.948839324931111
Na 12.316740952066151 14.007258302957972 6.721967124310079
Na 14.193039367203284 16.397558069221642 8.294993171399032
Na 10.469984401968727 11.135042732884923 8.039022878856144
Na 16.320945957414732 13.448272389817088 7.187913817503647
Na 16.277840776119664 9.778080300591789 9.375665150879703
Na 10.841598579407142 17.433138326659385 8.615640075823219
Na 13.900532910289927 19.19873228510251 10.61980647428139
Na 8.861360436709461 14.424715381787628 7.702215520727003
Na 17.170218445101067 15.802753286075552 10.019443903319406
Na 14.443820351192532 12.967008398527978 9.946388062860919
Na 8.022654596607099 12.21374670291567 10.525884018092574
Na 19.74598854145879 15.100496833516162 12.636202799449915
Na 9.300817888423477 8.667753491414146 10.598305841832504
Na 18.39439237033202 12.494347052891126 10.27373172360249
Na 12.836293813993189 8.681963406089045 9.623074981405049
Na 15.421867457778118 7.277216821181323 11.852669721657268
Na 11.241585355850175 14.5113344605005 10.257563634574684
Na 14.051990773835488 16.196961920045116 11.942977556305534
Na 16.64908588671146 13.732052266201675 12.986329791576424
Na 11.280465783903448 11.21577255853522 11.585819737458383
Na 14.544304746822629 10.517782353333452 12.525743931747053
Na 10.780330047779263 17.696460168108615 12.42492007515366
Na 17.042513995170804 17.69951177310952 13.192603276390656
Na 8.003032350331281 15.99554091940877 10.850427074469307
Na 13.133783827944033 13.518934826639232 13.595865233130628
Na 9.52150114912602 13.83790470887005 13.29588538279834
Na 8.822316095753774 10.287726336421862 13.96319499959052
Na 12.190216599476408 10.87327428064845 15.308108788872627
Na 13.745296287678084 18.911246537188585 14.420386195679075
Na 17.77027212478048 9.983887281342572 13.18206626306854
Na 11.842959486674353 8.031293809244024 13.240076210718602
Na 8.228420601095351 16.53362128030637 15.091167233357268
Na 11.643107883128199 16.01346994461333 15.339029290735706
Na 16.63944892718958 18.76932445352945 16.729735088288805
Na 15.770720411957724 12.045760421365204 15.987556676646545
Na 19.299331403340812 12.45648414588827 15.238990619428833
Na 15.267451175443318 15.771209094742852 15.560916631763053
Na 10.50301226563701 19.073905270126517 16.314570412964187
Na 18.72423236264019 15.843373441463138 16.096690052134708
Na 15.019720476462894 8.449530245439057 15.376606007548215
Na 13.130713416036295 13.767894142860547 17.59780632899124
Na 9.618020757611417 12.984500526096417 16.684719350261133
Na 10.114447838440617 9.364218708184097 17.411482368518552
Na 13.362689560880467 17.765932820230102 18.11404063953554
Na 10.25953840916231 15.937651392247727 18.618691243010687
Na 17.51596835382205 9.871298065703707 17.857995260983703
Na 18.51412491294265 13.220103116858642 18.54224983077508
Na 13.709958394426598 9.963382590467788 18.365626761803025
Na 16.309928265668113 15.921456886416376 19.06788437220157
Na 13.148545509242284 15.22621455431249 20.75608322407517
Na 11.266321390396557 12.196673856790015 19.889864013221384
Na 15.409293164765957 12.446788484041287 20.067585103607303
