6
Energy = -4.19383939 eV
Na 8.397509372959064 11.732343060633653 8.369906062308685
Na 11.655442089026517 11.140926057904082 9.315263854218637
Na 9.503063145766797 11.320522481967444 11.817918575625283
Na 10.743071807098714 8.604949723518537 13.02422135033622
Na 11.875512555006035 13.795069025224143 11.904034392560748
Na 12.526219499847288 8.211054371913225 10.306344520767777
