6
Energy = -4.84895584 eV
Na 13.31734393713582 12.949195057494931 9.749419892451767
Na 12.287920143222347 9.693932416115514 9.777258108776888
Na 10.99776719375796 6.561327397426415 9.687200723002919
Na 10.11538214976912 12.403673367579156 10.751229386867049
Na 8.851305446380172 9.007445979850075 10.6609605763798
Na 6.910966448821978 11.646483777645118 11.561563982377706
