6
Energy = -4.6047885 eV
Na 9.882914532045017 8.007962198797237 8.12653684598146
Na 8.86016351205009 10.91729286388773 11.853134193581429
Na 7.691262990757866 10.487134943560855 8.574643947950257
Na 11.110692256937286 11.205807358092995 8.909876139595365
Na 11.101517683849602 8.455248350757273 11.3841963128709
Na 12.248742175366637 11.643725198734257 12.155734466023848
