6
Energy = -4.68242871 eV
Na 13.048818117504783 13.089482876685288 11.890130365530906
Na 12.808175387718547 10.272142361432763 9.76968458597479
Na 12.53708480946098 9.922651563312531 13.342916768655652
Na 11.234617210379469 13.13171630815763 8.874154282331066
Na 9.826294311222194 11.155626175069328 11.440681127080571
Na 10.764892870830046 12.55710598542009 14.521365762229157
