6
Energy = -4.27207573 eV
Na 10.005749503518727 13.522110834013336 15.171610629885611
Na 13.075222996642106 10.392606987488149 8.133724657759231
Na 9.909001102052892 11.824368412393028 12.284901224212355
Na 13.05005593096568 12.910875686869016 14.079047495961913
Na 10.548094607399035 9.583004917999405 10.087156533761172
Na 13.112131869869652 12.199341371413663 10.947630670296316
