6
Energy = -4.68181268 eV
Na 12.865106105313748 11.136556241274912 10.943813204041899
Na 11.345296135809724 9.615150357762564 13.723917584730328
Na 11.337899014923416 9.731570831780822 8.086966165670427
Na 9.26126580228851 9.91304606530121 10.916092694410754
Na 10.302631057550368 12.779123380527222 9.163304325378483
Na 10.320019324033991 12.702520373111884 12.78955608208351
