6
Energy = -4.35899219 eV
Na 13.148060608935419 10.349127824433639 12.950408100230888
Na 13.33275706987732 11.155824505924883 9.590454628853717
Na 10.732812457789867 8.658495281722832 11.289525319895708
Na 10.318614252031585 10.470993713133899 8.304412009864041
Na 8.219489963586199 10.480621631286146 11.980702253981086
Na 7.892189673779995 12.5571137936514 9.366260837764164
