7
Energy = -5.91736087 eV
Na 14.414023251513264 12.899680480176642 11.771273670566366
Na 11.591372033845314 11.938151526432891 13.55736657646723
Na 12.507445338896009 10.220470278602612 10.560342073462492
Na 10.717351161688821 8.608760903586171 13.11117914420347
Na 11.301401775438556 13.62838773766789 10.432481185262397
Na 10.411879633000696 11.34614616362674 7.9956263029540375
Na 9.06610887508173 10.96120087202605 11.168524218557033
