7
Energy = -4.79667328 eV
Na 10.408991377036962 7.700607760911649 11.470063651615396
Na 8.6945013 10.672927062111789 11.457394282704595
Na 6.980011222963038 7.700607760911649 11.470063651615396
Na 6.980011222963038 9.688394839088351 5.9189389483846035
Na 8.6945013 8.6945013 8.6945013
Na 10.408991377036962 9.688394839088351 5.9189389483846035
Na 8.6945013 6.716075537888211 5.9316083172954075
