7
Energy = -4.61639364 eV
Na 14.680254536611084 11.664800918119626 11.26166873034366
Na 12.815583117947336 13.43483107373674 13.275129800028365
Na 11.24766228052647 12.151505929366289 10.451640653613206
Na 9.683806316798087 9.46316985579104 8.856184295846672
Na 12.665572887035877 9.04950044453887 10.479591534564918
Na 7.84605320419259 11.225112194402573 10.909203661325481
Na 9.897625880745116 11.682473625939028 13.562082378498175
