7
Energy = -6.03669146 eV
Na 9.074111130632168 11.51532000993308 8.4047298504185
Na 10.15743462449706 13.63110193761618 10.981333135071058
Na 12.335014659556029 11.163629528718507 9.704543126625172
Na 10.362472724063498 8.312078190657505 9.007364707206522
Na 12.109933426756665 11.73039636766593 13.18372670212386
Na 9.254261767162113 10.285251303935988 11.710859405152801
Na 12.263382096954212 8.449342785017127 11.955265225174168
