7
Energy = -6.0366444 eV
Na 11.961005774781437 10.26082494903193 13.792728891322632
Na 8.897112417037825 11.770582667243232 13.002730172774124
Na 13.749535812609276 9.812926727679585 10.81082860367913
Na 11.792526540525559 11.045492448657738 8.16971484854859
Na 10.240657137035532 9.33226031144037 10.836593004289254
Na 11.831688519128665 12.731357723172769 11.272754620642612
Na 8.801939578187293 12.287646437721229 9.538115678282105
