7
Energy = -6.03740808 eV
Na 10.672962857292626 6.866281391714607 7.69794480881117
Na 7.6326680418768955 8.069788351159204 6.436043871890305
Na 6.4230890689635745 10.495076506049273 8.650520728660936
Na 9.897663688314886 10.295227211509143 7.991851057921281
Na 8.721668592489605 10.802486988450687 11.282122562113203
Na 11.330650272361522 8.542448270761945 10.702602959520808
Na 8.00820699415267 7.615600795806924 9.92582352653395
