7
Energy = -5.91667617 eV
Na 11.772042293468294 11.996398616402908 7.884322943528563
Na 13.099050775807095 10.04742896601669 10.423439199965319
Na 10.859408553487745 12.754715382358146 11.179785007058511
Na 9.669926533576477 9.76764037285967 9.522879483102429
Na 13.34904935153247 11.733922055806872 13.431426948419338
Na 10.584075557412687 9.680807114609854 12.980006692739614
Na 7.734565809352071 11.34809495565354 11.921234800233844
