7
Energy = -6.03689355 eV
Na 12.745427503688154 12.989198244174391 10.743573654942502
Na 9.683297636834897 12.93968940749334 9.035080201063112
Na 13.06464802187791 9.947046201768972 12.462066334527059
Na 11.593473306783899 9.989919059238689 9.267708785293264
Na 8.083151456476097 9.896997507821906 9.735741224081638
Na 10.179196041435494 8.049360587572775 11.85228583404024
Na 9.914791097396352 11.534750267528624 12.268163914848683
