7
Energy = -6.03545316 eV
Na 12.490917212594558 8.219977077169958 9.697882323506544
Na 13.040907217684344 11.628288741359786 9.022743115371755
Na 10.294182990174178 13.423471112287988 10.226086520139392
Na 11.506450682375512 10.661914806892568 12.053750778166396
Na 9.402264195903912 7.931142234226008 11.336426356013355
Na 9.79109121780512 10.268854417914524 8.722613783576689
Na 8.026922822694042 11.142425313050918 11.647397666794937
