7
Energy = -6.03730261 eV
Na 7.858874442732163 9.612681850307702 7.097617477171602
Na 7.286289920982985 6.6459330390236895 5.25247321446891
Na 4.928936458394384 7.7078949512727135 7.6239745225268996
Na 6.672873222923257 9.015536136380707 10.380612016240622
Na 10.48877791594344 7.331020955069289 6.529586084273042
Na 10.101380408278857 8.789098594969545 9.702740807620538
Na 7.940232733742435 6.188476115366545 8.691753158905406
