8
Energy = -6.72199171 eV
Na 11.668220382995603 8.051339225895429 12.33263591097324
Na 13.588505916128254 10.656414305915167 13.883449911479637
Na 13.1410388492578 10.472510413754206 10.408290276035908
Na 9.740888004701501 9.820541946508557 9.906051846078936
Na 13.349139966951169 13.656910837356998 12.07988464221318
Na 10.46090069824917 11.775958143472293 12.746038327982419
Na 10.815021950463684 13.150865620152889 9.58199480103422
Na 10.67345421702159 15.838273942019434 11.8101523213946
