8
Energy = -7.24677224 eV
Na 11.256302174216078 8.990387811192459 7.862325632972931
Na 10.483783275636467 10.204259555353758 11.230711097444395
Na 8.077180188523842 7.322436786018487 8.360202207383928
Na 7.216355093258309 10.610450017954022 9.688802168133394
Na 7.750472012118355 8.04704091743919 11.777455315733674
Na 10.14126467712973 12.242563751988774 8.587502370489386
Na 10.918860541500763 6.821813366014576 10.387948586535796
Na 8.233666500880634 10.023688695650012 6.375493515052277
