8
Energy = -6.58637211 eV
Na 11.659213054158522 8.682111394760856 10.947491260823824
Na 7.890380147091575 8.36140267088665 10.932567970177129
Na 12.500528592549879 11.176509881996287 8.842715400820353
Na 9.307657893338535 10.458323110435018 8.830841648003416
Na 10.070076220527094 13.041926687920133 10.835069808108557
Na 9.258608803704972 10.557656532269 12.94988803165622
Na 13.932416286060715 13.349425984913077 10.841694317446278
Na 12.46548828623399 11.266705441170082 12.920449746325167
