8
Energy = -6.13503385 eV
Na 13.552843065263984 11.54072098288893 12.817812077491787
Na 11.77227555502703 8.754701617865106 13.036577164873956
Na 12.84153619067622 14.297412158755401 11.300198350579038
Na 8.48023860888491 8.911250709735754 13.107644996583916
Na 9.728956300095437 8.322710737419905 10.114162662425857
Na 11.066724771972275 13.86991999080199 8.609940772061279
Na 10.502171484567064 11.613200272896107 11.297617474040878
Na 10.235452376077491 10.808326440486603 7.992206639907028
