8
Energy = -7.24652734 eV
Na 13.05925601772745 13.681437719316586 12.936207942565975
Na 12.94322744364069 10.167482667870821 12.95629269274241
Na 10.018463184879401 12.309775556270871 13.229311320405824
Na 9.880010741307553 8.864206194359644 12.529495472751508
Na 14.290868743901138 11.709831375665422 10.089444647853943
Na 11.199973313905675 13.370936082676527 9.956491709381952
Na 11.607177884231 9.764939161695509 9.599089748179386
Na 8.524482561608945 11.364461617923716 10.187534123351655
