9
Energy = -7.96352226 eV
Na 11.354048026865971 10.728533964907786 14.361050074951152
Na 9.335101844509769 12.795090439029027 12.352093472286244
Na 9.13386074244171 9.217940607850833 12.08921801449856
Na 12.932543540188167 12.60431493705702 11.864390027571886
Na 12.495458103366005 11.070934612551344 8.808904100254559
Na 10.962009564697944 14.579466263749053 9.89573376071605
Na 10.573942696140696 7.634514469620001 9.391060154136763
Na 12.73664444577796 9.069453389974202 11.60657208090851
Na 9.176512453918056 11.222058534057897 9.306797453790445
