9
Energy = -7.96521179 eV
Na 6.881871823688211 10.73992286009703 9.111021269113031
Na 12.504063155469172 9.417459687252038 8.181863881952584
Na 9.140465258613954 8.601755617812648 7.597641969257164
Na 10.173689706075427 11.854561307136654 8.814450916294598
Na 10.770915713569481 6.41860202788807 9.66175559789388
Na 8.239466993596428 8.185274771652084 11.126205650572869
Na 11.447069593666411 9.546259323132553 11.442700513612499
Na 11.72043671145796 13.329376299490031 11.627924712123683
Na 8.77394889419265 11.558715955868864 12.08836333950952
