9
Energy = -7.91651244 eV
Na 12.539375624780389 11.042171624682425 9.4142917296322
Na 12.662369521202017 8.576383747403074 11.783981570417652
Na 11.649392607094434 14.141703362260483 8.129296062764052
Na 13.21530706975187 11.813760770505098 12.819901126463456
Na 10.816683096423674 13.988966036069714 11.61353407802791
Na 9.750937741623254 10.925190957615245 12.666731465493623
Na 9.036479925878565 12.060508876351344 9.364356307918019
Na 9.850291122777367 8.758328603100162 9.729884064036142
Na 9.474913282913212 7.455397398832058 13.026500363404066
