9
Energy = -7.95544847 eV
Na 7.124647725755995 6.700963842151959 5.492408234382039
Na 10.334961603062112 7.178906782671203 7.20025141309059
Na 10.566270330221128 10.44861848354059 8.46786631110618
Na 6.100380416854758 7.810740331971103 10.957055602786989
Na 8.915353358597041 10.014998226131434 5.34546504448489
Na 7.094507363086607 9.14849580662762 8.035450987204843
Na 8.05254492817879 11.025346283504438 10.867499264070538
Na 9.746521096471882 7.796491661553269 10.531130865780646
Na 7.721468177771675 5.532093257515865 8.759527601426052
