9
Energy = -7.99033556 eV
Na 10.709927676714182 11.718415065332776 6.197770822702415
Na 9.09956306560402 9.29906815932485 8.29284501830452
Na 12.176178527141504 10.740707380047066 9.327203771740038
Na 9.317553826230517 12.833516640402836 9.316507235819433
Na 10.655487728330144 7.906206803067311 10.96824380694334
Na 8.121402800345567 10.339140473751312 11.516073933896477
Na 10.893407682082906 12.404173698724188 12.29060206345729
Na 13.28761749337026 9.803273244810915 12.3796883474295
Na 10.21901961947744 9.435656953835428 14.191223419003068
