9
Energy = -7.59242887 eV
Na 12.961934272600868 13.450591791702145 13.985711943890049
Na 12.176875784527676 13.368847368895162 10.607883976413527
Na 12.99950131299713 11.713723918857204 7.665630547042688
Na 14.77716876719934 11.312752268254522 11.218756298080873
Na 12.390544208723117 10.217670993216412 14.055560836774596
Na 11.62025887648275 10.15813191886509 10.643468189609942
Na 10.925374084445247 12.39238838752366 16.737926405937756
Na 9.823255835758754 12.219889108999697 13.0126719943509
Na 9.379331789182624 12.220249175604048 9.126634739817177
