9
Energy = -7.36248971 eV
Na 12.925521055235592 13.838619872398962 13.782510150327244
Na 11.981029509276171 12.637471973059453 10.674267522446772
Na 11.983217690424288 13.209695191252237 7.385641629406269
Na 12.838554867443323 10.353025121707624 13.283578336696518
Na 9.902971388544122 11.98871774199934 13.465601229663841
Na 10.425808098482833 10.267567419757363 7.586326357397151
Na 11.939239450246683 9.003125575734943 10.364660444910172
Na 8.887045281579379 10.653800974272702 10.57969263436126
Na 9.899902778830196 8.523952146519068 13.107521143325945
