33
Energy = -68.15255163 eV
Ag 9.493346471777311 13.859178896629471 10.366487609282423
Ag 9.788817790469441 11.637743915739405 15.040688057242594
Ag 12.062652512015504 16.15386035916416 15.037103754432318
Ag 10.405041489276675 14.077521260321939 7.695320284407947
Ag 13.8599219470171 12.663856060273028 17.342249036790616
Ag 8.429339514815974 9.910219782618219 12.992520695060316
Ag 10.586817257090603 11.491936374382584 17.775417033030777
Ag 10.12397301724537 11.911880723422346 12.265541906865817
Ag 8.243061427369158 11.20286816662746 10.390033998166153
Ag 16.067412488826687 13.20332731234194 13.314458279144498
Ag 12.376880354450375 10.829606767197498 15.841662877635692
Ag 15.610176946112759 14.597023670745278 8.685901961614476
Ag 11.086577253640689 9.440243390098273 13.674452460687698
Ag 12.910883516863947 11.695343718168893 13.123302047290446
Ag 12.94469417085034 8.652427885986492 11.575502519330444
Ag 13.987391626931366 15.674236271988903 10.599169667425741
Ag 11.97507813931409 9.04739266023555 8.741509897964356
Ag 13.128097422173967 11.021624704770632 10.215573580348583
Ag 11.445001737790692 15.80289522514015 9.518524644445383
Ag 10.350466264213308 9.436223007392657 10.899419990428001
Ag 10.707581337871193 11.617787591753276 9.017083078262239
Ag 11.820562474578903 16.26200220230139 12.27055046452924
Ag 13.02280201119562 13.414600106305938 8.6064763193698
Ag 16.666064736948055 15.00341867921279 11.281349436785396
Ag 15.032058018110744 11.356772003948663 15.100594119920892
Ag 10.90239239164459 14.037283318952326 13.712150044158005
Ag 13.782641363119643 9.061317782934136 14.177701194333041
Ag 15.237094149122052 10.523097272161902 12.225499060160068
Ag 13.715768985249385 13.941175277164566 14.721450731986211
Ag 16.190316947941383 13.685433354702473 16.081424511368553
Ag 11.451604983189188 13.632333022632222 16.35347494195943
Ag 12.130832371520341 13.609467853224922 11.246497469434363
Ag 14.903108236354834 12.9599931714856 10.83523834596227
