20
Energy = -39.57237813 eV
Ag 9.221238918559596 10.324474804727217 8.459082499676882
Ag 9.682001538978042 8.216165070248252 10.281949042004804
Ag 10.340809554782703 6.260194132817101 12.436955621063957
Ag 8.758993128741476 10.77951139104037 11.16172550255491
Ag 9.421715328824186 12.907381315921238 9.43525516121615
Ag 11.773065982541567 9.94406875985328 9.489974337432773
Ag 11.421802090022256 11.848611184388444 7.598087116454612
Ag 8.67460177983783 13.381850604614886 12.08905220053928
Ag 12.183871458923008 8.145763062802224 11.529469166565807
Ag 11.928381881117238 7.8616225046998 14.22255330467912
Ag 9.73417633694596 8.917003150694425 12.971993088201867
Ag 10.395768025811089 15.131421577227096 10.940703155065256
Ag 14.059387866953271 10.069169961406049 11.035169264439487
Ag 11.431292834924417 13.452661228327248 13.02094853679672
Ag 9.655371777701811 11.498006449971246 13.798919669596524
Ag 13.450151679020944 12.295632196305775 9.521397481572372
Ag 11.754480758582558 14.391920520813002 8.660280143730041
Ag 12.161692123240403 10.5345446750873 13.114253162016245
Ag 13.078787952283612 14.671350619819972 11.045532826916524
Ag 14.018799552433041 12.489514172077381 12.331138348915648
