39
Energy = -83.26568354 eV
Ag 8.506706876412132 9.922142797786124 9.329528352124107
Ag 8.085011695346054 11.887542373343631 11.366126902870432
Ag 11.001990019852956 10.073596380300797 8.161745296786412
Ag 9.784388310377716 12.409788604067495 9.263113600196592
Ag 6.7840514748152865 10.914000106560803 13.653294361359011
Ag 11.157247163346142 12.65630507499629 6.839706839921629
Ag 10.61928675154621 8.252298706940172 10.379498800886171
Ag 13.672203426834226 10.262762929235647 7.1723646907277505
Ag 8.32002426296859 9.086576191138994 11.930005341737564
Ag 10.256430877100529 13.591063654596445 11.846326741414737
Ag 8.528441400753632 13.528300837258277 14.107058613259165
Ag 13.21349339314218 9.374576543285183 9.771176513542887
Ag 11.24523187396776 10.872978378169213 11.328001092849561
Ag 11.369626646498972 14.654584340624718 9.449601450426707
Ag 8.150699613429158 11.090665895357207 16.135405822840326
Ag 15.179953471431094 12.58611636773378 7.133243733763929
Ag 12.784261053462798 12.164177089660955 8.954327249094206
Ag 8.35793896528665 8.709933448009222 14.69462325421538
Ag 13.225261524134506 14.56537380899049 7.3853020906700255
Ag 13.111672364398846 7.846711910534303 12.02015350471249
Ag 9.571094549376578 11.086690854432565 13.643900494304264
Ag 10.79463168630048 8.550341674977263 13.2204771845145
Ag 15.339145827837338 11.220775581844439 9.682611285498675
Ag 13.536134596646656 16.462437690023602 9.46140524626964
Ag 13.116322394526849 13.029981417440323 11.541943607143608
Ag 15.030120901117078 14.020045034147321 9.505530211542228
Ag 12.254324702620568 15.68801898899478 11.909944782313532
Ag 10.744938725896205 9.71206591608364 15.838392763098627
Ag 14.340928415686593 10.42259803857087 12.17486557926431
Ag 11.25258987372466 14.515899409080571 14.272984843452658
Ag 10.536369149354822 12.532917636026184 16.117740871030904
Ag 12.279361700940585 11.745853260119242 13.96616034644434
Ag 13.343946436162028 9.15272542998429 14.485825895309457
Ag 15.842136308916256 12.859910364544923 12.07840943804721
Ag 15.113960040995144 15.662352182502262 11.66414246747526
Ag 14.09712627771576 14.364632244839784 13.82930228113098
Ag 13.130989872328026 10.903780045476356 16.62476569035282
Ag 13.119643989378321 13.612745542024268 16.238989955564566
Ag 14.993078501589318 11.797498366516768 14.612767920061787
