18
Energy = -35.75118847 eV
Ag 9.780815264500463 7.741190835922056 10.590419788412479
Ag 7.075830514496285 8.208585510512012 10.203645979320214
Ag 12.470751303474323 8.07821438182345 11.095764569405457
Ag 8.973820859997005 7.725646634086089 7.908373817411794
Ag 8.069717241977493 7.605364144697373 12.792339348559087
Ag 13.223737984088833 9.934667633581366 13.029838287646243
Ag 11.404473518098408 9.007135334399752 8.699392383893814
Ag 10.620808812763325 8.717363597277119 13.173596331303559
Ag 8.629924849933023 10.191368411996896 9.066698592477788
Ag 10.962800302775817 11.37436466605048 12.441731721669274
Ag 8.524454414160807 10.139800262499943 11.83581987361263
Ag 9.903131467820499 10.127820828807439 6.612278206309763
Ag 9.259932953273871 12.47059752966 10.53815993748324
Ag 8.701911121295147 12.587694901605051 7.694164327655117
Ag 12.959713286342668 10.691135038184647 10.360822973902765
Ag 11.251620816247614 11.797376127059989 8.471075904116583
Ag 12.040012449586195 13.283273758566526 10.745425113290828
Ag 10.298559150477722 14.480755492119997 8.966505467894056
