46
Energy = -99.50299081 eV
Ag 15.850683041275518 7.433987217617337 11.443656974026139
Ag 13.409067850772914 7.512635443016872 9.86936738756869
Ag 15.71603277034244 8.968441077939396 9.057314306924303
Ag 13.500403077886816 6.971878256017814 12.768338938944808
Ag 11.164131133773129 7.700678989064782 11.553914130958733
Ag 16.303814453295352 10.130446079858043 11.4408659221085
Ag 15.05837473403312 9.063753977264891 13.718085376006938
Ag 13.330332602044496 9.735362494250637 7.980455911313459
Ag 13.188085011911514 10.052906545787591 11.001122826244945
Ag 10.870590187282978 9.044882461851047 9.241005220219192
Ag 9.522371730509548 8.273819448790329 13.637019011032782
Ag 14.76463826337108 11.865481316177142 9.55817521109322
Ag 10.505353310453838 10.886660053200409 11.738495975245595
Ag 12.164837064374844 9.272504564884024 13.708556662357442
Ag 16.90664473506338 11.29248168193149 13.921933869439895
Ag 8.541184614628753 9.015789634262221 11.039741797784016
Ag 14.368247135486822 11.779164812175685 12.9756331848265
Ag 16.8404324079206 12.755231478601074 11.453177377335411
Ag 10.779184149417349 10.46092666850949 6.749732625577355
Ag 13.010463116644987 12.263245079334833 6.6740355279705
Ag 11.698019723894255 11.722396273106972 9.019475738067362
Ag 13.608520505556344 10.674639570529761 15.569822774822564
Ag 15.86774162567895 14.048813918973272 13.748923904679865
Ag 14.78485947969512 14.508996489409386 11.017209678799254
Ag 13.854726749381777 13.42733099847911 15.596011861212494
Ag 9.799873593433903 13.04200457298639 7.270961999182352
Ag 8.963589426222459 11.194694959023265 9.267531946544631
Ag 10.06854834657491 10.41064916863889 15.289675935826018
Ag 12.409906316607936 12.967107187130125 11.348993394956365
Ag 11.714456507983108 12.264707926865134 13.957148178175022
Ag 13.082574623645673 14.140329163642347 8.724585242506494
Ag 7.975949722799413 10.532208397588379 13.39253926087747
Ag 12.257131596910064 15.810938589867048 10.846232239164594
Ag 11.550495706732121 12.27928370002331 16.73997069430447
Ag 6.607904499755899 11.287982053387548 10.973432002300145
Ag 13.208874866163839 14.901021818414055 13.344489903472406
Ag 10.278026128108525 14.085587949460036 9.81224113171166
Ag 8.539512668276142 12.984441592302183 11.81078613703057
Ag 7.556697002683257 13.572960216127107 9.032382257392833
Ag 9.020845525158498 12.973234681309256 14.732291578792799
Ag 11.217673960789606 14.718197754871639 15.379095439946408
Ag 10.39681966789633 14.813193879098936 12.720057990318837
Ag 6.224019536484438 12.616152669275236 13.575836873203354
Ag 5.934147673862603 14.091884952897653 11.255284375866768
Ag 8.25755622792815 15.686481981791955 10.844200219724748
Ag 7.611611623047419 15.065299974609314 13.522082920823248
