25
Energy = -76.14407322 eV
Al 15.669550288687502 11.322317572649773 11.51428052018384
Al 14.301462029550368 13.625571131098216 11.52009522294883
Al 14.273184632103508 10.886985053589232 13.715745401109329
Al 14.53470603470553 9.919872402085508 9.679291076112314
Al 12.715980770007224 13.004236667882132 13.66494101325108
Al 13.501414103725699 12.565341757197912 9.0863613473557
Al 12.034146741013108 8.67352999777687 11.483093241506332
Al 13.243697561745151 7.741094294016815 9.202050919099024
Al 10.446908961601421 7.811506734538519 13.595845214381107
Al 12.867325674382228 11.316440709059563 11.432795351245241
Al 11.743372389814233 13.92162072873433 11.102231083261056
Al 11.622192202566575 10.306964555788333 13.621845287463778
Al 8.951274372228532 10.173208370564392 13.394044366193043
Al 9.291458074052322 8.639672685681994 11.190873812937124
Al 10.718971837988121 7.910236143089397 9.07631123914287
Al 10.828318514096342 12.721633259434908 8.77669236989363
Al 10.258859945115514 11.23790070184946 11.055420635133148
Al 11.98962355532265 10.238296565345202 9.033931186801336
Al 10.219776772393857 12.797399925675052 13.280587672369093
Al 7.722160053150597 12.443557274644423 12.72389128469826
Al 7.57448253273941 10.694286495356033 10.705128734701525
Al 9.196623091061888 13.857525227282972 10.875488772366799
Al 9.339151408085762 10.122298164677732 8.702216661349818
Al 8.221009503688478 12.547994156055333 8.715678493947895
Al 6.446681360448392 13.232841836201112 10.563491502823197
