25
Energy = -76.16895883 eV
Al 8.176809492228598 6.92003535890448 11.593262096885898
Al 10.271361927950133 7.487158760357872 13.138276665361337
Al 6.356678207355572 8.854382934376513 11.471643429016929
Al 8.054089214839433 8.967908691786459 13.60678772282125
Al 11.997029169103518 8.494956797671394 11.47065122632638
Al 10.231361225819047 7.179339674108658 9.895520904119872
Al 10.61050324044789 10.149228426600741 13.49396775981719
Al 9.262138180950775 9.455981492355365 11.183071264753917
Al 7.099615385264597 11.13959829045623 10.396462884417932
Al 7.715682579013043 8.422615540342168 9.111331024320776
Al 12.38719942611002 7.799014223150841 8.609322682577963
Al 8.19012887905664 11.544540902367881 12.847952796333852
Al 8.703212348876592 11.00866896930247 8.317872758555925
Al 11.193696041851856 10.146579065477832 9.34533576456328
Al 9.646033062331373 12.100042872741197 10.72966574826299
Al 10.630439491955258 12.80865256478632 13.17596268914911
Al 13.850467122043154 9.566033646501902 9.97875577322844
Al 12.310582272039202 11.157464087494931 11.694910814762903
Al 9.846644281705883 8.52984710786395 7.523124063050817
Al 10.861020194731427 10.743773475385101 6.695104774907837
Al 10.571885834693427 12.876284823085129 8.440014851521143
Al 11.776641454243224 13.720530240013137 10.991192516143414
Al 13.269478202547907 12.007729503893735 9.315186461293763
Al 12.71048098954418 12.72840166455093 6.761106040310945
Al 12.674405779316901 14.588814890443691 8.611101291515936
