25
Energy = -75.55529234 eV
Al 10.80771555 8.75865106192836 11.178320501575971
Al 13.138609522897914 12.278969585084777 9.899352669323116
Al 10.80771555 12.856780038071639 11.178320501575971
Al 8.476821577102085 12.278969585084777 9.899352669323116
Al 9.400071865601241 10.80771555 7.349881363729681
Al 12.215359234398758 10.80771555 7.349881363729681
Al 10.80771555 13.105232654822872 8.35200509957002
Al 10.80771555 6.392122141089598 12.467315868059055
Al 12.973502642561765 8.12831280025483 12.53299486059031
Al 10.80771555 9.26547295020963 13.933528644755269
Al 8.641928457438235 8.12831280025483 12.53299486059031
Al 9.37574887977675 6.7259809662961345 9.956660682822008
Al 12.239682220223244 6.7259809662961345 9.956660682822008
Al 13.138609522897914 9.336461514915223 9.899352669323116
Al 12.390428247197345 10.80771555 12.194408140824933
Al 9.225002852802653 10.80771555 12.194408140824933
Al 8.476821577102085 9.336461514915223 9.899352669323116
Al 10.80771555 8.510198445177124 8.35200509957002
Al 10.80771555 10.80771555 9.685936662513088
Al 8.641928457438235 13.487118299745166 12.53299486059031
Al 10.80771555 12.349958149790368 13.933528644755269
Al 12.973502642561765 13.487118299745166 12.53299486059031
Al 12.239682220223244 14.889450133703862 9.956660682822008
Al 10.80771555 15.223308958910401 12.467315868059055
Al 9.37574887977675 14.889450133703862 9.956660682822008
