25
Energy = -74.93859206 eV
Al 12.54175750784107 13.131483496714523 8.323005087366548
Al 10.36763345484299 13.65333178440897 9.791664084055588
Al 11.014212804950084 11.035552545840776 8.880078191542811
Al 8.493662815739027 12.036165006368096 8.743052164532902
Al 13.57092451984444 10.54954195994636 9.291079370807244
Al 9.064122993316884 9.449719894625202 9.642945588936092
Al 14.927789072723376 12.843186307562172 9.478614351124849
Al 12.592520418898031 12.38727916045111 11.000921981711386
Al 9.209478582665103 11.474378833261706 11.285681485060277
Al 11.615342175910724 9.840079928165116 11.262806593020382
Al 14.418430201626096 9.088504274973248 11.392029102074133
Al 9.183058589132886 13.955654527143599 12.28424425612979
Al 15.154366424612826 11.643821066249444 11.862999629648403
Al 14.4982830332 14.390327125532 11.582598446853531
Al 12.641973025279425 7.90084275743467 12.927025191864274
Al 8.038846741047731 7.212316748941838 10.72174590488504
Al 11.825929894579042 14.711504560579801 12.030116409891347
Al 10.012266468599398 7.9423867757480515 12.329242406467227
Al 10.947307284602358 12.049248674801095 13.066199133117806
Al 9.919829630829181 16.30585729189771 13.424282098763758
Al 10.881858250620759 9.640267712261863 14.179488811373455
Al 13.54913435407645 13.123773622692587 13.688492299512227
Al 13.299411442948633 10.482101368084319 13.458973774716899
Al 11.121811653446048 14.212072649303364 14.649982349175747
Al 11.921862195666403 11.752415464011339 15.514544824367391
