25
Energy = -76.46857523 eV
Al 7.456873042001467 9.414917277086154 7.323914496313643
Al 9.180229440665645 11.267043367668268 8.48435850529528
Al 10.058193432141067 9.146613316097646 7.003825092824984
Al 6.851312489316554 10.374083160544135 9.695439309023428
Al 10.946121090588484 12.929097484992708 9.715053670285027
Al 11.788467359104388 10.875978631574897 8.215444227207753
Al 8.514308920306108 12.35768985009602 10.82607152892514
Al 6.161670540044373 11.481854864680642 11.991212172882673
Al 12.618115916941695 8.678840994020133 6.813900233669632
Al 14.386620511540848 10.272055818114472 7.98388253205656
Al 13.635516427678018 12.734450790781313 8.879607015163492
Al 8.895260963322157 8.510317096860197 9.465101029911137
Al 11.768862600536165 8.28544180701333 9.337196247236157
Al 8.326027032534748 11.79496020615053 13.490353552013275
Al 10.648823871806613 10.315647073825641 10.808128249365886
Al 8.107055780497438 9.54209013750971 11.909145389371908
Al 13.167727154590407 12.924748170311018 11.448226594933208
Al 13.471904311665586 10.372990015172258 10.457288810123975
Al 9.90728203046773 7.558993574145527 11.619710100282925
Al 10.652631883097607 12.641308928681598 12.380539642596553
Al 12.441866281868387 8.44812455083941 11.951114652145055
Al 12.714864339635874 13.196899408649603 14.06364073752977
Al 10.307753210213988 9.595973150109755 13.437059370436318
Al 12.708936242876822 10.762559504150346 13.069927078973741
Al 10.60157469780108 11.835320392167038 14.947859332675437
