25
Energy = -76.49177464 eV
Al 7.2733271445682535 10.139090470618711 12.302605276664737
Al 6.757096482343877 11.206972605974727 9.954223011688928
Al 9.434778945246693 8.451489921399874 12.388920184141499
Al 7.911976317811611 8.489583297341506 10.209453715699693
Al 6.582061816998002 11.935268013316689 7.407766813991677
Al 9.768261442347342 6.4904137605213865 10.50004617303527
Al 8.4290072624152 9.992374817498543 8.15570350780973
Al 9.465645457401022 11.075233805023757 13.422319246162782
Al 9.314640292109745 7.409877066642999 8.089181654351371
Al 9.554715081364389 10.885059538100508 10.707200838102551
Al 8.593784457677643 12.938180764616998 8.876413078075117
Al 8.222134650970524 13.002345300367864 11.853128373371675
Al 11.988758309538895 7.188175792695631 11.680691630792149
Al 11.682373473678188 9.761477836210013 12.489818249886433
Al 10.94167660121463 8.874036727681059 9.666738746525608
Al 11.649888348115056 12.462297276839514 12.619176504705836
Al 10.637967322786654 13.391220102773461 10.366985623620325
Al 9.06321479473086 11.712550469912978 6.2436414180103625
Al 14.003352929213607 8.31868129545492 12.985793692074365
Al 10.633146774353117 9.359256792054373 6.769285969759863
Al 10.896229710947749 11.662258225093264 8.18539899291279
Al 12.480070438369468 11.40961533293031 10.250922816642982
Al 14.053693218250539 10.958471381195112 12.395871768187517
Al 13.649159566873088 8.97200014948085 10.347849029794633
Al 12.909978664036387 9.811008759617904 8.027803187354476
