29
Energy = -58.94765512 eV
Ag 14.459904686369402 6.809018916198205 10.50578994950184
Ag 8.071590039129283 11.7768783760947 12.18719790023676
Ag 10.807232916688472 10.308209253803913 7.843334047731252
Ag 13.271665511868086 12.625812935049627 14.261309064884063
Ag 15.478331051068608 15.831103127510556 14.608625378828355
Ag 10.602795600587145 12.813762609441678 10.339280397308345
Ag 14.783333114048075 14.17282073278696 12.544000224830114
Ag 9.993881610082594 8.166276942740051 9.723701107560537
Ag 14.649885816275889 8.059400562651055 13.02739394807143
Ag 13.333716234566904 12.179756985658988 11.296752719080672
Ag 9.761794792487521 15.308573369351517 9.551422307915704
Ag 12.709696179170553 8.29457717831709 8.821518769208977
Ag 10.812425543360774 16.826678204543004 11.716137515983883
Ag 9.508805210246889 12.88047599695897 7.87986860432678
Ag 12.088406966817745 7.725484997099434 11.62635296048473
Ag 9.16522894973968 14.435387872437808 12.190557879544071
Ag 8.76600404343116 10.570832670192852 14.586194977331866
Ag 9.730340270295583 9.367108316318111 12.313703592865792
Ag 16.057439085732415 13.135912491299647 14.787823162606959
Ag 8.731263970518832 10.723845267535989 9.690441868112245
Ag 11.589827938350812 10.282151802838623 10.459207094890843
Ag 12.633694819868795 9.985909782672062 13.229615092897191
Ag 7.689811074291667 13.386745204951245 9.97698794761063
Ag 10.716348748585718 12.078351959460191 13.043818545693451
Ag 14.301388284301696 9.6041567938755 10.76313294732158
Ag 11.363953173582656 11.049504459140762 15.492901773068542
Ag 15.285325675090549 11.066608858751058 13.022256337883306
Ag 12.016669801724525 14.447135613636242 12.105546352696795
Ag 13.382916615591705 16.632069607154875 12.97521378285699
