13
Energy = -23.12256216 eV
Ag 11.863785449337243 9.624869331372702 11.027175297635868
Ag 11.945744058030396 10.424533916960959 8.425814453717958
Ag 11.77230540056516 7.572530405619532 9.16220011408323
Ag 10.521702017852723 11.97823271040193 10.37616621113684
Ag 10.282812303862704 7.3887958979333535 11.558018663310996
Ag 9.529451908750756 10.110292421030378 12.317805050956053
Ag 9.095828671740197 6.7845306431332375 9.118040730829826
Ag 7.713767701307578 8.388390496066476 11.026912647753571
Ag 7.789311768940856 11.149558338534668 10.350722639158121
Ag 10.068875913445186 8.689363822580246 7.243348095982299
Ag 8.552471961717027 13.567753628783755 9.287373643148952
Ag 9.322072653562914 11.33840291798026 7.87459673226826
Ag 7.653257196675175 9.123059110836289 8.404608728922804
