50
Energy = -159.17429172 eV
Al 14.798176277652804 9.966611256093607 15.951770555856255
Al 15.488235513641126 8.240815823118366 14.0408975597304
Al 12.370650782636936 9.558699410549739 17.049791753732862
Al 13.58517401241146 11.94704829084663 17.789898588346567
Al 12.748000390417484 8.540569974221476 14.30141451421861
Al 15.002278655241666 12.662832215274321 15.443726882936097
Al 14.607705701754565 8.955899428832657 11.508300410135966
Al 12.197532409974155 7.6866673678082 11.29141058641398
Al 12.542160915447253 11.259483103747986 14.833026256829081
Al 14.44910926630376 15.246193300852644 14.388488851656911
Al 9.680680317753135 10.994651063445044 13.050153569052044
Al 15.807925698438913 10.553353121040837 6.583289145545998
Al 10.898285268593146 11.920378431006354 16.91576461049255
Al 14.861225362931922 10.799628307298175 13.400850305547326
Al 10.393323849836346 9.397568537567102 15.30215258965169
Al 14.90594944286627 11.738152783453529 10.89529414569425
Al 12.627359437081926 13.896332177594454 15.930687071878628
Al 15.892796661878 13.249811308102492 12.995924269345435
Al 16.300618797928635 12.28418115023735 8.507858526398651
Al 16.710814316167824 13.93705340555144 10.537840588795511
Al 8.891208782906903 15.742722548892216 13.331633542794188
Al 8.589695099581794 11.392705525287004 15.515163475112818
Al 10.248277827339527 8.336971363199211 12.85860247817551
Al 13.951681711636608 6.447676596279392 12.90010155243184
Al 11.724898788583348 15.265625439390615 13.610452918924652
Al 10.700581920506849 17.77249885004782 13.505304612169983
Al 6.833874933718878 10.919167313523277 13.45957476414599
Al 10.30200693476777 16.37602544154502 11.17628757236204
Al 13.13466563836232 13.033248856458554 12.866765813074668
Al 14.737375657142973 15.344183303695257 11.659255774622583
Al 7.991557258034712 9.309783638156159 11.670777336999025
Al 12.295243146017237 10.370052761967754 12.201487169401087
Al 10.39771240936239 13.169269199649293 14.552270791774214
Al 12.479664763487772 16.539277105410584 9.00729701109948
Al 12.203404342335071 14.604077937297994 10.76080944017907
Al 10.238534125205035 13.35065641966015 11.895066242122152
Al 7.778878679784311 13.393158203728882 13.350495053167782
Al 12.810511324885026 17.164535884635466 11.871555151236628
Al 15.320546371880196 9.743123516886163 9.044336019787954
Al 14.303801446326428 14.081141872859266 9.251656014198872
Al 7.92084620223633 11.946915493378219 11.046981819094615
Al 12.272458553449978 12.057796184958205 10.1322213361437
Al 8.057947589445327 14.707781955420884 10.706778046153644
Al 10.16241340742245 10.189577674814197 10.345841254924155
Al 12.634581959969266 9.400615186295038 9.318838999212247
Al 9.965416727400514 15.411898497540742 8.767626057557916
Al 9.693161491987842 12.770073880932175 9.218064765154313
Al 13.660291361763571 11.673014867937322 7.708979076958215
Al 11.96583792571986 13.80346720344213 7.971063058354688
Al 11.028075108772397 11.010181389059658 7.7393266393969995
