50
Energy = -159.55148574 eV
Al 15.873985434836039 11.865131554733027 13.438390220784243
Al 14.697933705530891 11.905579370860186 15.9355473579336
Al 13.137554683154175 11.809285441228694 13.633479923822847
Al 12.976362809271349 13.834764540194218 11.803330173508542
Al 14.193286087427532 16.30296768236688 12.670008987203744
Al 14.393730499214243 14.134450674574323 14.38782438313368
Al 15.713761512213672 14.153065673369928 11.96128795373248
Al 14.045915960112652 15.638787403413358 10.007182989098471
Al 10.497737917781093 13.97017105445629 10.679741500172984
Al 9.053833456152406 14.812531759299311 8.422374634437503
Al 11.685376867520027 15.466681588434737 8.611421088732563
Al 9.150257473432129 16.42696652420263 10.635756602275675
Al 11.662024767805262 16.28334997807874 11.616531020865388
Al 12.114464835423696 15.750326181743251 14.36496681904594
Al 10.990285176351726 13.358169922318478 13.545496796181974
Al 9.434135598008147 15.668570718221135 13.231073406472154
Al 7.85607067482165 14.16613876189867 11.493064185029583
Al 9.970626542336795 14.712733345820531 15.761158306603
Al 9.794230082195233 12.004561062938787 16.164762914578333
Al 12.370828254092414 10.563668273511132 16.23531605437079
Al 12.34738256295963 13.320560262437299 16.044925287889395
Al 8.0220518536859 10.535552087715654 14.323974709091821
Al 8.28036807610717 13.220633644665172 14.06614744529544
Al 6.751924135848763 11.726376820362985 12.056245500972297
Al 9.40070186249776 11.880057716017994 11.924282564280796
Al 13.122442452428762 9.637243493041655 12.011992534179708
Al 11.87567847150482 11.550147081823928 10.459679808790598
Al 14.488374079726992 9.23529828082261 9.574064065572923
Al 11.990910352938627 8.515421758822432 9.52095773527876
Al 7.940721862455446 9.855319512233725 10.51432611733412
Al 10.049774401014329 10.19620805496738 8.723484162399448
Al 15.940450852228969 13.72735307742856 9.252881743333008
Al 12.60899250269556 10.742259212416753 7.890335924197241
Al 14.569418060407665 11.715119083395523 10.804189505956359
Al 10.80676440840984 12.769524555765157 8.000878233532754
Al 13.316958087766563 13.243483366312033 8.823075351922496
Al 9.469692916857117 7.565932809148767 10.039048237989997
Al 9.467030319398914 8.172616883537366 13.638116850979646
Al 11.5763648001242 7.2038708918564005 12.028256948345042
Al 8.38276933744614 12.346347111783277 9.3889775421738
Al 15.865680102557238 9.474233323192356 11.905220356684548
Al 17.10816654265242 9.92502188210382 9.368892238517784
Al 15.268143130189353 11.437197787070515 8.042745750958918
Al 17.23487895544588 12.016093344729212 11.139253492019678
Al 10.787230710651567 10.704103053371979 13.936261964842142
Al 9.909091204372608 9.27028581281661 16.17293264251725
Al 10.460457195661833 9.583142653159534 11.501622227746203
Al 12.175085208916679 8.328591647062323 14.569142336624157
Al 14.223363661817125 7.358623287045909 12.914466260153942
Al 14.617279579284816 9.586029941760339 14.435457116702176
