50
Energy = -160.03881538 eV
Al 11.217594683926908 6.5075312518991995 10.550539330072965
Al 8.787095084994286 7.7684534912526235 9.98714775755962
Al 13.413429929231475 7.904386632121983 9.536691210587545
Al 13.124903204771607 10.365345047887182 8.467018987439973
Al 8.410261420774068 9.654498678877609 8.082940072170754
Al 10.939637738351143 6.9835970414912705 13.327154226734987
Al 8.504279068682067 8.2589776919129 12.626980303063469
Al 10.198395930785447 13.716493370277679 6.954996366168648
Al 11.061245367188432 11.526509344460301 10.055748276776113
Al 12.678555723660404 12.870757485734519 7.8340165598316185
Al 10.629722404699356 14.387111653924595 9.57297984777103
Al 17.023842328152988 13.786039466137241 12.565676402038008
Al 13.363566983382205 7.348661654525985 12.161312767164045
Al 8.65711468373255 10.400571868684889 10.749263360394128
Al 15.385311987983101 9.001157541064016 12.647740222417093
Al 15.486564601106014 9.575048428060178 9.801139310805777
Al 12.566798027552613 9.28325644720683 13.809194642291951
Al 10.932904746728635 9.082792643976596 11.561855367198207
Al 7.9800326258282315 10.974386867962611 13.312389332874572
Al 13.31770274158634 10.219419066310968 11.342695701641041
Al 10.997873150402418 8.830370937104716 8.792784351888228
Al 14.746192552567448 10.661893747790348 14.759468240378713
Al 11.961581046142312 10.850980289853151 15.86326372876791
Al 15.324435956215119 11.95060228611504 8.500670113737048
Al 9.210614870905454 11.562255835617904 15.70471258817668
Al 9.970863840858755 9.149545526965367 14.745967718187632
Al 10.910924145603817 12.668130766028773 17.689084417525756
Al 13.402951554303291 12.730205606537915 10.483659654297142
Al 13.124221815182667 12.23352703437724 13.39080004798343
Al 13.481045988327462 13.036962645140708 16.460208577870226
Al 8.67281470650424 12.353133547407797 8.727839534856235
Al 10.617192674854056 11.357005890543954 13.11514982952137
Al 15.353012505151034 13.327399065346286 14.560614604644302
Al 11.133389013679901 13.283793312810618 14.982460783945346
Al 15.557201400336709 11.641993454407626 11.947651106760526
Al 10.706914121625504 11.033533433825024 7.328739848282668
Al 11.391327396176136 13.804981704364883 12.206154895073567
Al 8.616042127860146 13.688693490381931 13.823947699486652
Al 9.003727102115052 14.340664330511599 16.420726647913238
Al 15.815924315322585 14.026339940522108 10.238014311112854
Al 8.78769556093427 13.018490775198734 11.287399562040232
Al 14.305882161072432 14.585946884542148 12.355397696049607
Al 11.583704175780518 15.20204975013698 16.868064445180465
Al 13.079022451073689 15.100517036150324 14.598302665931914
Al 12.219174533800677 15.544381697612877 7.500321943069346
Al 9.467288545272762 15.653232831276286 11.749710219229282
Al 10.357648763751476 15.790457095413776 14.356725870303984
Al 14.778003450863032 14.604301377907413 7.817934730108467
Al 12.122874879797617 16.414691446946108 12.321246118820701
Al 13.172738613975191 15.490165288966336 10.00674070742894
