22
Energy = -65.5725713 eV
Al 14.769454057151204 12.556186740142183 13.433023340554644
Al 12.40880001451298 9.995453138687026 9.178050640359672
Al 6.78882220353109 7.698205859084913 12.159749654828389
Al 9.96657942844252 8.596417459306211 9.34200479421906
Al 10.46902373736226 10.370821089779584 13.540230781852394
Al 10.259469957181357 10.899900402652644 7.797393922760294
Al 15.59188232758328 12.277102945380145 11.048790705339416
Al 11.950419567807316 8.513117243459702 11.397102826107641
Al 11.434757534167215 12.733615871011976 9.527018920961682
Al 14.052848786956499 12.171643098403647 9.044686582284186
Al 12.544042890231571 11.8572627393037 7.035990947405926
Al 8.435131263826372 12.01918409795807 12.289234812410728
Al 10.7947486417718 13.086704572609 12.181956585348345
Al 10.41105982355654 10.689952874829379 10.92336099949252
Al 13.256723769000066 13.63084006282038 11.34989726283641
Al 12.401511222821826 11.984743557338035 14.103381131386834
Al 7.611095209589976 9.791952217436728 13.486001782530805
Al 7.871545214023953 9.754730164839868 7.984941658756912
Al 7.6362076942092605 9.83624456542746 10.665559141706817
Al 9.442511286861553 8.275891969750202 12.069479815574724
Al 8.627731775718429 12.132027064144511 9.568299430899529
Al 13.089057717046956 10.941426388988509 11.687268385736633
