22
Energy = -66.23306669 eV
Al 10.747264253438495 7.215568973537235 8.06167172117303
Al 11.166073878078945 10.18151437125805 12.181545342893337
Al 13.258715055498532 11.840610662796925 12.602704980654751
Al 9.101115294645634 8.82678228049999 11.494559879748618
Al 12.441210222334915 11.656018343811459 9.97478063417754
Al 10.380606609899278 13.009385085344597 9.089924370994511
Al 8.716338028936525 11.516455377080883 10.658255601255318
Al 9.811506942633386 9.358925869155408 6.530692142436361
Al 6.822541464108859 10.040480896810944 12.14485147772911
Al 12.792001293721045 9.039256029976903 8.434831822947189
Al 6.986360235533716 9.584028990594081 6.629005995494355
Al 9.228976091030617 6.325311911301219 10.24263332549873
Al 11.44000404422606 7.853922184100804 10.75755564935947
Al 8.38496941527302 8.333933559084517 8.678347494691252
Al 8.622799700958144 11.25626793756882 7.990574032644238
Al 6.648206049281148 10.126867378046839 9.420351021215422
Al 13.485490128340388 9.488571710669008 11.053844614862573
Al 11.520069861205783 11.376217570090978 7.335654496513856
Al 8.967195465202806 11.20765653105814 13.320717051149384
Al 10.470386162544473 9.954387358756287 9.391558298798719
Al 10.7808025677679 12.919379542467551 11.803842168423925
Al 6.9091299455420705 7.570220146190725 10.883860587539678
