22
Energy = -65.78525552 eV
Al 6.712659929633238 12.115565591470201 10.827917966158289
Al 8.547329207091003 13.26556163349588 12.890700904094428
Al 8.857243536326232 13.818844672896653 10.205687560015463
Al 7.338894867144042 10.538182513801662 13.09488712227021
Al 7.441613757286053 9.403517244568954 10.456441084078486
Al 8.289252124129112 11.291755672899626 8.756714436646893
Al 9.24721379487447 11.287617460146619 11.323840785916476
Al 11.116270352180347 12.958645375606794 12.013715149700786
Al 9.245969393830515 8.73726412155433 12.31511331496544
Al 10.766218346592119 12.308561981913792 9.085912478863039
Al 9.89416597207458 11.150516922697502 14.042964279170173
Al 9.941173420047368 9.876465858272594 7.13264088757086
Al 11.629372135810135 10.001123596023591 12.339835943210392
Al 10.550673713477796 9.69449745334299 9.850201863492774
Al 9.018795858155098 7.682493520149547 9.04085794711013
Al 12.915293140907302 11.503263057893848 10.512420105977135
Al 12.427153402810214 10.53686716171997 7.930440519098692
Al 11.040456598957181 7.169151654931043 11.012628096071326
Al 11.520119643926844 7.8562845499926235 8.255789718544408
Al 13.116000840668024 8.722335426701123 10.461836752530093
Al 14.849474929018717 10.376822090047103 9.193977124689894
Al 14.138402104722392 8.284687975962727 7.842652288082159
