22
Energy = -65.78853678 eV
Al 12.547685761551827 8.727822152310122 10.55387027973686
Al 10.548657788662375 10.37354851595995 11.287710294031925
Al 15.348701501959315 12.421446045509692 10.95202622074212
Al 12.467242939710435 9.79206811514751 13.241201610777647
Al 14.841983399978007 9.781979953556387 11.921539379903118
Al 10.266626175559852 7.74045448779398 11.886034991422614
Al 13.927768430649785 12.39465492391845 13.410787614590303
Al 9.704344751818828 9.699890791309599 13.766111019484093
Al 8.101085423166385 9.411978896955068 11.349631230563212
Al 8.652872978408942 11.863597237974549 12.681591248143402
Al 8.832812154011453 11.158347408448686 9.361971443034456
Al 8.11304106838686 13.478790537034586 10.643484315442475
Al 9.896270476015141 8.559690067036055 9.271102634840897
Al 6.389968129223653 11.442199665795854 10.861664005410491
Al 10.761760984967419 12.913702936948585 10.186882082996373
Al 11.58869825127185 10.750615620588725 8.752772816593456
Al 12.848478332182173 11.449897769956435 11.116156377619065
Al 14.330716984684182 10.313767363472175 9.125330610664887
Al 11.221874189042094 12.280312908515999 13.162869883550444
Al 13.329591094935058 13.081259400240683 9.052992929487708
Al 9.977240956440264 14.632786767318983 12.21443216367132
Al 12.732795201640908 14.161405434208103 11.630053873027327
