8
Energy = -14.05378591 eV
Ag 7.66797211706383 9.748279942336612 9.757244963750441
Ag 9.853709817775089 11.391471671816968 8.954307544822395
Ag 8.633969455124738 9.569924546772485 7.219567391920132
Ag 9.261192603152256 11.1330942739471 11.59723029475882
Ag 11.261889022218222 9.499817751548875 10.559430361655046
Ag 9.569990105734595 7.7226027460161175 9.085963821399814
Ag 11.437903668812872 9.385501895551117 7.848684902342298
Ag 9.023024939400784 8.258958901293239 11.687222448633733
