17
Energy = -33.07584728 eV
Ag 12.917365302099217 8.885281144644432 10.659005537665408
Ag 11.126089442814454 6.939773657401604 11.38315326784775
Ag 12.461220478568611 11.477689380506526 11.490306321300283
Ag 8.802927729634424 7.766429768257577 12.68037561233916
Ag 10.227820998284109 9.77039268957995 11.31834882733599
Ag 11.740240760899145 10.6665355965836 8.868541383496334
Ag 10.292621895707708 12.656491654473392 10.312023212424743
Ag 11.299293549962576 7.8286453138869145 8.709316543340568
Ag 8.773642828214463 7.290917559745604 9.9542238547761
Ag 9.04501288546242 6.9344125305148765 7.267726712635817
Ag 9.752567169005951 9.601330784971186 7.25529914027595
Ag 7.252182916713248 9.35040243211148 11.020040997127987
Ag 8.31784754058271 11.73717935681609 11.985791916473975
Ag 9.919341569147603 12.345569303783623 7.5519348028025535
Ag 7.184403472129841 8.848602768351649 8.255356123033879
Ag 7.988923655552989 11.373612871435594 9.288182581056205
Ag 7.512172340803087 11.093370233573536 6.584509803229808
