27
Energy = -55.70083042 eV
Ag 7.390620300034479 11.15759633660935 13.688088288563307
Ag 6.6022160887227646 8.822640994282974 12.446324721173218
Ag 8.42236730955079 13.463670004449826 14.89529075202223
Ag 8.390169075283843 8.139021952312435 10.382536155960072
Ag 8.51419827164869 13.215323075961868 12.13643622655055
Ag 9.331553025726215 9.253538517673578 12.781147912493854
Ag 10.142634659243154 11.232674465674277 14.517763113262177
Ag 7.696492867602543 10.870739413554944 10.846485840935342
Ag 10.904737410115372 13.715657370210042 13.601505009627886
Ag 12.189246385301951 9.817766461593834 13.17161891310359
Ag 11.226678779888449 8.477356108127331 10.876891922935815
Ag 9.046284205180363 12.86187619793317 9.39498276240804
Ag 9.846163505821332 10.126047963891065 9.053118369234138
Ag 12.546969631330237 9.533822418555179 8.638042164766306
Ag 10.69575912039419 11.453128100909785 11.449565748796848
Ag 11.722699251750035 12.21673932214076 8.861141630743964
Ag 10.964713449829484 14.779664847213121 8.242717610221213
Ag 10.969861895063698 14.285197696919022 10.901738260000986
Ag 12.886914285413742 11.992876675051464 14.750606839228618
Ag 13.953852412430184 9.063007865846167 11.099199718194225
Ag 14.823314903151845 10.942193207824774 12.97202027652012
Ag 13.107646724513256 12.912278736200332 12.068506603587355
Ag 15.296871250808081 9.129008176139834 8.636184537700192
Ag 14.283042590815143 11.518510937926052 9.672894087625208
Ag 13.565498725637866 14.242988503139733 9.602765706067698
Ag 16.538699700063425 10.419599699391476 10.867790107836072
Ag 15.761812094004323 13.178092869793698 11.265654639767197
