12
Energy = -20.70590173 eV
Ag 9.500587638459063 10.127974898119009 11.581156119080195
Ag 11.464199010863428 8.496622688235025 10.264709088667722
Ag 8.992277613869646 7.476243482938509 10.987218586525605
Ag 10.90990078129988 11.087085548442017 9.343532841397936
Ag 6.910408867367855 9.266346028230862 10.699244942431058
Ag 8.108276964781615 11.553912386969582 9.60483757714429
Ag 11.277671992015517 8.929966096368586 7.4990643489574955
Ag 10.091546656026425 6.634132483117429 8.590773765504636
Ag 9.196910148030298 10.719631837791423 7.193644928662861
Ag 7.281609359518615 7.106939155264805 8.855069719203247
Ag 6.7314594788726785 9.696271213204248 7.927541531464104
Ag 8.688780047395511 8.073173908566194 6.61996608745926
