10
Energy = -26.12845223 eV
Al 10.739469978263015 8.155206713911527 8.859401624114366
Al 8.775097215442644 8.054598506499303 10.465586561481894
Al 8.324139082392177 6.476100815325865 8.35546371558667
Al 10.294754461994737 6.959673602618299 6.489987915393604
Al 10.19465993814394 9.61302818781813 6.655416152461915
Al 7.747703599509537 8.19776129310214 6.494345479271837
Al 5.661579234653314 6.725227305350563 7.690969516927586
Al 8.171233714323634 9.777859355958887 8.513593976342976
Al 6.279427938786264 7.981345931044583 9.996995123170196
Al 5.536803162495749 9.380928829322317 7.819646940344229
