10
Energy = -25.12932657 eV
Al 6.526074379808507 7.9879535586300605 9.855527993925355
Al 8.69125761 6.414682162221996 9.85552204743196
Al 10.85644084019149 7.9879535586300605 9.855527993925355
Al 10.029185016303284 10.53289493925139 9.855511480408795
Al 7.353330203696714 10.53289493925139 9.855511480408795
Al 6.526074379808507 9.394561661369938 7.5269872260746435
Al 7.353330203696714 6.849620280748609 7.527003739591201
Al 10.029185016303284 6.849620280748609 7.527003739591201
Al 10.85644084019149 9.394561661369938 7.5269872260746435
Al 8.69125761 10.967833057778002 7.526993172568039
