10
Energy = -26.47928654 eV
Al 10.575241240685463 9.983058506978546 8.232068585402539
Al 10.613512404871349 12.326413756539758 9.635784538516628
Al 10.388358861787541 7.725143512119631 6.982378453051322
Al 9.749063178912268 7.833865434447482 9.807174538979622
Al 10.162557036774132 10.115695945037734 10.92503234974283
Al 8.31455400592978 11.319333623313971 8.97119292933048
Al 7.973316183579551 8.978367862075183 7.963352009996274
Al 7.029427403945147 6.990480222011729 9.789398978146124
Al 8.50449510387375 6.241024903602569 7.874274686565084
Al 7.580544372026972 9.410877325051363 10.727445669644249
