10
Energy = -26.54498788 eV
Al 8.82150451751648 10.419843415338313 6.507897295346477
Al 9.94693072870752 8.19926381868503 6.93882282587427
Al 8.046020997253203 11.810330308310903 8.473777411497629
Al 8.768228618886848 6.212512925414443 8.127703534780464
Al 10.16850301101 10.212900096972186 8.995242761519785
Al 10.675245943775671 7.685119078309178 9.431046856623945
Al 7.932646638225615 8.85462688333137 8.815190564299176
Al 9.528573244520746 8.99566497726299 11.397860543408852
Al 7.933097902078847 10.839675503884536 10.817993905216884
Al 8.287881007656347 6.878695602121935 10.603096911063403
