10
Energy = -26.32734553 eV
Al 9.874330342706555 9.010241122475877 11.435654445335285
Al 10.955563599418577 11.432946361322516 11.971985493545628
Al 9.23754156342144 10.321398260390296 13.783753463146088
Al 10.326942110478926 8.000112090415374 8.957603918044835
Al 11.737325628914158 10.082684087423035 9.865306715977844
Al 11.480053409070724 8.11379699000752 6.633780131416277
Al 8.445162739009792 9.89231836413843 9.434101693765662
Al 8.280400377918799 11.483187644663953 11.62921109515135
Al 9.966732511262867 12.060963618872412 9.514294543070553
Al 10.453935427118113 10.36033916961054 7.532296209866276
