10
Energy = -26.54587852 eV
Al 10.977001330846742 8.194392550774044 10.444568802588547
Al 10.00027754471361 7.490500290368459 8.106358097099365
Al 9.573870449867753 9.549552068579663 12.020731260896298
Al 11.97303628349562 9.400828862116882 8.39677623487454
Al 8.216288744043823 8.087895396544154 9.939958787267853
Al 10.124900716833412 9.82225339884103 6.611399705202063
Al 9.440446314755587 10.283085214380977 9.209814360315939
Al 7.863457121403383 8.74167605607385 7.233177788879952
Al 7.275465372499176 10.268918538902087 11.26098619347765
Al 6.603764375168257 10.209405877046093 8.824737023025676
