10
Energy = -26.69204063 eV
Al 9.506005732245317 8.293250017339687 11.954543638683376
Al 10.738032159488727 10.167065072336554 10.754606029079403
Al 7.9147041086679355 9.595079299932939 10.014640148354296
Al 9.976919676942916 11.212496924454648 6.618068248000229
Al 9.18401561867245 11.539898177533715 9.018161327502453
Al 11.266016876519313 9.643089396154659 8.15360731082959
Al 8.461961040803915 9.210249905033479 7.347420620880485
Al 9.921481909577802 7.775139958182309 9.197477211053023
Al 7.76970527585632 6.999171730093735 10.545258056496955
Al 6.950440246837154 7.253842164549735 8.085500054731773
