30
Energy = -62.03564756 eV
Ag 11.854512913877421 9.220555302973294 6.374901403666153
Ag 9.847632614774628 10.877666311997052 7.354747337826057
Ag 10.360419657357662 13.159331070329005 8.868917033363163
Ag 7.704561767479654 12.481339795217021 8.431520168720217
Ag 9.881289505903819 8.07288688953004 8.009387879482519
Ag 12.529469824636108 11.457906999880274 7.976413516950816
Ag 12.475437171757735 8.820243507962234 9.035950668167748
Ag 8.085817119929528 9.860477817465455 9.247187233377149
Ag 8.265449623860551 14.542590363374112 10.263813020307415
Ag 11.022000151156378 10.877540008391374 10.483941079507066
Ag 12.951625434115725 13.359375139476821 9.992353362611759
Ag 10.667013002067781 13.713947438357277 11.619308228440792
Ag 10.458118206510182 7.939062199173884 10.748264885573475
Ag 8.398989002661294 11.940293634257875 11.099946820504394
Ag 14.152305712918771 10.76508293344446 10.224092775963022
Ag 7.927952875694411 7.236806893270411 9.99664933245122
Ag 8.336481915343835 9.308896034983023 11.970542291653622
Ag 12.74617087459451 9.025516904668914 11.912159469783754
Ag 8.434250791552408 13.818225874195603 13.19478315763913
Ag 12.763194380370535 11.948935161745302 12.51961633442262
Ag 15.25135231570112 12.976825504172275 11.545752182725188
Ag 13.139826894720999 14.71403102251099 12.582114730454217
Ag 14.995738852564948 10.458415077133466 13.12607644611823
Ag 10.443604415372842 8.368200133023725 13.504198634918113
Ag 10.126587863278374 11.275138433250058 13.311502023393468
Ag 10.82382060237373 14.729678985401709 14.203087532175736
Ag 14.789443213049893 13.144460456809444 14.267013708393332
Ag 12.42872378787768 9.90212987524347 14.55489755246727
Ag 12.159458099516806 12.558928710400336 15.227390859584457
Ag 14.52431854677664 10.991291279047559 15.90899936040378
