51
Energy = -110.37047330 eV
Ag 16.65463625706831 11.89839217365697 9.864106933835659
Ag 15.381211393367902 14.180154391968367 10.773734985285397
Ag 12.989555799699326 15.41872387750233 10.139471125117383
Ag 13.53205740111475 12.186989206207553 9.719486453655028
Ag 10.892460620556253 16.68850757552241 8.88918480501885
Ag 11.382914606262585 13.881275491920256 8.421326620078942
Ag 17.02559135694094 15.870074258133148 12.32137861387312
Ag 11.529662608761859 11.101900013669534 8.000706954659467
Ag 17.782380908834554 13.11994374823385 12.122011557782994
Ag 15.011598611841018 9.71463744979739 10.19715249587367
Ag 18.104759206757837 14.410312943788988 14.610535097640962
Ag 12.247079372777186 9.51570763183505 10.178887093820181
Ag 13.921596941962285 7.138383617879328 10.267140190739712
Ag 9.055469268997825 15.167585793502106 7.502511342868642
Ag 14.07255820108414 16.220382558375757 12.630646566841156
Ag 17.35683363274648 10.320966379890727 12.169567458833018
Ag 14.865006132637482 11.612968755488536 12.244011924842326
Ag 16.049423511549307 7.876829876650223 12.016217384412554
Ag 12.841768146920545 13.628566268543107 12.253785453076743
Ag 9.310490152432262 12.492324239514613 6.937131679725704
Ag 10.313993451403245 14.884620674752385 10.932926921317007
Ag 15.45072284374677 13.96826651516382 13.633961288382537
Ag 10.732822257200258 11.991253733930922 10.56843015273023
Ag 15.96551570909947 16.357272915461806 14.917630862046904
Ag 17.025106279586932 11.805036655772767 14.63997221203501
Ag 8.344446167679454 13.334556706685767 9.426277060200293
Ag 15.455929200222087 9.580402669661506 14.240994006996218
Ag 8.831522243484248 10.560488123449193 8.920384371215158
Ag 11.316784200592362 7.103376445527209 11.328966305427445
Ag 15.952215831901592 13.819864395950628 16.38993526760597
Ag 10.243284814554196 13.00189056432986 13.14185393353072
Ag 13.459621860624448 12.348761593771355 14.790937446921719
Ag 13.39807245239901 15.230162842073966 15.233555009163108
Ag 11.313046157486411 15.743822045752859 13.505522943849517
Ag 8.869675693718209 16.733698008518953 12.412435170068488
Ag 12.094111906151324 10.874109607028355 12.754043043320904
Ag 14.959354017560871 11.086493664261926 16.689758514343932
Ag 7.755564600117997 14.225228053994657 11.996273653978864
Ag 13.404818516648618 8.39314494163752 12.702169470224089
Ag 7.899864767167679 11.46857532991005 11.479375079655988
Ag 9.62201736523803 9.305755839597543 11.25827206050323
Ag 12.85600920630469 9.574840272294146 15.235342151295749
Ag 10.72195059457617 8.540697986141646 13.717250360701842
Ag 11.018682571648378 13.698346758779902 15.812339733688917
Ag 13.425942265160616 13.602153603626757 17.47248347717421
Ag 8.800941919161579 14.941907921719462 14.606252214904794
Ag 10.141238981889758 10.976592771169676 15.106795798013547
Ag 6.076577518474296 14.572227354460505 14.147779309375164
Ag 7.7300765274107395 12.337984855342798 14.227989262219923
Ag 8.131846230575102 9.64088082831871 13.60622481654826
Ag 11.961149810879434 11.353537997757284 17.1430112511302
