9
Energy = -15.51564302 eV
Ag 10.039774095227292 8.131142341397295 5.896063649937331
Ag 7.804069026127556 9.280652574705258 6.9828120563342235
Ag 6.758867927068442 8.429387585703672 9.390436279664186
Ag 9.196056804866261 7.162117309714075 8.385336753083106
Ag 7.945307434994533 6.355912063387342 10.750845410873788
Ag 10.40979979469543 9.62745360439667 8.223024319827804
Ag 9.365020344989068 8.743840766798412 10.628506765407451
Ag 7.978937389677101 10.892868799156632 9.214571251561186
Ag 10.422433941263694 11.2968917136499 10.448670272220172
