14
Energy = -15.07414294 eV
Ca 10.927880032779573 14.90327415998689 16.33919660752788
Ca 14.3655748691598 15.202145095108248 14.896304439545728
Ca 13.403825911557524 12.046246916219703 16.675520476293517
Ca 11.415105449068225 16.40827004594051 12.788311360136616
Ca 14.603970927526024 14.856825797659013 11.195944210260684
Ca 15.638656291838814 11.87824114978021 13.390044058668051
Ca 14.784704492483824 12.468009711055464 8.344765136243392
Ca 13.448451564229272 10.282929731060358 10.918221365235969
Ca 12.12415587523353 12.780953903787761 13.348081455115233
Ca 9.775301277665884 11.389501763049305 15.644495690784176
Ca 11.498198496485484 13.686937524977827 9.725375913598054
Ca 12.526688431399766 9.325721526193218 14.297883965826218
Ca 11.237315642204841 10.39690958217484 8.033071425894533
Ca 9.850925819684061 10.65635737362356 11.57225856151894
