12
Energy = -11.60592656 eV
Ca 9.493036990607362 10.692168035849836 12.617971455715084
Ca 12.154371950289029 9.747475298795505 10.37698386719404
Ca 8.825096695630005 10.759883000665601 8.901370236652127
Ca 13.368121227727618 11.821893904309443 7.807503331214287
Ca 14.146324195462286 13.105106910842569 11.269744852917363
Ca 11.488777473266667 14.05273998194933 13.51452516043927
Ca 10.261971152980362 11.97945474048127 16.079238649877915
Ca 14.821947299422582 13.040725019369239 14.98424937058875
Ca 10.778833413842394 13.46430655434938 10.026565875593667
Ca 7.882796781863189 13.81323542532684 12.431741692626016
Ca 15.758740069962792 9.985343035598685 11.464330743316472
Ca 12.860344819324348 10.339869612524357 13.865224196229217
