15
Energy = -16.51949942 eV
Ca 11.832375076744533 9.735507607561777 11.993324256754464
Ca 13.905601051049162 13.81615367182352 7.708931686703009
Ca 8.890742366459795 11.755042607590868 11.107487060217872
Ca 12.407058111939653 9.775154770598034 15.77697525321585
Ca 15.939334608904938 14.320366622425622 10.865183192685043
Ca 13.187778435279068 16.779204673701926 10.096232067716247
Ca 13.463364941971713 13.222703410253317 16.880022650270142
Ca 9.878033526651583 11.868879353775046 17.52795209039878
Ca 8.873553578257953 9.793577884547355 14.415663318357876
Ca 11.388106756548982 10.802094973158992 8.381353987624582
Ca 14.660653979706556 11.847241008376283 13.546339716155426
Ca 11.008083096210028 12.787112971820592 14.156200193205727
Ca 14.882931256972052 10.78839241379571 9.85505515083697
Ca 12.413096916894013 13.272878710708072 10.901691476922748
Ca 13.767075318046388 15.478800934725902 13.693732460822492
