10
Energy = -9.86365869 eV
Ca 9.98896361578996 15.289636509340497 10.41856923565396
Ca 9.520828687200844 13.61661673293198 13.820178547039232
Ca 14.944132086269363 11.74495941908485 9.525840034156245
Ca 12.215552181020735 12.669680582973438 11.65646756326815
Ca 14.316237522072996 9.939003284579135 12.81516985747302
Ca 11.847140450555333 9.39956163342465 10.020843317323752
Ca 8.850013943508365 11.62594715269054 10.628630439202402
Ca 10.586756587999254 9.955709737782438 13.519098486348291
Ca 11.533520349509626 12.66241715573464 8.125284577703065
Ca 12.915525031951852 12.565011952784614 15.195936392016245
