17
Energy = -19.67223129 eV
Ca 13.423035559352725 10.116756743611228 8.39716977098401
Ca 10.716380946560246 9.676634596170592 11.052228528726534
Ca 11.190751144015353 13.06199259690399 9.343814571183616
Ca 15.006600404150154 13.634186627005505 8.840482308556478
Ca 14.21432020491798 8.164012818373262 11.652335452868556
Ca 16.64545074622811 13.922005709962889 12.359981650135682
Ca 7.842171597772908 12.17599069372711 10.913361251439717
Ca 13.848186171102563 11.734471804360238 11.630309247346922
Ca 12.386061334521361 9.972400160850937 14.539803125456007
Ca 10.701122882809553 12.905402338788623 13.048004444567308
Ca 8.558781649428887 10.25897255754921 14.19459960487799
Ca 9.299416349953935 15.748734898158126 11.437534765015917
Ca 16.16550355723761 10.503844471923927 14.104101020025361
Ca 13.171769238658714 15.399735368612236 11.77647159218341
Ca 10.525431371998511 12.625554579136246 16.626641739392632
Ca 13.913825791143273 13.487029391822393 15.00245169606053
Ca 11.08109761525795 16.032072286595707 14.887898336346918
