11
Energy = -10.75689938 eV
Ca 12.836641565889256 13.447909059895142 14.372723609762616
Ca 10.458059955858769 10.595239107594395 14.8456680649813
Ca 8.990829902573632 13.536198241492043 13.258229164922202
Ca 13.92061730747908 9.933209320102284 13.665734002875006
Ca 15.04855714994559 12.3935895878586 11.207491869782723
Ca 11.547287500655129 11.76588428925087 11.495427110001442
Ca 8.970797361616663 13.13158347594285 9.401441179661486
Ca 8.570363417260896 10.02560887567138 11.533602351337608
Ca 12.66176959390678 12.441618429546391 8.150553466740757
Ca 13.205405719220089 9.159120841690871 9.955231734497001
Ca 10.0538269850913 9.931699512535337 8.102174809740282
