18
Energy = -21.38948897 eV
Ca 13.194163050183267 13.086852094131673 15.328461680863747
Ca 14.932776200347467 13.995517415568957 11.944669626138683
Ca 13.405281776976349 10.61984503631269 12.43982102047321
Ca 13.590817614953114 9.32075753576688 15.845554334228273
Ca 9.546078501977794 14.339466483525735 15.170832828925871
Ca 13.123132770263636 12.189302709861982 8.985268374863452
Ca 10.29196375678115 10.687948131456249 14.506809937136046
Ca 7.731847091079378 12.537516412447781 12.233522341673833
Ca 15.493848287634016 7.800645160120521 12.813632759836873
Ca 16.446309100069495 11.317206785851127 14.248373229861178
Ca 10.247565391457606 10.120318338054576 10.508109635813092
Ca 9.039334460896585 16.14040679499583 11.70645948850544
Ca 13.521718182646305 8.429209380473708 9.522283665434179
Ca 12.415904911410081 16.42939178682435 13.599782273080953
Ca 11.219823458388149 13.384113695061481 12.072889929034403
Ca 9.473675152381531 13.44413349891602 8.86974339932172
Ca 16.404528616056226 10.780419268226735 10.442990554688388
Ca 12.371482624165484 15.881119841541468 9.732911479174188
