14
Energy = -15.1435964 eV
Ca 8.205752142675953 15.80735095891079 13.118161655729214
Ca 11.603635354036774 11.904887201197774 9.17866501226137
Ca 9.569480874419968 12.803125740167058 14.901569145505563
Ca 14.22592402417116 9.302381141819634 10.170311415199732
Ca 11.470242312369548 14.400761681182706 12.147576110319362
Ca 8.470998368920569 12.392495659338719 11.31839302950892
Ca 14.58237308686803 12.729359937501888 11.527893301201551
Ca 15.077009679800696 9.84313290636611 13.803386412191953
Ca 17.040607336981655 13.024864096695955 14.285831378227856
Ca 17.663580955220024 10.729588611504033 11.23658132669823
Ca 11.593172890364206 10.619210770886717 12.586850969402464
Ca 14.680976184945415 15.967491274122935 13.659943826018297
Ca 11.29456323628498 16.114157434694338 15.429076198954673
Ca 13.33062669896553 12.913731400042826 15.120442392075551
