11
Energy = -10.59835994 eV
Ca 17.10284516577379 14.632450255145956 14.339450460418103
Ca 16.065755423858455 12.486244552555553 11.51883186347077
Ca 13.851535473112282 15.314874722663875 12.639317179045506
Ca 14.221493991707701 12.103414080636307 14.753438739361458
Ca 13.513300375291893 9.857144341484018 11.78578422725425
Ca 12.787017492195249 12.935742075552659 9.732410875567938
Ca 10.757387739939514 9.617995721854966 14.285121511682474
Ca 10.097433619863743 10.44698771064491 10.560881387192728
Ca 11.245471943011086 12.891688600454001 13.028986265201489
Ca 9.187270286984296 14.10268382241335 10.339501361733557
Ca 7.739602344088744 11.782261282054137 13.00617467084989
