10
Energy = -9.56957514 eV
Ca 7.26637105821359 11.398622333322255 8.275217359497166
Ca 5.534125883345676 8.008380658941396 8.919882019026705
Ca 6.159183501987259 9.242232395839261 5.5317225736314555
Ca 8.04234204726292 6.274283010965628 6.5527718550460365
Ca 10.73779519267807 10.727934387127332 9.297006660724385
Ca 7.738431065881062 9.556517984753087 11.425647690308015
Ca 8.287207651335926 5.93322330381238 10.208106784663668
Ca 9.774403311905324 9.663183100059193 5.909380961800039
Ca 11.286209434953031 7.104733942641422 8.078787555722176
Ca 11.007611206294474 7.924569236395505 11.635156185722767
