13
Energy = -13.81049562 eV
Ca 15.443141227240819 12.723149060340553 10.971100066284535
Ca 14.098244776357108 8.985167490221738 11.34283706657352
Ca 14.143156920480834 11.316395360526986 14.3892309228994
Ca 13.105296330424174 11.14312537595861 8.135943376797814
Ca 13.040159912782462 14.642674397341757 13.420025878898374
Ca 12.294793620972277 14.70438676251235 9.6488390493271
Ca 12.102876848322165 11.775660790938236 11.431693425602111
Ca 11.101807927771969 12.74372272428533 16.009846055592686
Ca 10.515760992095213 8.864933237184081 9.989779107250891
Ca 9.432700422703887 12.21311285369137 9.05100804018897
Ca 10.64713630804066 9.772885511959775 13.770370178825745
Ca 9.438713652270229 13.429201124540674 12.732983184838641
Ca 7.569972411390579 10.354694452546731 11.722941347553071
