11
Energy = -11.2479309 eV
Ca 13.770564547088854 8.937058719577632 10.314970397591583
Ca 12.303759783998313 8.816541496152054 13.984996956171514
Ca 12.253037687108954 11.802126782953376 11.924785828462335
Ca 15.118484452038244 12.39908611514316 9.686926793291212
Ca 9.976254223650066 9.177660268336185 10.940124004607565
Ca 11.741879108754691 11.402880839006862 8.32910772149853
Ca 12.795265612181332 12.208976491826398 15.538503334780586
Ca 9.422095715455947 11.214343269534309 14.161298842560695
Ca 12.219097658834041 14.792075756379385 9.870983026908304
Ca 10.761074010808139 14.674453844146912 13.544631752544797
Ca 9.01774388774644 12.799761931824715 10.669048309336898
