16
Energy = -18.09744184 eV
Ca 14.806048767975156 15.999041607791263 10.404970538704042
Ca 14.674091782372965 14.21458283637021 13.760154913055539
Ca 11.65739790582946 14.932498955832163 16.081380107787577
Ca 11.437966486298139 15.574288714131601 12.387972434618336
Ca 16.813808489401076 12.789805049736467 10.940294561576875
Ca 15.179586296710244 13.387834082575605 7.588236272488446
Ca 13.20402024887425 12.74066251780458 10.600280615715862
Ca 8.442404931239452 13.855482718983144 14.266703609141695
Ca 15.016157266449595 9.903078035472822 9.236875419350216
Ca 11.51745990193214 12.093788162690439 13.692711814687108
Ca 9.374817173228248 12.59979785024225 10.7966816770789
Ca 14.748709418082143 10.36245901247731 13.011457955566616
Ca 8.503839875524529 10.05380613172835 13.466575392325176
Ca 10.00342431074649 11.461235256600212 16.81142530992966
Ca 11.72160479535273 8.607708743612394 14.81546576764108
Ca 11.535005788694676 9.371904878719901 11.116880274474985
