17
Energy = -18.8167844 eV
Ca 19.72344103890313 10.208625473838088 10.203868943868018
Ca 15.929216074908553 9.627972548179516 9.595650792570275
Ca 17.19236926767326 12.862171757235892 10.540629064722763
Ca 17.535815303974708 9.825725472066276 13.086450542788953
Ca 15.070776853799371 11.695956526582503 16.23355651214624
Ca 15.525024808808135 15.554781389645074 16.216821814158887
Ca 12.26145714374262 14.250763968013295 17.442034034526582
Ca 13.116207962155867 13.868805353394308 13.965234684508825
Ca 17.444523056180586 13.372040193895936 13.997414929409974
Ca 15.296230898815207 15.884036974549122 12.144341560565232
Ca 14.143081955112553 10.820036629655576 12.596460987182896
Ca 11.314695808285782 11.170366264132117 15.40469676790442
Ca 12.432607903580884 17.210143864023113 14.833289013233577
Ca 13.600815665284594 13.176383906985338 9.8412866373699
Ca 9.633773383458893 14.562533883958789 14.628686891141944
Ca 10.610504068392137 12.182728686400147 11.776934758233779
Ca 11.392445247179069 15.809501952247757 11.395023528025003
