16
Energy = -17.59504921 eV
Ca 15.83222526300662 15.639730957772626 10.87017926429515
Ca 12.677918163851727 14.81464241429028 8.619917458139616
Ca 16.78838496314668 12.143452274681954 11.635409590780903
Ca 13.325164557212899 13.180876293511984 11.707073219496703
Ca 12.480710825432414 16.718412119585647 12.004611157862968
Ca 14.65778159606419 14.645346629471781 14.591039640236504
Ca 13.730858736155048 9.378203897216054 11.520446370341125
Ca 14.925232465628168 11.000392507867513 14.576830414294244
Ca 10.844751109925337 11.169638293131218 9.71778406316818
Ca 10.771450387886496 14.50256307334914 14.545761724244423
Ca 12.46952782669263 8.271546975688075 15.085957586194416
Ca 12.354261923541607 11.937706614177007 16.858684240596155
Ca 10.06028341875908 8.1614697645291 11.935696801320534
Ca 9.74023451491367 14.378143569597949 11.011455625271154
Ca 11.154315370034398 11.160302877545975 13.47609568282713
Ca 7.821628551858972 11.39394805330909 12.10620063374809
