12
Energy = -12.07041978 eV
Ca 14.953129318363473 16.366273207180576 11.2099078604865
Ca 11.700789334138516 16.802104011990856 12.823028513068353
Ca 13.837217730204301 13.80013582957157 13.852448169873474
Ca 15.763601646840144 12.837653759620256 10.426360676765082
Ca 12.228640862881232 13.829620173274227 10.567866853893912
Ca 9.947551644203706 13.629798015539706 13.789040153202503
Ca 11.848114546923293 10.799306604961304 15.257586246090447
Ca 14.088556382988196 10.34598410858495 12.483307307810051
Ca 8.409742090682125 9.960825515482785 14.414718852021963
Ca 10.38313789019015 10.857983280877738 11.497443155233206
Ca 13.011138109427288 10.441033881093006 8.976594489744631
Ca 11.37418945720876 7.787075228439871 12.973002644055455
