19
Energy = -22.07322912 eV
Ca 13.13763157151394 9.452801314989262 10.101707773319406
Ca 12.784678334405017 12.635184055431946 8.267668013574955
Ca 9.866774628408894 11.394657569135667 10.490805148987533
Ca 9.768297917689859 7.8211192021176 11.277565446715471
Ca 15.736198108786846 12.483475705081991 10.84714602950986
Ca 10.303148684394312 15.035792517799047 9.491158857612854
Ca 12.021903323861158 9.630413736537665 13.536896561917692
Ca 11.197745026773562 12.25318788628812 15.935680279687192
Ca 14.442380296343112 10.29161457251269 16.251766124618637
Ca 16.98760252186093 12.384939983307808 14.397727721819694
Ca 14.60287359976657 13.903032295612917 16.79747344080991
Ca 11.89247311060614 15.824565088123173 15.367110503371654
Ca 15.702547246153072 9.251207000357864 12.886789661233237
Ca 9.138025133110588 14.220569975564157 13.096544957864507
Ca 8.440889067974274 10.429421402326454 13.80455202200877
Ca 11.704566055580091 17.177908053884558 12.04864534830979
Ca 12.520109910868149 13.355111379868701 12.214039375907092
Ca 15.168231327935048 15.547127091783187 13.337362049784574
Ca 14.081808554880517 15.789110089023895 9.599195897393532
