16
Energy = -18.13402608 eV
Ca 16.735479932251526 16.477398363282898 13.66476303215219
Ca 13.125594362303532 16.69081939679084 12.27708250666899
Ca 10.144168582713007 15.934106215353395 14.514197760414755
Ca 15.241944605853782 13.469377942874653 12.164426182728848
Ca 13.799679219035392 14.78855004299495 15.433030392472295
Ca 9.75822344736529 15.423607558931193 10.752265478123288
Ca 18.889985792643277 13.712813583443879 11.979568644037364
Ca 17.182014905396223 13.083493499458925 15.257837175288197
Ca 11.750726071113334 13.169024293875696 12.79378650681995
Ca 17.114410391501984 10.325798465970568 12.684766402069892
Ca 8.245813043177101 12.858011388485657 13.194628827378592
Ca 10.650596515481958 12.50095158209128 16.151563907437623
Ca 10.078838331642404 11.57774595019984 10.057251780871301
Ca 14.03169722407496 10.95752606521089 14.818056133305195
Ca 13.558631980181904 10.16099889948451 11.219396217042716
Ca 10.5590161375193 9.788417502730777 13.449054167311266
