18
Energy = -21.43191196 eV
Ca 14.197198938369104 14.314294795920436 10.049083473408565
Ca 16.561208811516938 14.999990154411227 13.210876650721772
Ca 16.645816658797994 11.792353723009796 11.473477617102608
Ca 13.979287230733169 17.62649056739625 12.608591183775852
Ca 15.196135014408265 8.5764474671557 12.655981836492392
Ca 10.805328584780037 16.285927429456333 10.90980429622338
Ca 13.963821017685438 10.497631805670927 9.236697104436844
Ca 10.609441565724284 12.41836035768004 10.338665808716561
Ca 12.801650029299823 14.457874658208391 13.237091520671806
Ca 14.367984802519313 15.583199589027272 16.206398065249925
Ca 11.473533242443688 8.433227776834604 11.304303994234893
Ca 12.989961489857313 11.238527974009864 12.59024049342281
Ca 8.958521085684756 14.107222271486197 13.304545094979675
Ca 10.92692522910942 16.770484575341285 14.996896424590531
Ca 15.298065251103644 11.928318845620224 15.139152245226075
Ca 12.454560598857457 9.029902503544806 15.305556497334733
Ca 9.422452776999338 10.502425802504337 13.642274533121787
Ca 11.461698031357017 12.757552051003263 15.993564168031787
