19
Energy = -22.39482906 eV
Ca 11.09664015449778 14.055628073287101 8.493752067249357
Ca 12.798955968356998 10.860645319268437 8.417369102924491
Ca 14.85378687097615 13.658260365482063 10.03862219107646
Ca 8.47709629376161 11.429572754359965 10.189101849337327
Ca 9.023681648158632 15.240077578028595 11.374342985812651
Ca 12.48701808551978 16.310721270228782 11.00371985517185
Ca 11.287220189405376 8.524001568729584 10.730817919257074
Ca 14.98937005651516 10.093273742111714 11.469039427337457
Ca 11.35573385520336 12.17808447524895 11.796806511388848
Ca 14.078765630090732 12.92693768719423 13.458918828811195
Ca 15.634192545826808 10.56998182621326 15.533011446178287
Ca 17.446418386844837 12.901369161989216 13.083016877437126
Ca 8.461815960084081 13.047442599733705 14.184006914299568
Ca 9.21485158310164 9.5571155539081 13.674578372548527
Ca 11.591664983470604 15.33124690355386 14.442592132615529
Ca 15.434020497776212 16.16100018978034 13.24755044631707
Ca 12.748761152505345 8.767074277710124 14.065891752846158
Ca 14.916151332310225 14.205978115203079 16.49648498776845
Ca 11.704170442621397 11.781904174994937 15.900691968648607
