17
Energy = -19.45306208 eV
Ca 11.513557050548505 11.33722967204276 8.897237334712726
Ca 13.560582476125425 8.153078400879288 9.43088234125777
Ca 14.835898234127095 11.499031275372008 10.793154180052278
Ca 8.415957427168227 11.2699125144271 11.085955466516952
Ca 9.57455393154703 14.600794366651776 9.660787470023589
Ca 13.281747744770604 14.792005536130276 9.296072973576896
Ca 9.678419221641407 8.119385999686267 9.189711059595268
Ca 11.765168952150681 12.950127285929735 12.199238788088923
Ca 8.654168657060183 14.511939555334786 13.373369629095972
Ca 15.033743590137934 8.522218278997482 13.049560010038322
Ca 14.944624710340857 15.047627005289067 12.566766279546428
Ca 11.613626918518262 16.59856639293345 12.242101790481508
Ca 11.502621628770827 9.299517476383535 12.193358054224632
Ca 9.372084284841911 11.232825746920744 14.70756478732428
Ca 15.479337191458503 12.028015471852672 14.45581698834841
Ca 12.224410902031028 14.06502386393904 15.42108451777691
Ca 12.734978539029262 10.158182617497099 15.622819789606643
