25
Energy = -31.8282916 eV
Ca 13.387810547599063 11.926356262058885 9.336232614193483
Ca 15.274581895050662 8.918178826121194 11.020281920035
Ca 11.284280751059619 13.517205040721286 12.094539813284165
Ca 14.392142849936665 18.16433184197136 9.794265842584066
Ca 15.4427668827259 14.923774644863384 7.89541759368442
Ca 17.061028708580473 12.444259125750625 10.420917326705764
Ca 8.393614992575264 11.484499036389105 13.206576805415358
Ca 14.483699286893431 11.75877212943903 12.989530384760638
Ca 13.741804104070827 8.573458115699731 14.708196164378617
Ca 9.8756577406169 8.407425920690507 15.065578497316753
Ca 14.518314264624543 15.003240179993924 11.370304641056606
Ca 9.468829513512384 12.09429993678439 9.401407016752666
Ca 12.01643370853145 9.6635633312253 18.080267759300416
Ca 11.578474696183774 11.583228241615457 15.141602929513857
Ca 11.7208389285857 15.39106627731416 8.934132475344905
Ca 14.999531287467516 11.839426222201652 16.658722716740805
Ca 17.74595481098755 16.304713747150064 10.728540627485778
Ca 8.656466402186869 11.493586424232841 17.13170039189738
Ca 17.060874683671813 14.20608908092935 14.014688129787292
Ca 11.506512123886917 9.712596956461027 11.764218888066857
Ca 11.784259653885922 13.539394490238523 18.18644901438047
Ca 11.686539035400925 17.18134543339574 12.51407592580349
Ca 15.465575340843117 17.774032752739146 13.498936902620578
Ca 9.616286520671865 14.782532812238554 15.142780149318225
Ca 13.444061879239559 14.933857284043384 15.04968960282858
