26
Energy = -32.97117221 eV
Ca 9.824329755270343 12.531774159207275 16.369365666347786
Ca 10.838824209665868 11.711745025085934 12.789767346698262
Ca 13.390465075421806 12.758477158628587 15.403532871548098
Ca 7.760816826883829 13.970112751700793 13.39765075880569
Ca 8.591589144755574 16.283349611138387 16.416827637383992
Ca 11.073593940531609 15.259063166022974 14.122016477409264
Ca 12.138229003167272 9.311567811033878 15.349328014328668
Ca 12.636075148629676 11.438140008604618 9.49539183931348
Ca 8.865539695331037 17.649863695329763 12.753097162263193
Ca 12.27329809822475 15.447012385132096 17.645999516013504
Ca 11.531249243221746 18.618101813921445 15.397999515025008
Ca 10.31563533186291 14.745206369906015 10.505720932580848
Ca 11.559330120472804 8.236526756202421 11.577484415871336
Ca 12.73748443665979 17.640195628790863 11.754037673062832
Ca 16.17930514810446 14.12955634755972 17.42662845110891
Ca 16.11842010488702 10.395058213187381 16.072306467584767
Ca 14.65338705824563 16.403543693858094 14.795309158858466
Ca 14.464795932230425 10.42120681441698 12.602581030840389
Ca 16.648261064765755 13.305435971541256 13.804257119241608
Ca 13.674156435079919 14.058768397478673 11.835535277800705
Ca 19.45164264158311 12.510093720880734 15.807295531495006
Ca 18.524932848536082 16.176795902003555 14.977156077610635
Ca 16.619151227172644 16.236200018544842 11.504177079524876
Ca 18.33893780354599 10.264232636836399 12.82925255022626
Ca 16.565386875225506 12.469134809042172 10.157622788443872
Ca 19.715833247588495 13.836940573559014 12.12198825417252
