29
Energy = -36.27639788 eV
Ca 14.755886575866182 11.818386137675837 9.122628109661953
Ca 14.900555321383715 14.946405282360358 12.724244848990853
Ca 17.599390596557075 14.088982633676093 10.312471980341137
Ca 11.864151785794038 13.784630897452777 10.513889326908627
Ca 13.945796862335147 8.230579105078181 10.094594651882007
Ca 11.9056670999296 12.457160895760104 18.31257665241393
Ca 11.091586920891297 10.364651780688027 9.464255896726078
Ca 13.677656681167795 11.022066961417915 12.662661087189786
Ca 16.62423489313631 9.732105070681392 15.350691899419886
Ca 17.88643893828254 12.949077913444393 13.953069732070713
Ca 14.52381643964503 7.406425079186634 13.531393088805311
Ca 16.0734507841254 17.962945742996634 10.710942547840217
Ca 18.266526802624004 16.65354832719185 13.217708836106688
Ca 11.322755782480563 13.865189021506483 14.437232414663
Ca 9.005449945896729 15.828963879435227 11.511333602742427
Ca 14.592480953499386 18.28159057205544 14.336040946174938
Ca 10.844001226996296 8.618142629497612 12.869421358641349
Ca 13.066127137311176 16.015048056905762 17.029633370376736
Ca 16.731338456404828 15.85257182552648 16.39352469271745
Ca 12.722441920507801 9.626669890346188 16.040421916944407
Ca 10.448410237038859 17.477730079750145 14.656961214568343
Ca 9.21700438159539 11.166694618698989 15.890874602688948
Ca 9.03027829018168 11.915589009310459 12.145371739789194
Ca 14.750880227658486 12.799652855748603 16.033411334780144
Ca 9.443557025947413 15.002190630862566 17.54330515279317
Ca 17.103872949345376 10.055217820830332 11.569563026377516
Ca 14.474189744136476 15.49159910736167 8.594836187516602
Ca 12.372370925048546 17.422130597158226 11.34182848169373
Ca 7.563969028706761 14.467244715853537 14.538288372029525
