27
Energy = -34.73298865 eV
Ca 8.401853427274794 13.935496530517847 16.06016326257554
Ca 11.893370919047976 12.724208295140242 17.561952774112605
Ca 11.16295579643052 16.521887717099958 16.913451658089823
Ca 10.125904236988601 10.690848280165142 14.723130293436993
Ca 12.892678735166104 8.976303312185182 16.984721640869093
Ca 14.652952805663364 14.942425439583086 15.901403629295388
Ca 9.025673761743631 16.847002161466204 13.636577607309606
Ca 8.570575200431124 13.088280106131451 12.083290600240701
Ca 11.352838616443945 14.229358091170173 14.196549060534602
Ca 13.827242165462618 11.477255603686404 14.63279448978023
Ca 12.971100627079407 17.476850229116764 13.568307120716158
Ca 15.709673397698507 11.5746670221143 17.58446730759687
Ca 9.308866690077915 9.386519482543118 11.133102093340849
Ca 16.88019546006444 16.51390936418258 13.105225200264968
Ca 12.677754644837087 8.316670096350018 13.124155207544042
Ca 11.128759647728684 15.536976632369853 10.643979892784563
Ca 16.21813950270179 8.871627953285998 14.903742601866192
Ca 14.668405621229187 17.343483934909926 10.151410109913169
Ca 12.00452233699695 11.655335448625328 11.451826051327044
Ca 10.640589638723439 12.177220513014667 8.34269496801649
Ca 17.21808750272184 12.73581180753743 13.985913110212213
Ca 12.575728905773948 8.754697060362078 9.330675934088868
Ca 14.345793206261353 14.266740626804259 12.075889807634262
Ca 15.55061914414641 10.445763114368038 11.418336598659867
Ca 13.473564872151094 14.788910408813386 7.853097945863817
Ca 16.910493879550412 13.98058941439154 9.808135691599958
Ca 14.58309328908296 11.470709798893541 7.978793771168229
