28
Energy = -35.72227467 eV
Ca 19.38282242197847 12.67982219934398 11.139005130715178
Ca 18.501722320169854 10.64110401345989 14.201191638231856
Ca 18.54031717458425 14.518568941098659 14.540671744303463
Ca 16.431317545059404 9.509193689151813 11.059665528465077
Ca 16.38862316493099 12.934713916512601 8.876888322372773
Ca 17.291395370351587 15.968991752519337 11.165469768103545
Ca 15.093753674749273 8.971982773535627 14.810764773090593
Ca 16.056360460897796 12.725919795935939 12.441435040812587
Ca 15.866789584162992 12.491445896784885 16.244941350415367
Ca 13.172441570206434 11.403761243299947 10.225369256037995
Ca 12.875817470667794 8.205593021461869 11.931420925582007
Ca 14.930929903785813 15.660784035853409 14.200519367686173
Ca 12.826393331359146 10.651520590176018 17.605930022046945
Ca 13.622650031365062 15.164408501713183 10.524458655998602
Ca 13.189675394828669 18.49357042681716 12.433191495272434
Ca 16.035147039186878 16.063398615934663 17.586350971271308
Ca 9.779438179907524 10.850393326807668 12.300269839697089
Ca 12.864146562784297 11.809488475248509 14.00733203250946
Ca 10.171997862804723 17.232918457533916 10.597248553295918
Ca 12.611014598684848 17.91856823338478 16.172437191253227
Ca 11.352452174861316 15.307844602708837 13.550213380202086
Ca 11.105628641517244 8.67871742317334 15.126469936838918
Ca 10.227222769428062 13.648300881000395 10.052939150308447
Ca 12.652048684270074 14.3125227467247 17.050357683851935
Ca 9.593028718513473 18.576178464353784 13.957574785937124
Ca 9.6581591445947 12.244358932732265 15.868139152734496
Ca 7.997881715395279 14.58640858116067 13.043967572311017
Ca 9.279814683694836 15.926468945879991 16.59920044274629
