29
Energy = -37.5810156 eV
Ca 14.668636445228257 15.498561260096755 8.5440961052537
Ca 17.57364126789838 15.428218935567259 11.116935929422848
Ca 14.431493247359855 17.261021340337273 12.250658750538774
Ca 11.440695920271006 17.365307033839965 9.994265939844919
Ca 17.469248502178072 16.643770490274758 14.575739479173409
Ca 10.762069133794803 14.25604274376042 7.985270528562011
Ca 13.51438924894966 11.83887026800741 7.8683950642193405
Ca 16.008714338521038 12.199033103368615 10.50491872327003
Ca 16.812670069363797 14.023336697978737 17.162251608639302
Ca 12.687871852033695 14.087733545144804 11.070942819969856
Ca 18.44577548768894 12.70651723718881 13.742245946264804
Ca 15.149581889091225 13.907821488134925 13.906991017648538
Ca 13.88521464424049 16.54527864089013 16.063802916354984
Ca 10.805445590661746 17.196211667079446 13.75022317635686
Ca 10.425902460460934 16.000427027173153 17.509963040768845
Ca 16.89890533137631 9.328038262161538 12.54655142676772
Ca 13.252383925747246 10.82760550204656 12.874650998817238
Ca 9.12886452233055 14.483319851058319 11.509969808184344
Ca 13.906467953302991 8.694337227921856 10.156415642547891
Ca 11.337537187955533 13.742453450826822 14.736554514397389
Ca 10.614252401895376 11.062287221335506 10.167969314161601
Ca 7.844949728668033 14.875581794707106 15.047371701807515
Ca 13.150578016594695 13.153575957735013 17.79126336441308
Ca 15.576174770713715 10.701108521562805 15.824682349203878
Ca 9.262902143385261 12.44083444693295 17.506359044840988
Ca 14.110412878928596 7.513977616551742 14.10438641547814
Ca 10.783873822014145 8.145441884398592 12.563020920687668
Ca 8.897326135973197 11.274878690027926 13.74181214067527
Ca 11.713501163738124 9.957026924379823 16.01777818260393
