28
Energy = -35.45500951 eV
Ca 12.996402647818664 13.20793278700529 7.869782523796573
Ca 16.0780111758725 13.17128399353775 9.986844320799703
Ca 14.252860977671553 16.532560333420875 9.520813543966659
Ca 17.658175190735456 16.023836285040712 12.00052834114452
Ca 19.206296649378245 12.410750005804415 12.089661814297322
Ca 13.234271992312406 10.823698536186578 10.883621323037074
Ca 10.294890624560542 15.652637194701533 8.461504587637869
Ca 16.613006660507132 9.816402467726567 11.980537520688634
Ca 9.844173566168955 12.054641171040027 9.58680694463855
Ca 19.278074987817927 14.196125298045937 15.231231110858516
Ca 12.192588820770387 14.242063775867429 11.39621762284923
Ca 11.044638777103254 17.744674836197404 11.391034725752116
Ca 14.135376778923607 16.59925709600673 13.469257752440567
Ca 15.8653835867453 13.219028502802058 13.648905884222437
Ca 16.979327059312205 17.0359560764329 15.639002991083066
Ca 17.596944214348657 10.670719412243162 15.552410655296013
Ca 8.496249739946167 14.741480713916431 11.87574546081625
Ca 10.619759095038779 15.930291564118498 14.705424391877285
Ca 16.282121363195714 13.844210594141954 17.45618644193456
Ca 13.799052683242518 9.968933568212043 14.548519649185073
Ca 12.928778919081813 13.360384767186533 15.915549384918842
Ca 13.511696348322484 16.611690308777376 17.327905733828672
Ca 10.526666473514274 11.71980945114929 13.462245381641784
Ca 14.643233277879794 10.450967043650119 18.0145567859082
Ca 8.047439433862284 13.327199856485294 15.600636312875993
Ca 13.170439953200349 13.398937089998128 19.653453853816618
Ca 10.150277644125111 14.764760273303231 18.252475504939504
Ca 10.78138528734776 10.961237374836301 17.36617032945074
