20
Energy = -24.09662759 eV
Ca 15.393294567370734 14.590767997777967 10.141204785441174
Ca 13.622027632560213 7.431027514279081 11.924627269856986
Ca 11.961093444889263 13.088378073138538 9.146316713211222
Ca 16.110945897598874 9.515976206513285 13.865702691723332
Ca 11.116254491147306 17.566597961156603 13.473725452157645
Ca 12.78751626423415 10.792190200958386 13.063853736982445
Ca 12.27270685251264 14.285157770459795 12.451735896060763
Ca 12.932421430862943 8.148176645026227 15.580459376434238
Ca 10.072338507943119 8.312187704928593 13.179903825149001
Ca 10.559385395902515 11.397218604353485 15.753060300492987
Ca 12.723662101970096 14.768396051685977 15.918042286623667
Ca 14.32144625417516 11.481512436700903 16.60483680733144
Ca 9.070296355479043 14.572909791575468 14.537350425677772
Ca 9.332943376979769 11.831386916619701 11.963741157953075
Ca 9.219151200029167 15.43295751732498 10.833043205595768
Ca 11.336462092338607 9.450508916757325 9.777893563637372
Ca 14.786680717831551 16.883747961193915 13.134642591814014
Ca 15.699539518410656 13.245874316597785 13.627127502769683
Ca 14.97679982599178 10.865097350554455 10.300732148193314
Ca 12.548547853571439 16.98535471125383 10.00311050088941
