23
Energy = -28.55671574 eV
Ca 16.477850850932985 15.684198113361326 16.547127503699777
Ca 13.541954302037963 13.01583890855792 17.257050002983775
Ca 16.611481625794287 12.197928213082747 15.12708132210258
Ca 13.023812769397281 17.048810658203646 17.03749205818041
Ca 15.235173530722722 18.197795945941454 13.987418262132815
Ca 17.074552080639172 15.057059642822757 12.679345962436713
Ca 13.73908396923989 14.886175663510311 14.259850138290536
Ca 10.355485511274265 14.68000863870374 15.607834829828818
Ca 13.662046913170911 9.7389002243112 14.854689170671941
Ca 16.316364181725685 13.81131201832036 9.143982060525348
Ca 11.525338151593385 17.75020285735338 13.580874797704496
Ca 10.407547024539502 10.963573659882274 16.576120410409573
Ca 14.792568915736478 12.178308243316888 11.954037238998355
Ca 15.568200141568436 10.157386239573707 8.965294037206514
Ca 11.47094789041925 12.008037043907859 13.227701278819044
Ca 13.73666513455733 16.023547968340676 10.88498693219531
Ca 18.219768361536932 11.492145658366558 11.550146159812513
Ca 10.092218574020904 14.821987014215795 11.619220546636866
Ca 7.997042350111619 12.204946235165307 13.881479759812787
Ca 12.57449142497731 9.235823425069016 11.010499937308294
Ca 9.873202477868983 8.758992138488807 13.548436037040153
Ca 12.495252842854779 12.691945127767124 9.29568322502778
Ca 9.237943012801772 11.018335119839692 10.482977665967214
