27
Energy = -34.30292744 eV
Ca 10.665398565826795 11.653286314174721 10.490723321559935
Ca 9.1146105839884 13.867572403951005 13.218586993783257
Ca 12.242357055087407 18.285052497238816 16.045457868131212
Ca 11.871192911755971 8.452694482474048 12.116656093590475
Ca 13.979851712758935 17.982846248994584 12.503769700802113
Ca 16.98884702640585 12.477611643100131 9.186624675189933
Ca 15.86813348622265 14.661277806959665 12.456690437988884
Ca 8.6370331323734 10.073943144131 13.442425329262973
Ca 9.326005840313437 15.940981640539997 16.363358397291496
Ca 12.578877708497744 14.644733175312876 17.87843544063408
Ca 12.944356307252589 10.829923874694874 17.77018107136705
Ca 17.746612768376956 17.70429391687879 12.64990634306408
Ca 10.166266542375173 17.511909773270315 12.930308660856948
Ca 15.844283461711735 16.091235091543755 9.279651026334447
Ca 12.315920885242576 14.988411245493383 10.754992014504547
Ca 18.711541893228734 14.65010356033346 14.786705861306164
Ca 9.563458755435732 12.179389597560476 16.79351341012136
Ca 15.262163893353963 12.81332516746283 15.53139783859286
Ca 10.980822784978427 8.357598676794725 15.84221932900213
Ca 12.429781508511525 15.079160122097557 14.348230461162512
Ca 15.579691358219883 16.606399556860335 15.71511500268392
Ca 13.524444253501214 12.864063827652073 7.990505762776421
Ca 11.866945068988063 11.468610808415773 14.18338444897616
Ca 14.691154610700044 9.197459985174255 14.618623094840935
Ca 19.26746924055136 14.654121824630938 11.042318054541473
Ca 17.749553242966048 11.48230284377752 12.85730491719669
Ca 14.233788810503485 11.510883134786082 11.467097618319022
