20
Energy = -24.2809996 eV
Ca 14.325081559124632 13.68225343190125 11.667036442423397
Ca 17.466798963814043 12.614905854329315 10.294421793377204
Ca 12.306571128439069 16.543426114776715 10.417442903211295
Ca 11.002689843522708 12.839475660778485 10.306434015481592
Ca 8.614525864000768 15.70624682916502 11.204153415045656
Ca 16.314385205101768 16.454206051035232 10.413088155929508
Ca 8.61071524639838 12.35782720799597 13.197339106489016
Ca 14.234709152680862 10.351814024662357 10.177436911180065
Ca 16.094355922826846 10.844783448474546 13.431546058562244
Ca 12.191743796049195 10.897119942594264 13.31649451883626
Ca 14.387263772676521 17.020958923156485 13.653271501917633
Ca 17.361458208315433 14.591424503994444 13.593193747460937
Ca 11.278796229968881 14.783451349475694 13.504097978230138
Ca 14.23018621844234 13.559238729647468 15.289942515462169
Ca 14.042730726437545 10.189615389372854 16.62998171661363
Ca 10.930761734213775 12.545318687578725 16.49866589281525
Ca 12.311826257511832 16.243951234388913 16.85137410128498
Ca 17.221078102553015 12.385562627692323 16.883381633445257
Ca 16.154393170489303 16.135064138376354 16.985390216858413
Ca 14.054312870821082 13.387739823991755 18.819691348763516
