24
Energy = -29.93282891 eV
Ca 9.770627622174365 8.534957353995898 12.836991276206918
Ca 11.93799510944272 9.123083335680864 15.919568371838482
Ca 8.708210748216516 12.137682232813384 11.508533976479685
Ca 9.260067085085547 11.83780240035475 15.18639211026662
Ca 12.169255460728163 11.071283560655953 12.90382009101679
Ca 13.809236496148774 7.809396793874956 12.749896125787826
Ca 7.46936613035026 15.095525416258772 13.745518060330369
Ca 12.770368724974867 12.906024367389554 16.195295141122163
Ca 14.608803227555917 10.624392212545446 10.035448977594717
Ca 11.915526381179587 13.31553198190235 9.800658819340926
Ca 9.220526144599827 15.948863907333196 10.425330785746374
Ca 10.948180724006368 14.490631412253164 13.223362558391953
Ca 15.409080507434426 10.480603667600587 15.040285336966074
Ca 17.350492628607178 9.168314361107594 12.159261743502324
Ca 10.191627378662425 17.95217348114948 13.513923404329047
Ca 14.80115756193881 13.366027797194892 12.619694406943893
Ca 10.045489090745138 15.575837729427237 16.500160196194173
Ca 15.283561582788996 14.511086767517726 8.974500519642735
Ca 16.298764083700846 14.188880868196316 16.058266152727363
Ca 13.108446789101732 16.639965998290933 11.131067132554618
Ca 17.931418628740275 12.404228154200803 10.35723434129967
Ca 18.542954083484243 12.273586018902156 13.914256160838692
Ca 13.59395496304786 16.421903713613247 14.86693545927693
Ca 17.028830288212944 15.924290453320369 12.44684692453377
