29
Energy = -37.83515742 eV
Ca 18.648245629598897 14.257162093812369 17.377127298090837
Ca 17.145786279279598 17.281952211353705 15.311124094536321
Ca 18.33938569169745 14.301170204650205 13.254756396027316
Ca 17.642925111149875 17.57343804114212 11.140443190512991
Ca 17.62933789768788 11.050262744942712 15.611967836459554
Ca 15.470947891310336 15.952649298286241 18.737708074729003
Ca 15.503505850939149 11.967457353515996 18.789824604142964
Ca 13.223956622562694 17.044883987656718 15.783363594373434
Ca 16.41015571951281 14.132129411584298 9.622357177289487
Ca 15.555591540576001 14.00006033523092 15.772033026211464
Ca 15.506611623017063 11.900170081992151 12.540943821824172
Ca 13.92557892058473 16.997410860874382 9.24493770922119
Ca 15.006082787517366 15.860879410936416 12.621192653197149
Ca 13.718979380175014 10.701051857555246 15.689519374534589
Ca 12.783857251085266 13.750919870220992 10.543978889018625
Ca 12.296947813681761 13.79749037039576 17.777883843825638
Ca 11.952898888914195 10.537087724321196 12.35523300721427
Ca 10.935985512774057 8.172670025194135 15.150979786857706
Ca 14.19458053944488 10.744880071936107 9.130387917670094
Ca 12.408342022089276 13.84019672795164 14.097387364743042
Ca 11.695464448457715 10.10424853807687 18.606316886736252
Ca 11.34890894888406 16.875785791109976 12.245116632989447
Ca 9.6392664973359 15.63459800999175 15.48311803906267
Ca 13.184999657654789 13.770580057862578 7.067955663267689
Ca 8.428770521293087 9.809131158848782 12.456495933454496
Ca 10.215088394057494 15.48187411891329 8.814864838567953
Ca 9.901737332981842 11.671125944035241 15.53278130425438
Ca 10.340826010154961 11.50510467400368 9.054924150691098
Ca 9.311173417487035 13.523320062559414 12.1410449365959
