27
Energy = -33.03815895 eV
Ca 17.973515965266813 13.573086718878066 14.215783241190525
Ca 15.802089795727657 12.47152921466529 19.856605570059855
Ca 14.94903972548382 8.968506592525035 17.456471193443303
Ca 16.336798518420938 15.935732314812203 11.4695367379063
Ca 17.118188664936415 9.808602166041654 14.25681165935904
Ca 12.32967899909276 11.636235674246654 19.297826668465582
Ca 14.460870884238174 15.290655654699252 14.652456012730413
Ca 13.477112144327526 15.20270800184545 18.392965171051703
Ca 11.299682472107742 9.903283264663171 16.277036350438703
Ca 11.651358344814842 12.355843984141604 13.54233695606888
Ca 10.557833954090277 13.73226262102309 16.704253952032985
Ca 14.600100865868614 12.128147536213447 16.157675139768727
Ca 18.231571192541324 11.400188147294328 17.32267906073758
Ca 13.990858657825603 18.500519299136403 12.828563526114124
Ca 13.58080196795355 9.169689421636669 13.433774535340858
Ca 9.097375190741905 15.312961495151228 13.395931565521204
Ca 15.208192152839175 12.38670900192089 12.192768987159761
Ca 10.49072516640463 18.627449158027993 12.096391337728088
Ca 12.35497793404131 15.092687159412643 11.399390258113268
Ca 17.078644662941887 15.017034284101552 17.50591863145481
Ca 11.494265193097549 17.229775519088772 15.509035628626961
Ca 12.539309109560993 11.178671792691196 10.022458272773505
Ca 9.229433505203026 12.786476321619748 10.603081702247463
Ca 14.882230108686045 13.964821576758794 8.708904543668067
Ca 9.134406104622629 16.349396156443554 9.635480711988638
Ca 13.083635064465852 17.531925909671507 9.101137631009669
Ca 11.359968088611355 14.069804559827665 7.795014812198985
