24
Energy = -29.51234983 eV
Ca 13.302408323068766 15.377769849262904 14.879691294571574
Ca 15.142959963930737 13.039887178792034 17.294033745742546
Ca 11.926918323055382 11.952140888114714 15.608506349094437
Ca 14.854554647960116 17.95570025650155 12.764884036451317
Ca 9.600927952320387 14.993090976779847 15.648554643980349
Ca 16.94514997721606 15.05784938421361 14.591981281287914
Ca 14.797000330041305 9.187830891345703 16.14218126765127
Ca 10.72105495039758 17.704296343708503 12.890083272867948
Ca 10.978171412028255 14.256542190775818 12.28187881315065
Ca 18.16294732496578 11.511361298053082 15.793821664992782
Ca 8.659217962503016 11.699338551435003 13.946061904611446
Ca 12.84007001896011 17.06137973742697 9.777663041823608
Ca 15.103497877715547 11.795116134545388 13.796687800525492
Ca 9.34190854345164 16.075051383459932 9.504537225405308
Ca 18.214397462212446 12.523660897252466 12.043667468664538
Ca 10.983817145390137 8.506786104181236 14.746472711712041
Ca 14.830078997374448 14.444828743054986 11.41239645014992
Ca 17.42324739622818 8.980827379742234 13.133208023627374
Ca 7.456630340271871 15.204645735894177 12.631813990915406
Ca 12.220210624623663 13.322975760561802 8.953054631325132
Ca 11.815881460218773 10.81391202445516 11.867663326644491
Ca 13.970082860812067 7.9453298123295175 12.633843740956369
Ca 8.63836912345371 12.426009726774122 10.197523590299904
Ca 15.219083987052898 10.781535707999218 10.27447824713675
