26
Energy = -32.37812942 eV
Ca 18.157658346394577 16.754931343709288 13.10793244175936
Ca 17.93502055911152 13.769428149485272 10.937490077979758
Ca 17.64075148243055 13.042942687222206 14.72445919576438
Ca 15.875973284451366 16.85880605990524 10.139906702261335
Ca 16.802391549144378 16.30759552704068 16.442981979165527
Ca 14.465870553675984 18.291488740197284 13.582351258647815
Ca 14.92634805732137 14.887627332188677 13.106838336598146
Ca 15.01947748874922 13.06119079635693 17.571913073960935
Ca 14.407542721602368 13.229163126548587 9.711502546778252
Ca 16.12310418804954 10.690726695547923 12.098371983310962
Ca 13.282570128879051 16.30532972696382 16.729141860327516
Ca 12.223789218131767 16.037640427858125 10.47882804737254
Ca 16.135106353031595 9.688529517154166 15.810857026956628
Ca 13.647629327439697 11.907888152995048 14.461705908367511
Ca 13.226767185778991 9.818158275445354 9.947059433757206
Ca 11.001917853163041 16.098537580768205 13.920054026118542
Ca 12.609054062867898 9.830514836159423 17.207218288553356
Ca 11.053947844665108 12.705654022846957 12.202344637178664
Ca 11.097620873228871 13.308781082414722 16.61746164944345
Ca 13.035312295281944 8.511227797813467 13.489041316454086
Ca 8.593383366242326 15.146142555028915 10.925937836856187
Ca 9.995603365663442 8.954283030543984 11.11319570342442
Ca 10.487148665961293 12.376622231584768 8.783583140654674
Ca 8.081342206204276 13.761213205632579 14.416715424162835
Ca 9.790511509024716 10.293293981880383 14.643290164620423
Ca 7.555832932078036 11.610353446561644 11.454808826960202
