5
Energy = -2.21762 eV
Ca 11.634866560036151 8.406930891399847 8.546326960255024
Ca 11.1879565547942 11.01736447836245 11.295767715769882
Ca 14.582025566334186 10.684714511428263 9.569299471407325
Ca 8.466127267908677 11.370072376987808 13.962281409122028
Ca 10.185018138968099 14.511771563339606 12.5069206774471
