5
Energy = -3.23703968 eV
Ca 9.034187554532302 13.031180031239678 10.988275613748536
Ca 12.829578596043321 7.889423600653349 11.47478314885709
Ca 12.038491184940716 11.22997231767768 9.734915338852499
Ca 11.09127135274135 10.867345703021636 13.21183385332351
Ca 12.350462816460464 14.165390539905765 12.009020233981643
