5
Energy = -3.60667278 eV
Ca 12.082590224688824 11.415451677648203 12.052143235799074
Ca 8.615859662772062 10.941489008522666 11.017472193927654
Ca 10.81614424684428 13.202745002865464 9.039154242903914
Ca 10.506779479728946 8.04895872728638 12.412082604973012
Ca 11.3280773198921 9.501372950087179 9.063002122291978
