6
Energy = -4.60703079 eV
Ca 13.356130315949477 11.640548842543392 11.458535172489299
Ca 12.070420364122679 10.060920081579628 14.661798555058484
Ca 11.87680806573972 10.296892659621301 8.251101322457824
Ca 9.98615601163839 10.444272709652523 11.534713132130582
Ca 10.715220420584386 13.571546695439718 9.67567221373698
Ca 10.88151755554179 13.446119864356477 13.550964206140977
