7
Energy = -5.73696882 eV
Ca 13.6971571529292 9.687501054561483 13.023208062905988
Ca 10.343952009096071 8.176478767613762 13.391929723960184
Ca 13.487892341675463 12.690830900633369 10.49640136545292
Ca 11.514526026166939 9.488909529861667 10.025018805630312
Ca 10.674884460915967 11.86550148352284 12.652236060974289
Ca 10.041964118383055 13.022314877420731 9.14801347685316
Ca 11.183569966424356 15.475983211796835 11.665062304348861
