8
Energy = -6.92832439 eV
Ca 13.250394630913226 11.937373823923755 7.978613263715109
Ca 10.820656990193223 9.418788405126366 13.055670278861452
Ca 8.746753358533015 12.717264465503074 12.696583550900055
Ca 13.610046835942338 11.32524914494849 11.55672305825378
Ca 11.704033685596196 14.38708402121579 10.756838449339757
Ca 12.627142547089514 8.394317539411754 9.621818742654199
Ca 10.284191080638253 11.155904608834383 9.918819875794567
Ca 11.899196633801347 12.875363970514499 14.258175466203278
