8
Energy = -7.012393 eV
Ca 10.46063257891962 11.583305375718654 8.83165901476996
Ca 11.254441021823792 7.830408765654135 9.255716536175917
Ca 5.146051947241651 7.70974064896404 9.210620348621191
Ca 7.1043529684295486 10.54445192892706 7.259955430065209
Ca 8.187163798376641 7.05934269067526 7.449789339396541
Ca 8.286944033011236 5.653809755079867 10.717236300045275
Ca 8.104992634639485 9.211443133451017 10.494955338089172
Ca 10.532556309843162 9.484633347672537 5.857203338979432
