9
Energy = -8.2591005 eV
Ca 12.523324229200801 8.372482949988054 9.73910888219848
Ca 15.431334002780993 10.480655559654211 10.13834970073444
Ca 14.854118190072759 13.617774456040603 11.839301871675884
Ca 12.07133202945497 12.18224279455991 9.62146205244727
Ca 12.806762244785013 10.54606749118735 12.88921869228149
Ca 11.290725161577624 13.899961925865274 12.784459210252994
Ca 9.564935368076778 10.017259127354151 11.22801777715855
Ca 8.33523725546736 13.343610563488573 10.870054248437437
Ca 9.129868078649558 11.573932042707337 14.405520393533314
