22
Energy = -43.71288968 eV
Ag 11.601623436370225 8.265387812472673 6.967969174838506
Ag 12.137309248977834 11.406324777267779 7.320202324065081
Ag 13.62843139709453 9.724930524368704 8.951332812956732
Ag 9.611385097174548 10.693831950841473 6.6102443116896
Ag 12.504361222839654 7.383758819487439 9.894206942575785
Ag 8.533366209010408 8.30668427523295 7.488599128038528
Ag 9.979270300810946 6.664339210627164 9.183737056820574
Ag 10.677652149504105 9.550221540206156 9.111021879932025
Ag 12.308850937692814 11.970900307708545 10.07743722824686
Ag 12.535237406134284 9.64882316700986 11.570484116842692
Ag 9.954944875308415 12.593561697026288 8.650011968589974
Ag 10.376543629410282 13.696457875263505 11.198514775442643
Ag 11.844113290200292 12.06488419288322 12.882941416226519
Ag 10.41105664329855 7.7750440082846834 11.722663139872303
Ag 9.694786996078541 10.82002220757215 11.25295069928272
Ag 7.818275102145045 10.725900562775466 8.78870067319166
Ag 8.05395249486728 8.407123804891597 10.288516525815085
Ag 7.851118643885549 12.993290279081116 10.466369319344071
Ag 8.745513961581628 12.087507265180935 13.397765305587543
Ag 10.756548731903898 9.686528202540403 13.758641624068709
Ag 8.23581157378318 8.971269665838896 13.04550445629461
Ag 6.745796316620214 10.65425503594722 11.421719772208515
