47
Energy = -101.49831974 eV
Ag 15.722698971908315 14.068842628796443 12.093378912795398
Ag 13.254070146869308 12.77975418972835 7.6384267004843265
Ag 15.562284054162609 12.2769497032519 9.941515838096622
Ag 14.529933436956187 13.624351976744585 14.629852358970211
Ag 10.539602166421464 12.41818643812142 6.955048586108489
Ag 11.309570435144773 11.377879738260207 13.83531794421989
Ag 10.768551477552734 16.41244299961569 13.282748511519822
Ag 10.89541659529659 12.79080253519528 9.76106196926981
Ag 10.65646241571744 8.58979964135879 13.883234880159938
Ag 16.236881349554764 11.277445273238854 12.468530890638556
Ag 11.47106269583698 14.908617388040003 7.929448146100352
Ag 6.991936389910225 13.124416323878247 10.411693640314242
Ag 13.365298985703784 15.411578302772774 12.796424275353248
Ag 7.495670536012201 13.073176363736067 13.949752910568552
Ag 15.265759732374766 9.38546387929419 10.428366320086909
Ag 15.268884495766553 8.822353250816517 13.247925956870858
Ag 10.856673577537245 7.2826739794992985 11.343997235268548
Ag 9.177970211821984 11.90335490588231 11.831800945998621
Ag 8.637510750644692 14.85542020663873 12.022873100241739
Ag 8.857821204173746 7.891742067646609 9.340289782923776
Ag 8.528231480775048 10.500236835569932 14.420481053156092
Ag 12.729699849033578 9.50118190037117 12.063663456197506
Ag 14.16338547822191 8.0185693754544 8.073953111277804
Ag 10.710835133505705 10.163030365864094 16.29282973600811
Ag 7.84339623923646 12.432287140960216 7.731407492111697
Ag 7.727595125413461 10.509797241125668 9.713224996966462
Ag 11.017557220212359 15.751482156530013 10.557745396026183
Ag 6.583095310816397 11.003200929483048 12.314003383725893
Ag 13.577388683069413 12.204127864150959 12.347718053128403
Ag 12.901494534994992 11.991001204067556 16.134873025516363
Ag 12.191298325124777 10.044773611978947 7.33326087316555
Ag 11.775770785662614 14.395478499008776 15.096546775532588
Ag 13.000871707944514 7.036526229373986 13.32201673957327
Ag 13.396025342550681 14.1565206032368 10.192477485443376
Ag 15.405722987817281 11.009573194239584 15.124547473433076
Ag 15.021086083059732 10.582176412629593 7.755023054844358
Ag 8.653699270892906 9.053135005817879 11.962238369227768
Ag 9.640699438246166 12.685823379808603 15.836658133655915
Ag 10.57424459083077 9.981467314960247 10.046347733197399
Ag 11.180827478940838 13.724720692927164 12.437464636858136
Ag 13.553389347949865 7.097883024273179 10.583674710866935
Ag 8.971461994718323 15.173490919489135 14.925748800542731
Ag 13.09629490051191 11.035410827497255 9.799320386908654
Ag 13.140905216164295 9.418694663678748 14.96278194374623
Ag 9.341096308311833 9.987293055075538 7.453895634379072
Ag 11.518818217144258 7.609144462970138 8.612487596801689
Ag 8.877185678325066 14.643857655781762 9.100057400560308
