13
Energy = -23.23278656 eV
Ag 12.947387340829263 8.039169715832632 11.06344404616961
Ag 12.18979943084862 8.852458423951557 8.524505533346677
Ag 11.424036660168435 10.05275555473092 12.051460678410693
Ag 10.848283003985426 10.72235826764938 6.91042618225585
Ag 10.671783720062974 6.966168218693848 9.859143019396091
Ag 10.62835799405671 11.054499803881797 9.614804960176196
Ag 8.994449899125055 11.705393261884842 11.712644610929406
Ag 9.068197340942515 9.0361504702108 11.069771604765746
Ag 8.347892030070932 11.58917307942739 7.976787448541602
Ag 9.331408945189152 8.87812296716779 8.19242766823066
Ag 7.863433852859346 7.06499820464895 9.580482332609979
Ag 6.847762842692864 12.350925069922694 10.173182391520324
Ag 6.833658067430738 9.692332942911676 9.343999007736688
