18
Energy = -5.7419466 eV
Cd 8.068032719929237 7.832384854419667 7.0895033537727
Cd 8.634618384042529 8.300167651181555 9.979882277501193
Cd 10.768038401539886 12.702772984790053 7.687517189787314
Cd 12.646623338422591 6.658538959937943 12.824857075672522
Cd 7.120832372749226 10.896117877825978 11.330422977036147
Cd 6.307765049063026 9.84970057310838 8.644662653662483
Cd 10.37208456322825 12.228008834299809 13.061949062511612
Cd 8.633714712532216 10.787695591874657 6.548085639985284
Cd 11.756676050927698 8.542317063918807 10.562515385578322
Cd 11.659845398708278 9.545423381011554 13.531141980013977
Cd 10.01907787560673 11.153473350289307 10.279432312058194
Cd 12.906819511897673 11.416238963529167 11.442570821387795
Cd 9.547988329721873 7.476975780603365 12.695290954936358
Cd 7.8341547799109055 12.635335294280448 8.862335021218215
Cd 10.794209572322567 9.19751828822815 7.81040161831477
Cd 8.456733634685488 10.057002229598046 13.909979745240069
Cd 13.603301533309137 10.371118569966162 7.365208671809301
Cd 13.463911356589833 12.943637336323924 8.968670844700757
