16
Energy = -4.80128278 eV
Cd 13.007123335309597 10.077719814254294 8.40569276429359
Cd 12.562006820434 13.000407265894532 9.281845362941208
Cd 10.502389174328178 8.676462648456399 13.094188233221768
Cd 10.741228458021322 11.635446670938062 6.98440262243957
Cd 10.165291415022887 5.506871494834408 8.854655170985126
Cd 11.695578640688911 10.940204609275735 11.294078269367063
Cd 10.839547873090428 8.611877441938466 6.676549099807682
Cd 10.631443192202163 8.45431178758654 9.793505138098633
Cd 7.4369506012625735 8.344272746118392 13.101147751397296
Cd 9.234152078876235 6.273695938155814 11.691763052261443
Cd 7.912710812492731 12.94277045523333 6.747112916708284
Cd 8.613881105410115 10.663823191629694 11.316354923900567
Cd 7.599907820356738 7.114406943253425 9.138311772285391
Cd 9.487912493896344 12.921616014236257 9.467935132618614
Cd 8.268393766266522 10.109232952599722 8.271927606046555
Cd 5.976091084072707 9.243838285168401 10.513445435922447
