15
Energy = -4.40105342 eV
Cd 11.650222338447978 13.64434138831478 8.325291863474511
Cd 14.447163916829671 12.718586447302172 9.233663468193194
Cd 8.304652218177793 9.291601917355775 11.12182931099945
Cd 11.633063173336701 11.806767085932805 10.766145044025011
Cd 9.167044876517387 11.429366322414426 9.119406137579425
Cd 14.171138274238036 10.032086620767384 11.074458391385647
Cd 11.374092698950225 8.780933758234907 10.84262603897601
Cd 12.421316136862286 14.973145568890253 10.998835444944051
Cd 8.397478041033985 12.36810317989241 11.909886848745312
Cd 15.95063272291949 12.268257470829665 11.901105362461138
Cd 13.92867415849298 13.74348443605837 13.462229837689947
Cd 9.874109757299493 8.12564316854504 13.473373150214076
Cd 10.964138725694006 13.262095715753382 13.432654028240817
Cd 12.192294574663036 10.367526109328802 13.523110246258229
Cd 9.221415570040365 10.885497993882602 14.512822010316176
