11
Energy = -2.95244226 eV
Cd 12.462317126271218 11.613906825785714 15.226610981985443
Cd 13.106920267486988 10.075345447722624 12.63222572832926
Cd 7.338448550838321 11.602915085700252 12.016419038874961
Cd 13.110250951807599 13.239754564375955 12.667257875528977
Cd 10.4953946817674 14.369562063776748 11.350415506700438
Cd 10.453366780674562 8.973678750049041 11.360717774433512
Cd 10.32049157802173 11.676741400481378 13.050271758945497
Cd 15.291752001788389 11.634535439526255 10.76983648854759
Cd 9.995057088925359 11.668459587768083 9.925894128450588
Cd 12.794482740288638 13.233511840607804 9.583946437764109
Cd 12.768125608862004 10.04852070483511 9.553335991068858
