14
Energy = -4.06922034 eV
Cd 9.848777039506006 11.283693639716457 6.72228277207381
Cd 7.403762869501074 10.719049576512619 8.484543733396588
Cd 9.43375208953625 8.42496405582991 7.784459674146367
Cd 7.7208359528789705 11.238583227498127 11.462622862544235
Cd 10.989378686599304 13.772110135305592 8.199415214218648
Cd 11.952659852502599 10.493895133204713 8.794432506944695
Cd 13.452019504186076 11.812214346857882 11.17651593517956
Cd 12.942016968975846 8.701967358444442 11.026955014172087
Cd 10.43148981987953 12.409931389407848 10.881837565381511
Cd 11.912185875944935 13.066799875906836 13.572058273837278
Cd 9.892042280162718 9.141456734814861 10.822748265165204
Cd 11.04641656741999 7.767815942748487 13.375017595221859
Cd 12.90012694456376 10.179590563444144 13.840676965851552
Cd 9.825616877030113 10.739009348994992 13.60751495055377
