13
Energy = -3.39598943 eV
Cd 11.804533246297966 12.031943612997807 10.185237863632869
Cd 8.89120290624338 12.028741256232989 9.237437042392804
Cd 14.392519703058786 13.71449818940315 13.615175938628806
Cd 14.392840045327064 13.707783293796211 10.438217365890788
Cd 11.853898393411049 14.527172993426678 12.035460743132637
Cd 16.430961335153565 12.034726971154868 12.030157653571324
Cd 14.397227971758166 10.359827106790094 10.431775485298898
Cd 14.395407375507924 10.360315816354246 13.61338060759791
Cd 11.864828893324606 9.535542193730036 12.028699103370418
Cd 11.807643801868018 12.028536264302366 13.883657044963872
Cd 8.639884676364023 13.576479658258318 12.036208770971456
Cd 8.893877083918152 12.037912923651676 14.84306534328623
Cd 8.655793666309822 10.476814484546985 12.041497468010867
