14
Energy = -4.07673967 eV
Cd 15.715796508137545 13.382037489652932 11.374602621768304
Cd 13.353925423447157 15.535801680070653 10.557169656944918
Cd 13.65499225806386 14.326173362707582 13.49766042733295
Cd 15.027093507954781 10.527128826232893 10.10994209996248
Cd 10.615577304261462 15.318876781479489 14.145977511416131
Cd 12.032417902249257 13.522799244439351 16.21278398391661
Cd 14.022021504652821 13.105841232154425 8.725041474441324
Cd 9.368671637488882 12.551860214593532 14.856818771195707
Cd 11.263341299089628 13.580302268764742 11.746150685070052
Cd 11.891811711236672 11.149148403504938 9.840342588511195
Cd 14.568101973344238 12.015360428113599 15.332451860608733
Cd 11.788104434414329 10.476175438508038 15.448863469686623
Cd 10.401534755163526 10.817003405814852 12.56032099714443
Cd 13.405812321988199 11.144995928915348 12.697943555185473
