14
Energy = -4.09227897 eV
Cd 10.67549116892649 10.542593981982906 6.723539286599481
Cd 12.372563646849494 8.435535509653356 8.209922655294394
Cd 11.952111449715662 12.045337326861498 9.001007773213082
Cd 11.750990468769041 9.432143136492316 11.052863381450681
Cd 8.375539981467107 12.060792158164878 8.118241096042476
Cd 9.033186510304049 8.794359561002091 8.600103214990183
Cd 9.359065918231583 11.615049959719661 11.006634207375281
Cd 8.876587159856683 8.699637803455037 11.689366369129726
Cd 11.432831354612349 13.814880365995869 11.425400704820103
Cd 9.378257864722173 13.223155398514628 13.685963241918406
Cd 13.729602196330829 11.719099766432679 11.453809426483266
Cd 13.304674680665691 9.656939757593486 13.74945953533806
Cd 10.24108604039282 10.234405197750952 13.913646202043687
Cd 12.341781858957846 12.54984037618243 14.193813205103018
