19
Energy = -5.96412249 eV
Cd 11.613123888691742 11.748599749281391 9.010387043165967
Cd 11.680379281060885 8.905016510884185 9.898200529985152
Cd 14.138237365352449 12.925079619026588 9.88236524331768
Cd 9.902493977912032 13.864105720915367 10.127465374856534
Cd 15.407959299120368 10.919461912088332 11.904235465198223
Cd 13.46556475571099 8.731961135687976 12.256507523566672
Cd 11.222743582100392 11.218519437595619 12.101196452485999
Cd 14.041468055754219 15.690613957601814 11.112882966001862
Cd 11.19360620085944 16.33861247537513 11.198711719947939
Cd 11.053577240684064 17.03125026890027 14.165812677385931
Cd 10.642132891860555 14.068349371801624 13.291816832026282
Cd 15.405874183087798 15.534551637494733 13.85521770220399
Cd 13.59483735277145 13.237563482497256 12.901278293271147
Cd 13.427661152350705 16.46857130683422 15.835832013999225
Cd 16.251371012888978 12.610402556457734 14.259885584134233
Cd 11.798319657387637 11.93099156851129 15.06383702130558
Cd 13.06486967148727 9.069131678309054 15.150600482183227
Cd 14.62110831721763 11.376950043600553 16.348566345289424
Cd 13.001416830648065 13.857012284083797 17.161945446622028
