19
Energy = -6.41191012 eV
Cd 13.586787954684965 8.296423825137403 8.875660950302864
Cd 14.111599238937586 9.383057343060479 11.779817586171388
Cd 11.87042306862622 10.618116421353882 7.577646340549717
Cd 14.333314259247215 11.276052317169308 9.439236232931455
Cd 10.790173885471738 7.407077880356042 7.994160342354535
Cd 11.611086846677814 7.584351162005542 11.259047669464376
Cd 10.28867560040643 13.21846796997421 7.612128599024162
Cd 11.690886888194663 12.465780199253544 10.289514656968361
Cd 10.172130072980075 9.846226572445286 9.915905666657132
Cd 11.42568864559534 10.494134820364225 12.663634051170925
Cd 8.435463399921211 7.106057339840965 10.71669061539381
Cd 9.690479774015882 8.015482819237972 13.558187305295581
Cd 8.724981852330789 10.569820593581007 6.88431367101735
Cd 8.753821103742581 11.970471962961144 11.614909307600275
Cd 7.50916159022454 12.832881180724328 8.8365687951727
Cd 7.171433183899209 9.378225857438858 12.541891272057478
Cd 9.539110203745631 14.691244704279415 10.2417766397959
Cd 7.242551970766452 9.915143624090938 9.589601891071162
Cd 8.997802128212257 10.876555074406035 14.554880074681547
