15
Energy = -4.33372588 eV
Cd 18.321003050924375 13.48422393158673 10.693571097009663
Cd 16.684601798520873 11.724544850700724 13.05656184171047
Cd 14.153259989228605 10.70469578531547 14.456941414776415
Cd 14.69945122657614 9.827568935693437 11.485429819216511
Cd 16.04585954068521 14.745423574180451 13.04057403751747
Cd 15.182699229386271 12.87108304419375 10.531227290636751
Cd 13.391158708211217 13.88237305089134 14.505000112863184
Cd 13.065087614404325 14.856810929870845 11.65709561598122
Cd 11.254152246497268 11.59194863423654 15.127169946805791
Cd 12.310502173671209 11.86457988362713 12.124240205788182
Cd 10.028830485782017 14.223305680736242 11.433457445691433
Cd 11.110990044391265 14.482860831474413 16.480401796026207
Cd 11.059881545515795 16.052086668654464 13.782952101015459
Cd 9.342068913286761 11.34881800104237 12.482611775766468
Cd 8.997596981430346 13.725434015190098 14.405968472684037
