14
Energy = -3.88765933 eV
Cd 10.881458269709873 10.42672623860102 11.768474321257576
Cd 7.7090701459093145 10.864746071979779 11.188217978525145
Cd 9.69058376662256 13.261328881222239 11.255632466423403
Cd 8.428198159187838 7.982978017754684 11.77554230864511
Cd 7.60819234898748 13.032877595602153 8.960114608151732
Cd 9.681565271557789 11.888076862535012 7.024672281159071
Cd 11.746026608291857 12.179161226760739 9.30715999652171
Cd 11.612217066493882 7.408797556021539 12.027642023353573
Cd 9.522031013353686 9.314431356534067 9.1209990707184
Cd 7.962555786854332 6.803085260309949 8.272705927025921
Cd 9.680092795687928 5.440320236245761 10.529361563167331
Cd 7.0372391615532806 10.288835641457732 7.769108526920862
Cd 11.99145050447996 9.70408444588624 7.561830217076293
Cd 11.986661041310215 6.941892098750774 8.975880651053338
