15
Energy = -4.07609191 eV
Cd 13.770641162766132 11.919350357508282 8.004750093636932
Cd 7.8095532284767115 12.351383031988803 8.209277804837098
Cd 10.765141799579734 11.423367245393703 8.093504638771591
Cd 13.093656401296922 11.558116123467045 11.011121389955623
Cd 12.832632017273006 14.41859028410115 9.877922972454808
Cd 9.734219842493985 13.717751264825111 10.129018474619443
Cd 8.976480523623426 10.599111637447537 10.5012767194382
Cd 13.187187806883735 9.006258716973365 12.601518072441618
Cd 11.436820620031742 13.866425071150037 12.683238514498422
Cd 10.686061052092064 10.805877482723877 12.97995214245251
Cd 12.878047128086589 10.540351601754349 15.449995450752194
Cd 15.16485616819807 11.48371294488168 13.375578628468737
Cd 10.463708217835539 12.761662057677109 15.419796375933231
Cd 13.496342779687296 13.655417536895422 14.989241011414318
Cd 15.550972678431352 11.73894606996909 16.520129137081685
