19
Energy = -6.15751848 eV
Cd 9.548869922695662 6.51822818675885 11.717349509703734
Cd 10.906649941739069 6.269965528698608 8.83973222064234
Cd 10.98123638424768 12.293103721783725 12.65535476178387
Cd 12.553711939531592 7.561494088631893 11.080026841772384
Cd 7.82084752455004 7.830642436677239 14.149275275886831
Cd 8.048015023823545 10.942066022676366 13.231671892836227
Cd 10.58917658805822 9.245852782009472 12.737835413739273
Cd 8.51796066683098 13.467268092755813 11.29511003558484
Cd 7.898660254575178 6.5367582209359645 9.10052852802783
Cd 6.24808315790312 11.529104788163322 10.782032288741581
Cd 12.712009080420218 8.658894404017683 8.056465035856148
Cd 8.23306102401773 9.242601083237956 10.439193939127435
Cd 9.58938829852989 8.90340060399099 7.704192832432647
Cd 11.267741884388174 10.369579338287748 10.084892186007425
Cd 11.127890226987656 13.3536308594397 9.605058586355783
Cd 13.145693419952371 11.89122762654468 7.511840755712375
Cd 8.650627900885166 11.694591075286395 8.67058965020253
Cd 11.474705973873567 10.150480873379584 5.589574188517804
Cd 10.425992183354932 12.920779584574404 6.4954080974883075
