18
Energy = -5.57327256 eV
Cd 13.05597160188184 12.48243164066456 12.151893907297024
Cd 13.989586230458217 9.814789727771263 11.006550544920243
Cd 11.068178921908178 12.584050720470625 7.484894587575936
Cd 11.437621026650435 14.174170165408338 13.954105990894938
Cd 12.038565010791096 9.876964142272536 13.460295185834271
Cd 11.098481295851125 11.2168835269824 10.157895500987916
Cd 13.922766558582522 7.567317135746356 9.063252571854012
Cd 12.337117922031275 9.72358553734029 7.78670695305751
Cd 7.949603911666989 12.572017530492285 7.573139055006695
Cd 9.38209892485581 11.891636480609554 13.99564055816036
Cd 9.763114976309403 13.78919767019283 11.46504988588309
Cd 11.80590586633037 7.282934288550179 11.149724911877955
Cd 9.523555144335539 10.023477278498163 6.672059404174254
Cd 9.587039059688255 8.192532238933728 9.161621163234116
Cd 7.983929714865379 11.581099460064133 10.410920181212871
Cd 9.506664169801669 8.99566740184896 14.884141094092163
Cd 6.932008452513394 9.63080710186641 8.447468523340863
Cd 9.348306633116453 9.330953373925055 11.905155402233724
