12
Energy = -3.23735188 eV
Cd 10.499328121126055 13.431274847273194 13.173413397914274
Cd 8.377295987639064 11.604222534948368 11.84722763815432
Cd 11.847658732126078 10.97255286402959 14.822836120145544
Cd 11.385055447373688 10.514455278276316 11.725276472842529
Cd 13.877082574662284 11.804361516929617 10.08294481633581
Cd 13.319357837412369 8.414551477870937 12.917281457361995
Cd 11.533206844501562 16.441193196139515 12.912055054747249
Cd 13.474538846744913 14.341349659139912 11.725563977530662
Cd 10.982995728849074 13.053497721847318 10.087648073160452
Cd 13.00547506330937 13.884381201918028 14.821403660086887
Cd 16.48325435343455 13.251660333399705 11.851470942436643
Cd 14.35366082409036 11.425409729497387 13.172113084450658
