11
Energy = -2.67073735 eV
Cd 13.495890512342413 13.675186612011144 12.405092187354766
Cd 13.043333262887916 11.167836670203434 10.64030818894775
Cd 14.642889296971397 10.710312765014317 13.290333227734317
Cd 11.298644440162507 15.025712613884568 10.58720621179734
Cd 10.809592972120951 10.93655318615205 8.677019524031556
Cd 10.938948780625992 13.839670114325095 7.827925971773844
Cd 12.12528284272617 8.86599710656522 13.976037441167213
Cd 10.900412797517943 9.030506152157967 11.161359004933583
Cd 12.25227930551472 11.816693387881093 14.928544669780484
Cd 10.582634379172337 14.057172789243326 13.487133064894701
Cd 9.923559877080974 11.886516262020203 11.498532144988838
