14
Energy = -3.62788396 eV
Cd 14.15676360272691 11.879921579232091 11.010074180778226
Cd 13.912907884069908 9.31074591494266 13.168613242594061
Cd 15.367542940901671 12.05048140823251 13.811066881460043
Cd 12.617084030343648 9.934500698911393 9.054925047512258
Cd 11.691490079723907 13.56751227677595 10.640015071655263
Cd 10.716958304581174 15.199700072014581 8.359705666732143
Cd 11.163357398465534 7.899549399757887 13.27557572249067
Cd 10.960952523513338 12.184709006698345 7.690683711876828
Cd 8.583174805122034 13.240688948974679 9.444124036344807
Cd 11.480639946365356 10.417106328225385 15.038055979151501
Cd 11.204997566117678 10.555218852442986 11.739075604975536
Cd 10.819222368534223 13.34598660429717 13.510123180499985
Cd 13.071139331704863 13.089448511007587 15.554567745701945
Cd 8.411316407602488 11.796428455170851 12.194735245902885
