18
Energy = -5.70749655 eV
Cd 13.86811357270895 10.328011854475784 10.560635453697028
Cd 13.477557711842982 8.377449823479704 8.234845645375675
Cd 13.478615410486599 12.446361262633113 12.72646931008875
Cd 12.431372804355686 11.153760590021147 7.770361133595469
Cd 11.477564910220377 8.231694423534842 10.496446447738112
Cd 10.007063710890053 10.372912632604754 5.760823754300776
Cd 11.518026647414034 10.22465301161095 12.997135596094514
Cd 10.033355922932738 7.584150816551287 13.122646137549369
Cd 11.942647667623413 13.180270346298418 10.257624796844867
Cd 9.895078600869951 10.845410897060116 10.33616316375417
Cd 9.598305074998226 8.583094764364729 8.106641816759359
Cd 9.898424624578444 12.696008226867313 7.9449299238002045
Cd 8.876378439382291 6.54740676460934 10.301375939298989
Cd 8.398068035575644 10.277031548870676 12.907560823134332
Cd 7.216993109799745 9.158406988113322 9.91556475686502
Cd 6.987120335142579 12.02010212686435 10.911316955435115
Cd 7.056894105366895 7.569756338681231 12.528917833258124
Cd 7.0973067197682616 13.662404987316087 8.379427916367591
