19
Energy = -5.9992838 eV
Cd 13.390873576028058 9.049905222193864 8.56967286758691
Cd 11.780048583777857 9.102457802136222 11.384903532104385
Cd 12.809867216080978 11.737031234919208 9.726677194824214
Cd 13.305446472049782 11.437589349168686 12.792882337786281
Cd 12.667567825209417 7.514178624837645 6.059554373218198
Cd 10.301982652671768 11.298680674864315 13.345857778150895
Cd 10.266475811601842 13.407171650503036 8.847567279165464
Cd 11.408513611240874 13.65170126075768 11.696745015134866
Cd 10.2729288060777 10.29662939786284 9.020584310320675
Cd 7.244970560340894 12.761933967036766 8.088804699534787
Cd 7.5067348040064426 12.63691463497105 14.025668694413692
Cd 8.462566353409928 12.234390482445527 11.000989933076431
Cd 11.561371489639829 6.5755975490399665 8.857676720878263
Cd 7.396607633433762 9.739427673763267 7.970045871496997
Cd 8.696326377517241 9.289620038981848 11.790105803815107
Cd 10.331506601620832 6.372775671857446 11.592583990862668
Cd 9.86827634954121 8.419568502452472 6.708644235176449
Cd 8.440979813063016 7.2267752577589315 9.312371502178953
Cd 5.906790605090114 8.987451182458642 10.607376140879856
