19
Energy = -5.79314908 eV
Cd 13.765818751388883 12.651496412044974 10.02586382519928
Cd 14.684862904474544 15.637101879374013 10.055311435466553
Cd 11.6982771712353 14.934726250660695 10.067013834712707
Cd 13.002667284002293 11.69269636837564 12.999761257474324
Cd 15.032392194078325 14.031808240448457 12.568692305207614
Cd 12.995755953212882 16.401891218980513 12.647249551205883
Cd 10.846364323270214 11.906478144342708 10.801403893202323
Cd 9.99143971176399 16.70599764198952 11.871641931923314
Cd 10.908914164182407 14.034237585681742 13.069815573652798
Cd 17.09597756127924 14.240152290097203 14.828963915141356
Cd 15.157211192778922 16.72954284366086 14.908689921006333
Cd 13.094815264020204 14.20341879736372 15.164309544140231
Cd 19.59675771316405 14.396093921834602 16.780925465745252
Cd 15.23283794261045 11.689321781384786 15.215859824063903
Cd 13.993434447769266 15.908030281215918 17.655863551632514
Cd 17.06473581720957 16.05478040385569 17.351987409649645
Cd 14.049382647196223 12.768375142451061 17.853804275776277
Cd 17.129511018568724 12.709974071915843 17.527240316584106
Cd 15.841363190598795 14.48639597712551 19.78812142102001
