15
Energy = -4.35952653 eV
Cd 11.27756754096127 10.065520432820946 7.746805049232286
Cd 13.822585707722805 11.673985558212488 8.418010016555373
Cd 10.224485402020859 8.52374386602177 10.24745331851234
Cd 8.470051743985918 11.038134476962005 9.561522899503016
Cd 11.200805552394202 12.533462335252274 9.736042812131792
Cd 13.500547964017095 8.817541016384121 9.494763663243043
Cd 8.635931044348917 14.135305785706915 10.479472981896643
Cd 13.555347917787161 11.53658988361987 11.563594323678405
Cd 15.670160066447153 9.345023527523747 11.786640007470924
Cd 10.677604400051365 10.634968393841447 12.34855137711664
Cd 7.50274765207401 11.71827088681975 12.396877643902023
Cd 12.663387624096796 8.355714421315247 12.379291366855266
Cd 11.790271050383277 13.738606932754097 12.481932298896659
Cd 9.064700354743868 14.015298953779336 13.737801721520924
Cd 9.320601856684645 11.244629406706217 14.998036397204599
