15
Energy = -3.62760834 eV
Cd 12.261582784962112 10.711946424846433 15.164815583808247
Cd 10.252241766288263 11.120244920962378 13.064651862310635
Cd 9.954120303511584 14.050435137941527 12.167404554686588
Cd 11.028905425035841 15.845941560783597 14.264056652719052
Cd 12.847017025880211 13.641958270246732 15.02114054920645
Cd 15.092106131753615 9.426533698077176 15.783801630269028
Cd 12.854705748196512 7.5128067490043 14.492157817646497
Cd 15.430641015402776 8.526512113433506 12.820479287353754
Cd 12.64080579853093 9.74938814496504 12.021895233671456
Cd 12.613017486540832 18.018701386485603 12.909782556829924
Cd 14.78866749921613 13.763176370915659 12.79268580099662
Cd 11.557705608395935 14.494336666367648 9.714231251128155
Cd 13.32689902104245 12.33436783729742 10.649681124527753
Cd 12.927663298982345 17.148212981433876 9.986190336322949
Cd 15.235388833550836 16.63341091650032 11.996709756436847
