18
Energy = -5.64708564 eV
Cd 9.755152164250253 8.799494299502847 13.312686803215506
Cd 13.230216114076558 10.133920339339358 13.041160013665266
Cd 10.940316419470074 11.320365241204295 14.57561821247483
Cd 10.937219267388652 7.087363304742424 10.812335224146956
Cd 8.032868649602062 7.598678033825697 11.092399165019351
Cd 13.448470772815208 8.80590851874885 10.381588606420035
Cd 8.692855840562872 11.952427975705223 12.642258329329083
Cd 6.87127698322819 10.422310036487609 10.752483381502092
Cd 10.634913640262113 10.504950259578957 10.561159328202294
Cd 8.316578310810646 8.999612820722902 8.298951802291855
Cd 12.864717636339572 6.315170450904052 8.568966432521412
Cd 11.622972401852316 13.446724495674982 12.471790618535003
Cd 13.444459354570187 11.907666645892752 10.17766242786357
Cd 8.092498640442816 12.933717178961867 9.711848431589809
Cd 11.358930375877245 8.794978236242484 7.889967051993522
Cd 11.081935841873426 13.770958177373764 9.54024190684618
Cd 10.058617346286695 11.454288083519877 7.523854397729244
Cd 9.12509443394386 14.260560095225111 7.154122060306893
