18
Energy = -5.70101164 eV
Cd 11.11934942305413 14.137753176861953 11.471229812930448
Cd 12.6887773555742 12.255094336295075 13.05805449924226
Cd 9.888732833183903 15.780796811652571 9.309773235097424
Cd 10.180535153062785 13.122676477878269 7.977046905955828
Cd 13.525996860327618 9.192006292296075 11.771739749924338
Cd 14.095226560396073 10.080396140368014 14.514390019827328
Cd 8.012809109014858 13.619759149229752 10.457768162973178
Cd 11.736502164742072 11.240762446030358 10.131095173740606
Cd 9.463671737475757 11.728748854153345 12.585393473209146
Cd 11.116126821840789 9.630065115637402 14.504308857065041
Cd 11.00523529540974 10.462230760956862 7.127212271599806
Cd 8.530265651162988 10.73394977866488 9.240401949616562
Cd 8.31098344674299 9.122588591563078 13.575070367980658
Cd 12.533960953179214 8.234249805592343 9.192910675044597
Cd 10.451929675152547 8.488621245370565 11.475644420925002
Cd 11.858885515685655 7.735826349885139 6.352887787355844
Cd 9.446843164924065 7.716073865584728 8.256455908063439
Cd 7.497233729217569 8.18146625212671 10.461682179595165
