12
Energy = -3.07012888 eV
Cd 10.214154222581795 11.839847239519731 14.504229168135847
Cd 13.50029077433175 11.838590416654052 13.9133700549995
Cd 8.512951380640086 10.281606684306587 12.115029987678417
Cd 8.518178593775955 13.409272376790693 12.11403718024604
Cd 11.548070834713922 14.12799132639424 12.864730420769217
Cd 16.45782938213348 11.841067952629315 11.435808603624057
Cd 14.030931998182325 13.619618010644736 11.03374448397036
Cd 14.033112973392639 10.060369144123579 11.03567103201669
Cd 11.222667084972498 11.840778294660772 10.569529501245079
Cd 11.26107859761051 8.968388910012822 9.81960230364101
Cd 11.251752404933493 14.711352294971231 9.829752906367384
Cd 11.541866560914103 9.554326491372095 12.857054831592267
