10
Energy = -1.57974172 eV
Cd 11.127362844666042 9.97740010948331 6.803409846785591
Cd 10.026439520159444 8.371973904486454 9.68499102880859
Cd 13.207101667809857 8.71276010427366 9.857843788657338
Cd 7.91862164093544 10.484526407097306 7.452129760091786
Cd 9.776475639227062 11.452131858753033 10.284827513050118
Cd 13.681730840675987 12.65695331767178 10.082320263183956
Cd 7.726319224391343 12.953419051203959 12.695294119493154
Cd 13.024255700910611 9.861298196636158 13.087961789686167
Cd 11.102784187405332 12.851161945439813 14.133512633522997
Cd 9.661904748018916 9.93137111915514 13.170705270920488
