17
Energy = -5.16653186 eV
Cd 5.872240148535946 9.705533079823201 8.798400638514488
Cd 10.588902031139419 7.025173008473303 7.994593619801274
Cd 7.647898430187153 7.292988635313523 7.77589397136793
Cd 8.768300579082222 10.000453057865288 6.7912012688152315
Cd 6.060810069185018 6.92763715802272 10.290123941554196
Cd 7.598424530369806 12.235802410774221 8.582895299895384
Cd 10.82619264196615 12.268415573731819 7.347986992428727
Cd 12.618041811805991 9.984998077710278 8.462480343647785
Cd 9.818815497967444 9.41600517192277 9.641173786527123
Cd 7.3089750040828445 9.36538042641724 11.492870993954961
Cd 9.164416617809842 11.860903346341841 11.40917166990591
Cd 12.790271172958454 7.30525569119439 9.983662466854964
Cd 9.796639560446392 14.205178543038844 9.5532946262311
Cd 9.974898431710457 9.141145464326403 12.709268608381326
Cd 12.167150587281995 12.372930565358716 10.41237593419743
Cd 11.993224015458104 6.987377155493725 12.839915626764553
Cd 12.955316334126067 9.84721872394109 11.912665580742654
