17
Energy = -5.41683221 eV
Cd 12.96700473815159 12.704245835438506 10.975733582990161
Cd 11.151126310422418 14.667985098657573 9.79281199935478
Cd 10.187057136612468 12.160696287718592 12.476351114345714
Cd 12.59031719896935 10.7418403557136 8.579485695394519
Cd 8.465635360840164 13.320092249448676 10.164271484413803
Cd 10.298471203050742 12.685897396567013 7.6675463413090625
Cd 11.867363726921655 9.878888187717575 11.368409881889503
Cd 13.399361772686433 7.884521107081882 9.56229611107513
Cd 7.247180740327272 11.174891254984075 11.867778207752705
Cd 11.665301215856463 7.193175766903456 7.27522453015066
Cd 10.566996518689654 7.205670468463785 10.79743469976019
Cd 10.311313791852399 9.85114233541076 6.692740850270282
Cd 7.131271757495483 8.899924571931441 13.81730252767725
Cd 9.185842559415486 10.388616712022946 9.529661297681788
Cd 8.806775138376416 7.595791231743526 8.285552812328907
Cd 10.037628556277012 8.98358233847438 13.56622649352466
Cd 7.501641525601378 8.043328053268452 10.961461621627684
