13
Energy = -3.65141938 eV
Cd 13.87816856299798 9.503703599228306 10.982120724846906
Cd 12.792643942623384 9.271184881518227 13.81881868150374
Cd 15.359856126349692 10.961347353541116 13.298470997392078
Cd 10.588669421639938 11.17543297698871 14.792913455352023
Cd 11.190706732975372 10.92625182878183 11.70207803645223
Cd 13.427958142140785 12.350347495796024 15.281506272800655
Cd 11.464695640876561 13.623803168937291 13.28262073124968
Cd 11.22719965822092 13.700099581241558 10.211257217299377
Cd 13.83580509811052 12.703079499103282 11.25980802413991
Cd 15.3223071875078 13.99128647983487 13.589027797179705
Cd 12.150481842228762 16.34044308833815 14.803189848889353
Cd 14.734505518582834 16.91575938766183 13.1684254005727
Cd 12.155675449408312 16.430617303537446 11.543176058257842
