19
Energy = -6.25888652 eV
Cd 13.39701693024232 12.867485004748856 9.462010835746469
Cd 12.28604164191751 15.406036303279043 11.168780157343322
Cd 15.238189649808326 15.21645698942076 10.32439305265621
Cd 14.34683141641044 10.899423442969702 12.00294078877896
Cd 16.280992036952707 12.29620637033498 10.006524345376231
Cd 11.317383200206354 12.265340268676551 11.40577681043639
Cd 14.687778664339595 16.215764742622056 13.146981506872946
Cd 13.36879379809609 13.442124079002795 13.343121817300231
Cd 16.366612137254343 13.53181063691476 12.747175980875069
Cd 9.496098767087044 14.790714721155387 12.27815235988981
Cd 11.158461471360106 16.257875237191097 14.256822800747958
Cd 11.406961195471212 10.280342282539294 13.609934858376967
Cd 13.96332764284625 9.165660784091829 14.721009503996198
Cd 13.088507110394596 14.457880035449271 16.141406700968375
Cd 10.362283242030275 13.126010299992618 14.761080610822022
Cd 13.611203166706474 17.383267285810188 15.714687856467222
Cd 15.53522864751038 11.725578203191219 14.905005656351738
Cd 12.599353605580964 11.50246039236185 16.24566202706541
Cd 15.34222730134939 13.022854545810784 17.611823955492248
