13
Energy = -3.62275432 eV
Cd 12.58257338588274 16.077079846717044 13.262837145445197
Cd 11.30222502709044 14.566885816830641 15.680395826066487
Cd 9.889322185203557 14.695847695220403 12.945140117637008
Cd 13.46466492024791 13.08491556467633 14.12352478377241
Cd 14.64107945765901 14.445705804449341 11.447025678536102
Cd 10.808151412595643 11.394630424969254 13.298733022168054
Cd 13.185792725813208 10.121221662919023 14.624276109485193
Cd 14.596146608474124 11.405166139089742 11.79891729247631
Cd 12.10422274151168 13.07167106460456 10.670822365331516
Cd 9.259265279125124 12.390000892258065 10.97651760692525
Cd 13.103523025880849 8.535993280900172 11.903768241276937
Cd 11.010058734666268 9.964909965510007 10.155289036960696
Cd 13.933004479400957 9.880649745643284 9.251240831395641
