12
Energy = -3.13716865 eV
Cd 10.412214818249511 7.842878292105808 12.587834343493533
Cd 9.122161250336774 9.92602183361025 10.846628096899689
Cd 11.374262346240362 10.036827702049358 14.766913287968029
Cd 10.410688793930232 12.100340818960165 12.50118996787452
Cd 13.22874027608732 9.034865271029815 12.474758091699105
Cd 11.736879033050313 10.911933749937365 9.595272478833113
Cd 13.338943933527617 12.126864105654882 13.269906717113
Cd 9.330963806042359 12.799927829797072 9.776583076335097
Cd 14.582117489433541 10.997126115587106 10.47247717798213
Cd 11.812922380058298 14.944759429171466 12.989496649101005
Cd 10.99534313563996 15.301971440714304 9.885846352726066
Cd 13.629852640507922 13.954132947004705 10.672759103298896
