12
Energy = -3.10420769 eV
Cd 14.137803532105455 12.931322385581842 10.686394222820306
Cd 13.723094329825143 12.735032777983191 13.749618828860184
Cd 13.478865941548404 11.899686881108405 7.749018596829259
Cd 10.818955750436386 8.900208049721243 11.305777357167502
Cd 8.749244489585502 13.291021582075855 11.211553063613653
Cd 11.155691644131984 11.903417161380984 9.809672305722719
Cd 13.572614932281892 9.807145660340435 10.049245363491961
Cd 10.46410088537193 11.46337447827408 13.006571657167441
Cd 11.607735863184185 14.274958804504832 11.960902090253784
Cd 9.638495981015884 14.239574405894594 14.771181559396958
Cd 13.142493462659457 9.795192786285536 13.189939243601561
Cd 11.528273373382614 11.700404545235191 15.928534670259447
