13
Energy = -3.47189694 eV
Cd 12.877006698961873 16.20552371421184 15.475837484520587
Cd 12.46835697139715 9.922646198258088 14.071688159118692
Cd 13.107236504363016 11.892661124660286 11.757418482682992
Cd 10.954904382351005 17.167148118942194 13.257670936709806
Cd 14.334207078868044 10.464175390475852 16.53424064628469
Cd 14.008108838917183 17.59779840107378 12.929221557396513
Cd 15.661475378948543 14.882575192256587 15.892945326391361
Cd 16.760128354827334 16.264920004701942 13.208336222929775
Cd 14.931812196165527 15.483835405476865 10.780247282766311
Cd 13.150407462601288 13.180740003867763 15.396433669940427
Cd 11.213195918049701 11.123409123044281 16.635298781974605
Cd 12.410641280563869 14.640417548263862 12.571589580811972
Cd 15.34040141975558 13.425356741055381 13.105497183626172
