18
Energy = -5.34600428 eV
Cd 13.298033386990184 12.145146123948257 12.041288211461076
Cd 13.630547287496523 17.89675832875165 13.686812633390657
Cd 10.818473796180276 12.393703074099552 15.485991621975561
Cd 18.795470452817383 13.311612871698381 11.3518286629544
Cd 16.196248707761384 12.916950512828087 13.098634342052183
Cd 19.113113750468216 14.451011653513923 14.22099896661386
Cd 13.918309219736196 14.942998374874524 13.021557724786193
Cd 11.142671037952429 10.44158726353425 13.24933967478348
Cd 13.858190394176004 12.705102111258482 15.21242247762047
Cd 16.551354292206067 16.409589823062216 13.796661965809196
Cd 9.063758378066968 14.68067717306142 14.413322372052857
Cd 16.538722525198903 14.27606838498026 16.08711467202415
Cd 18.83416934508781 11.354075496102784 13.883990084400102
Cd 11.090375682872754 16.16030952741464 12.71010980542829
Cd 14.751860323983276 16.909047199071384 16.314933477648427
Cd 13.969581907480837 14.408357810949763 17.795927945816956
Cd 11.948673707825074 15.284972244653636 15.70177739996148
Cd 10.434513637585585 13.266099211414767 11.88135611944034
