16
Energy = -4.80247935 eV
Cd 11.826153787197477 11.48658034909327 7.49230127188493
Cd 8.786693596049371 10.579476598925128 7.222001661845361
Cd 9.719000724297349 13.639824319687262 8.308404711436363
Cd 12.442256899028433 13.615788410497187 9.645925609632178
Cd 8.686184022255295 9.803613214125166 10.408703651442602
Cd 10.831852641487549 8.67886012674364 8.51637329763676
Cd 11.874442941752012 10.772903840258875 10.519467234025315
Cd 7.28582956311948 12.252772495182583 9.358838101533918
Cd 12.940298612833647 13.819759110414282 12.713673398070924
Cd 9.513814058728304 12.669904605494155 11.484179064185648
Cd 12.664920339644317 7.795667441193366 10.974078974413779
Cd 9.672089966914744 7.05049365285776 11.484837098815305
Cd 8.868648499834173 9.683479696065053 13.368781053939005
Cd 13.912255783901728 10.175233072172325 12.722185115927045
Cd 11.267800377536613 11.512339932223881 13.841930241513467
Cd 11.56386230691339 8.319407256560064 13.794423635190958
