11
Energy = -2.64213214 eV
Cd 13.566938556270324 12.70595743573126 9.7945706739697
Cd 11.42752179707257 10.520798965078805 14.342114121959856
Cd 12.433848790144483 13.134252591197896 12.680308160505415
Cd 14.32443356847394 10.597150558644584 12.387651773921052
Cd 10.608252511286121 14.262219012267044 10.28505016818594
Cd 12.829803082808526 9.472868990889975 9.747048260962467
Cd 9.817507220986647 8.292155093761895 8.67698115971996
Cd 9.245454713625211 12.589752853476146 13.02819020770236
Cd 8.288227175948615 9.632654765118026 14.106181263819638
Cd 10.75408278913144 11.542118864208778 8.51836852033094
Cd 10.320936599965307 10.238079981211515 11.240357921042113
