13
Energy = -3.44009857 eV
Cd 15.135424760317736 12.93466175861796 11.870006540930447
Cd 13.683956822625408 14.224495463930348 14.270104095654904
Cd 13.569081621075718 12.685150653217956 9.225150441033904
Cd 13.014703724379201 10.104889913742683 10.902234228498537
Cd 13.739668230419358 10.975485644119408 13.840502393022968
Cd 12.555223628016053 14.928763535478224 11.261319607431965
Cd 10.914183897723511 10.014690591144676 13.160609582601456
Cd 11.43830612617283 9.977023808354975 8.230557519382831
Cd 10.77646683169015 12.377785808660418 10.38336664507197
Cd 10.994111019265112 13.034400962131748 13.395847774654541
Cd 8.314512340831701 8.437694278289355 12.54471727493645
Cd 8.768773556538482 9.7490514923188 9.793577428114967
Cd 8.192078749186326 11.67899898830121 12.23810688922803
