18
Energy = -5.75779975 eV
Cd 13.137139200750129 9.646820952036268 10.542006929667675
Cd 11.998290973425524 11.562448915735349 12.533933714139197
Cd 12.690791660023441 12.589153031308335 9.604979791491695
Cd 11.546572796045876 10.675999397466795 7.299254185158273
Cd 11.331959824191657 7.522804987873568 11.821966651850968
Cd 11.918678635234775 7.677788379515682 8.614664136016126
Cd 9.351037329544015 12.604831321836686 11.310730139537883
Cd 9.36293564459067 10.469307662253673 13.543403701485309
Cd 9.967506178876487 13.167313501375334 8.352091859934315
Cd 10.010366259989398 9.905739421710077 9.882295620245788
Cd 8.52219714120518 7.630971613073152 12.869786732051802
Cd 8.418947653172603 11.087434331814933 6.5653882450039065
Cd 9.251209555788158 8.206803105447879 7.099903338636525
Cd 7.20043754188183 10.033932465318516 11.319738936869202
Cd 8.443156901032125 7.099494197439632 9.91576920979515
Cd 7.125030110471323 12.310773141254854 9.17226998173467
Cd 10.058484250145542 5.32612800073152 8.113825782644753
Cd 6.613982555500009 9.266808152221138 8.42273850657064
