10
Energy = -2.35804873 eV
Cd 7.971549961345455 11.398028055522218 9.501346553570803
Cd 10.897556195535376 12.262509821281757 8.839509113778158
Cd 13.749608614100255 13.6417764841862 9.356672934722237
Cd 10.16626496837629 9.150988711186686 9.122579363928299
Cd 13.085451184823528 10.73919196682021 10.651052859180178
Cd 8.163107205127824 8.07656407243218 11.524694017926834
Cd 11.531823164245978 8.216602860676632 11.797156458095344
Cd 11.595960192606508 13.281615771010346 11.74054029104447
Cd 9.304487199316634 10.98645020693299 12.227458843436137
Cd 11.990562076880716 10.702642812308948 13.695360326675807
