17
Energy = -4.72084006 eV
Cd 14.086419453222183 12.725647976164185 15.263964173279792
Cd 10.126537926209364 13.89543280458911 12.84632247589486
Cd 14.5749218429767 17.169635960407575 11.384447830187714
Cd 12.499693458432665 7.15903352779795 14.650568027322475
Cd 13.787225267725637 10.025726928666401 14.160658184271782
Cd 12.811780006273173 8.23017074286381 11.598361188154582
Cd 12.059459061850117 14.915100870019206 14.865826853969065
Cd 15.081860945040047 15.55319329154157 15.67480838479379
Cd 15.2115268773266 14.3184044574075 12.914429980500877
Cd 11.095868550943703 10.965903827172141 12.939338115023686
Cd 13.865625557343499 11.468510081018586 11.374907309706263
Cd 15.468218186804842 7.46185219766601 13.3016114145538
Cd 11.264650938876208 17.72656789931442 16.035156740501236
Cd 12.595698221750915 14.555080292262106 11.304520788343762
Cd 15.270800096125404 13.838097633991843 9.924469188574635
Cd 11.4988394755682 17.16010518478 12.660304619263758
Cd 13.927255882954876 18.057918722428983 14.326685826413598
