11
Energy = -2.68516116 eV
Cd 12.185114608204522 9.959329411134279 8.32044113450361
Cd 9.887628198819035 11.925854354121217 9.530122801030986
Cd 10.758563030041206 13.027851870422793 12.317943132471985
Cd 9.441448267426992 8.856844929669421 9.405976037352112
Cd 12.998923694597545 12.6206175559482 10.150451623787037
Cd 14.541082691540467 9.879328594241189 10.36651761688046
Cd 12.01484023497261 8.122089585647206 11.040118298112747
Cd 6.657139021525368 10.491743522124338 10.129087780900425
Cd 9.754206656266174 10.094241878496462 12.261813334949283
Cd 12.891831901896383 10.769709021787255 12.85679081882101
Cd 7.447825960469228 12.83099354216645 12.199341686949163
