10
Energy = -1.92069693 eV
Cd 10.551060506400987 12.337901460008784 8.56371411170143
Cd 8.70189457758796 9.365681512091427 7.915304468865846
Cd 7.179094066050126 11.68068637326493 9.558036697794538
Cd 11.80135523724481 9.854872808165384 10.085341404112258
Cd 13.034532572958026 12.898290623819543 10.683304001006883
Cd 8.76857123794632 9.344041998221849 11.446382691884427
Cd 14.788892018684997 10.306424599363988 12.375464819323126
Cd 10.17308291067365 12.15013860637723 11.832930062404767
Cd 11.635074764609667 9.430042062952984 13.230462423827808
Cd 13.193673813113664 12.459151661003697 14.136291024348857
