14
Energy = -4.0285278 eV
Cd 11.47547217162387 9.767456004942009 7.153572077814551
Cd 8.789418275158917 10.494372061112708 8.907424801148272
Cd 13.133142979097645 7.778132680068833 8.825156526368904
Cd 8.717181064542066 13.586451343166042 9.916218732872444
Cd 10.06415245528187 7.481641523412055 8.810820374770335
Cd 11.379179698961442 11.93527295089599 9.386177188578475
Cd 14.0470244092304 10.43625649431595 9.966929320930383
Cd 9.659796333268766 9.113212508860302 11.429618953730253
Cd 12.527182255116905 7.92951900721728 11.79411014553581
Cd 11.501014316602006 14.079552904918103 11.531627134067099
Cd 7.2372983764555485 11.144411721195564 11.69628629086922
Cd 11.874464945418584 11.006845146694982 12.211738794299993
Cd 9.360524205218068 10.573869739496546 14.083277751404898
Cd 8.935285943761691 13.374143343441569 12.988179337347285
