18
Energy = -5.74401425 eV
Cd 13.031351177437777 10.85637715446286 13.690000683239624
Cd 12.122209806196373 13.720429463358911 13.401511024687833
Cd 10.35792338645592 11.733091665694607 15.095869685324146
Cd 10.80762859755099 8.744697667566253 14.16698500634738
Cd 14.902900608981751 8.324255830977467 9.614419519272696
Cd 13.025310773088918 8.468802792207702 11.92233335110896
Cd 12.544867878386754 11.916853188889077 10.847665604300232
Cd 9.758960062315676 12.62799258320324 11.99585884062616
Cd 8.303822687824345 10.301905862262815 13.392312621428378
Cd 7.648509288430604 11.06040151266476 10.500901718229334
Cd 9.664907901985679 14.22354150200536 9.442563043897334
Cd 10.377850464220199 9.608296814741573 11.10896813235625
Cd 14.61607500761784 11.290115101867416 8.696634314525054
Cd 11.49321569231092 12.224286272840288 7.949926150253429
Cd 12.255601750723338 9.222221040909902 8.354951430388377
Cd 8.375653331542095 12.116664324328717 7.747133894783873
Cd 6.264797740716242 9.153470443969837 8.624923080299578
Cd 9.28760304918187 9.245785983016177 8.286231103898341
