19
Energy = -6.08302085 eV
Cd 14.587014162094588 8.817635396189997 12.476328815673243
Cd 12.756379317163427 13.785908212397471 12.226209088277988
Cd 13.021696158953295 11.02941442662529 13.871021776095873
Cd 11.686553924656815 11.236178519954324 11.01856324238524
Cd 12.367661070467193 12.03131612585953 8.1128343838971
Cd 14.149452510569386 9.93915883047867 9.757911726150546
Cd 14.133038174407034 10.148942885600023 6.398000883254617
Cd 11.96113527793911 7.883090228285799 13.530035755836419
Cd 10.74842978624204 12.944357202971078 14.420528348679786
Cd 11.758874870259234 8.849165528786623 8.221326011806507
Cd 7.874051350728291 12.721188395461345 15.568310452034058
Cd 10.083171721527812 15.193958276667068 12.219123384014221
Cd 9.797076189609005 10.205932393774368 13.318532218510862
Cd 10.419355479244354 8.161910470726106 10.903138192780977
Cd 10.190537693917303 13.619959281625036 9.668526548665113
Cd 9.42984674213443 11.558484438164342 7.466405120740084
Cd 8.124235557378624 12.896872234663514 12.511881745865216
Cd 8.777047242638943 8.700999712732164 8.362269105685993
Cd 8.676776634498356 10.817861303466957 10.4913870640757
