11
Energy = -2.9275171 eV
Cd 11.805352367640628 9.510963105296108 15.311693751200014
Cd 12.796335615037496 11.767585530450077 13.218756536404802
Cd 11.257921160233867 9.219129266691358 12.272712386294538
Cd 13.746428641280955 10.334278774000513 10.517889565178365
Cd 9.706136581754977 11.543450437426047 13.539091641378834
Cd 11.13582250845927 8.670881544177078 9.302911657083218
Cd 13.029476590868404 13.443195357207832 10.680428289624142
Cd 9.949466369223527 13.439841600989386 11.166434780315576
Cd 8.732688299805483 10.518886381493006 10.676183647422242
Cd 10.88092335623901 14.68426005051627 8.32842576133504
Cd 11.226129818398453 11.65580147813122 8.941342723455325
