18
Energy = -5.82810053 eV
Cd 12.320294930044026 10.610033725202337 6.977357805424734
Cd 10.935857152306609 8.222592182626377 8.229997450881873
Cd 8.956820887982548 6.079243802518958 9.162516648231318
Cd 14.12669053265146 11.856081338558893 8.974300189574292
Cd 9.67993726421907 7.668715425096555 11.692720433681924
Cd 11.280588092917148 9.898506850940313 10.615608883956428
Cd 11.603950499144377 13.477012007903806 8.034860445605364
Cd 7.957752526718091 8.622295971415824 7.557931347012694
Cd 14.068144632451304 10.195307063593884 11.522434013333497
Cd 9.532016960005894 11.169739663771034 8.36444706534966
Cd 12.357475330134003 12.712781395022988 11.512416411187171
Cd 12.472620569358977 10.715752735570597 14.074225367495327
Cd 6.528661915888398 10.947561241766689 9.101134544255103
Cd 9.80305777441743 9.45129946928219 14.135980318131812
Cd 9.603497066735953 13.33338803149896 10.599000823823614
Cd 6.92428922413515 8.154437148118992 10.411709408524755
Cd 8.390175759386933 10.637809754687268 11.596212885903695
Cd 9.8214848383125 12.517616387347145 13.72391994632513
