10
Energy = -2.41151817 eV
Cd 10.552991765533271 8.723013219873891 8.918490327405188
Cd 12.278375390846112 11.246163376049394 8.28737268422918
Cd 9.223198238060636 11.47051227114373 7.932866944788554
Cd 8.183058934550578 10.209916782636107 10.758972100201433
Cd 12.676883127979849 10.300640326568534 11.33351084406759
Cd 7.92191930024031 7.187168898110776 9.737518200332389
Cd 12.988608367766982 13.342623470607577 12.192353729054629
Cd 10.428048723023311 12.810364076241619 10.44356209781807
Cd 10.217458498246545 8.281632043222743 12.038245233932509
Cd 10.327023733614608 11.22553161540765 13.154673918032795
