10
Energy = -1.05015049 eV
Cd 9.012328523992593 11.171775011717356 6.895876788218393
Cd 13.655473173195695 12.6218390175184 8.055813470498638
Cd 10.659395355157015 13.878072664793207 7.689977716076622
Cd 6.786166407712421 11.272031974191574 9.283359236124065
Cd 7.176382844476773 8.251446446717246 10.44624122954526
Cd 14.17396818381837 13.438593075166393 11.1722860279886
Cd 7.997055326632706 8.898680370446804 13.539857151702236
Cd 14.821588920378474 10.466449303605073 12.359424346879155
Cd 10.968358142466037 7.56455343552871 13.67106689483273
Cd 12.55019776509499 10.237473343240875 14.687011781059795
