17
Energy = -5.26745307 eV
Cd 11.897698760920079 6.311185123397107 10.126833393155222
Cd 9.247166622252367 6.732839714644701 8.524398095048573
Cd 11.605376430197762 8.585327968437534 7.87069610511586
Cd 9.434260506746094 7.519229631479402 11.505972246664246
Cd 8.578015673542591 9.2810071196157 6.919997678453729
Cd 13.698227749400912 12.268226329863545 11.349394359362122
Cd 12.044460040334295 9.37542017011505 10.935183067930195
Cd 13.154537152923638 11.168496922715752 8.569073056402821
Cd 6.561229765297494 8.087805238035937 12.520854201121406
Cd 12.301010080820145 10.697320188348252 13.63134682220338
Cd 10.109444338944517 11.090679104486505 8.938054508281015
Cd 7.450821325301619 9.21929392452907 9.748792960968487
Cd 9.323718445629527 10.51768918215436 11.939194734583422
Cd 11.670532943661206 13.817357091041018 9.437681034183075
Cd 6.558664107551455 11.922975630965396 8.385626260531351
Cd 10.848461751404333 13.113845733165547 12.36784750385417
Cd 8.621172649329386 13.396099271262694 10.333852316398493
