13
Energy = -3.30523347 eV
Cd 11.524583511522192 10.936628667394315 8.93161703937819
Cd 8.37211585696068 13.237870083302157 9.549979629282308
Cd 13.886420930869072 9.03262191838607 9.747362200352201
Cd 11.123927248887536 14.288834318827234 10.682435743419315
Cd 10.666208372173148 8.302189521709272 10.365198381725218
Cd 13.667017522574637 12.04185861906705 10.834503809445897
Cd 8.411106586333792 16.326361403393022 10.528102042927571
Cd 13.042839253404582 6.993804127188663 12.001929421697149
Cd 12.124862922892481 11.918295668337489 13.488517347099505
Cd 9.885792203907366 11.107486333404218 11.53767510427629
Cd 8.72900976567992 13.940870577375085 12.699949363790683
Cd 11.075123738189038 8.966678538663214 13.502470040023482
Cd 14.299896798037885 9.715404934384676 12.939164588014355
