18
Energy = -5.65487639 eV
Cd 12.433999297452361 8.531577851489706 7.214626605065878
Cd 11.298656198736955 6.326090892325513 8.88610174445336
Cd 12.426819476782363 8.432849997904185 11.005709364026933
Cd 8.912514124483401 7.409255085056204 7.352824490816624
Cd 11.85473219263837 11.406152531077351 6.4905357504258765
Cd 9.489189893949035 7.122607904791651 11.191271198440768
Cd 12.434887358757653 11.231437232392976 12.27804066940116
Cd 10.090778665627866 9.802105543525244 9.453001121688407
Cd 13.10531477424678 10.928074401163112 9.183005877897557
Cd 8.958049956700677 10.574732927519921 6.725275600565733
Cd 10.991353029273547 12.961877826791222 10.122428368747284
Cd 6.80809013042862 9.313345110963116 8.48816697031353
Cd 6.69006081262686 6.930723488168535 10.336613713504997
Cd 7.5817238080922875 9.713473300063875 11.610114814555065
Cd 10.186495859409973 9.272065264825267 13.243038738784605
Cd 8.147858581950995 12.202945289746246 9.466974397814772
Cd 9.351989516718525 12.10993718878052 12.590895610341867
Cd 5.271120991651427 11.315519232091473 10.268640767120514
