16
Energy = -4.79021359 eV
Cd 11.308247041371152 9.386452217152568 7.522406301175872
Cd 8.246573275868444 9.135025556733398 8.23324404908694
Cd 13.001378124840425 12.455624654343055 8.16410492042615
Cd 9.560157832948214 11.952262599401106 7.605889218163934
Cd 10.218930852727281 7.677077572542703 10.130515822913814
Cd 7.605469462376016 11.440454930765418 10.206403997315133
Cd 12.160138490207263 9.939504054103981 10.353517900354944
Cd 12.812886549541705 14.067220478427986 11.294459791415703
Cd 7.337400441109571 8.445450420322155 11.223884686177664
Cd 14.573134662975672 11.508576085590365 11.220892491339592
Cd 10.388975921610294 12.494090042160478 10.450786251495026
Cd 9.796242324043424 10.128847567872187 12.32469584872485
Cd 10.365104910294507 13.238523243893301 13.340772579154628
Cd 13.291612700779472 12.416694284978899 13.958069477268518
Cd 12.924004643977653 9.434159309466247 13.196642193703548
Cd 10.880112385012222 10.750406601930031 15.244084090967565
