17
Energy = -5.16635122 eV
Cd 14.031806398602283 13.016802585543132 10.563295189712925
Cd 10.225042144445927 12.16272631417644 14.383564789798788
Cd 12.012098462825952 11.310748193806752 11.979583534593726
Cd 7.8820646298253205 10.095955175479393 14.479846480568238
Cd 14.393949675574621 10.145911800633504 9.829148806326453
Cd 12.387256081662803 8.113371308918461 11.28520182153271
Cd 8.32015531773822 11.9557433201119 11.96491665499881
Cd 10.368589065414108 8.974586553028566 13.229287133564231
Cd 14.276726811802531 7.120625303701708 9.192870418987914
Cd 7.343403515471247 8.634065862227954 11.763225089239038
Cd 9.843414371488153 9.585385713953116 10.075528178578192
Cd 11.897457350301378 12.05274581699697 8.696050249915332
Cd 8.869801757965487 12.983427452989456 9.11363209316602
Cd 6.804330649271016 10.630024808027244 9.55642190284992
Cd 12.093008328474312 8.817360194645806 8.005253782600356
Cd 9.88422455008983 10.480366287149756 6.987024858653673
Cd 7.188720175983148 11.742202595546326 6.7171983018506
