15
Energy = -4.69025387 eV
Cd 11.855441529934037 12.193968743131315 7.791550541470314
Cd 9.541904690551723 10.085719757519266 7.67927742991022
Cd 12.397141562376097 9.067818176957529 7.904674359035819
Cd 14.361031706380473 11.080815881673573 9.419505968371888
Cd 9.877444578917615 11.6071144982351 10.29175211727313
Cd 10.570889974132617 8.536100942733997 10.39295616445168
Cd 13.786783014967437 8.242549804558532 10.492754176205054
Cd 12.485073731146887 13.152117540132672 10.711443424002203
Cd 7.474040615457862 12.285362712555699 12.057433466019345
Cd 9.867058557178545 14.307756041089917 11.981730177691484
Cd 12.416386121971296 10.420112262895767 12.144504375910783
Cd 12.292782529147438 13.258166157857667 13.789334946757814
Cd 9.37037942056331 9.819619160750976 12.885682181356524
Cd 9.283690435080095 12.522243442399219 14.50020795883386
Cd 11.548511576963831 10.549094922278217 15.085752757479193
