13
Energy = -3.50820129 eV
Cd 9.941177043976307 13.271029264977575 14.46441248591994
Cd 11.923194082819236 12.015191017452954 16.32557487617102
Cd 11.729224961894436 14.47255916316335 12.295617969806774
Cd 10.451666666311533 14.11476536996535 9.530055563068851
Cd 10.678790691793015 9.91680579131527 14.36447911535092
Cd 10.146052147880628 11.93429287778181 11.675879343476733
Cd 12.894821817510051 13.529121648834744 7.885508527089272
Cd 10.144884078066411 8.942489140809146 11.298539031520805
Cd 14.262090365763918 12.941227045060154 12.29742015767304
Cd 11.343334377138254 10.896790042700822 8.68464525358695
Cd 12.7850560572834 10.347964050265587 11.694045698073044
Cd 14.002178466914808 10.844908663704887 14.499804210316263
Cd 14.56962544150487 11.645744438228336 9.530031361283582
