18
Energy = -5.83776935 eV
Cd 11.660791224656922 14.114448579162627 8.704326574843531
Cd 13.529659153473455 10.842833696702009 11.721460447743093
Cd 11.316255399582278 13.745636691023273 11.726267689101121
Cd 13.183598685880346 8.530595941655543 9.644550896389637
Cd 11.078368231470844 11.28883398562264 13.560059297138816
Cd 8.92571660045494 13.003590446702097 9.747093534087195
Cd 10.378147952922859 11.677249229921138 7.395930014315002
Cd 8.599158493493762 13.246684674383053 13.100313279509907
Cd 14.137386275154924 13.635619143531546 10.512107027921685
Cd 13.134708228389389 7.2425919550251985 12.386335969786103
Cd 13.332249352208102 11.370927709306267 8.566131704011344
Cd 10.737877899968522 10.686321857382987 10.474074414186083
Cd 8.102268253073436 10.169196800345167 13.700305795641546
Cd 10.409817613270809 8.436900140647369 12.76104223399298
Cd 6.780835838381682 11.558539584238119 11.29379044091702
Cd 10.70711579855288 6.833515947588971 10.16266618186733
Cd 9.837279181165739 8.73926367104524 8.018423576603977
Cd 8.208827574294581 8.93731170211204 10.585182678339365
