10
Energy = -2.47504149 eV
Cd 11.150810581742157 12.572355920214536 15.009526574402553
Cd 10.959388429011707 14.318786579136011 12.374613723721264
Cd 13.532885898578922 13.764140839011638 10.728195191305623
Cd 13.815630947401575 12.1479552290136 13.354442274406436
Cd 11.731892502311709 9.781730920445234 13.58561052235478
Cd 9.144393486075135 11.738798543150521 12.679946658270712
Cd 13.27208183282714 10.610465609538068 10.636253627032328
Cd 10.809594039028621 12.458013426822232 9.816314356550002
Cd 10.375999746814578 9.565056865604191 10.778728098256924
Cd 11.739597251143236 10.025767486319102 7.709708679993601
