15
Energy = -4.69598505 eV
Cd 7.87530886666674 9.463104266666557 8.509262933333373
Cd 8.027244866666663 11.416158266666669 12.682719933333326
Cd 10.523067866666725 8.004998266666622 8.292830933333345
Cd 9.505406866666732 8.9304032666666 11.1734639333334
Cd 10.576228866666641 11.11800526666668 8.855803933333407
Cd 12.932086866666712 9.923337266666788 7.312681933333359
Cd 11.016599866666805 11.511221266666642 11.865167933333254
Cd 13.410256866666591 7.83184926666662 9.488929933333244
Cd 11.185520866666733 6.377690266666699 10.98459093333337
Cd 6.401310866666575 11.788632266666715 9.99571593333328
Cd 12.51818086666671 8.820675266666592 12.368409933333453
Cd 6.4600488666667335 9.069117266666654 11.381159933333288
Cd 13.560870866666555 10.913372266666576 10.18805793333331
Cd 9.038019866666673 13.481465266666628 10.468974933333344
Cd 8.166546866666696 12.546670266666668 7.6289289333333805
