16
Energy = -4.87262332 eV
Cd 16.62957560884109 10.743565083047157 12.738701803792809
Cd 13.021791242192783 12.258103135953233 8.806533491737413
Cd 13.170792890038504 14.33553032220181 11.17650828391111
Cd 13.810989957403107 11.355903449440872 11.762196929246604
Cd 10.971495645772533 14.536625788864256 9.06735475586958
Cd 12.003499325337197 9.567268745549026 9.993840906215572
Cd 9.80799353558097 11.80068750377257 9.676055780208667
Cd 12.478697313601714 13.128351145839867 13.928385556369435
Cd 9.597995126845783 9.424156193961007 7.743237010309374
Cd 11.270627401536661 7.790593685557005 12.623112319236807
Cd 9.676323946647305 7.455371452173319 10.071370504901997
Cd 10.133478317172658 13.949541808278658 12.069365670367203
Cd 10.882002983865476 10.810030512294334 12.644675152305503
Cd 7.4035778899589495 9.65728008802777 9.905707610880711
Cd 8.314129374195469 8.665546719652832 12.78838389660451
Cd 7.990134616095652 11.684549540471949 12.167675503128223
