13
Energy = -3.70256116 eV
Cd 7.7804716538462495 9.717209269230779 8.479108499999997
Cd 8.16221165384611 13.935045269230695 10.276134500000001
Cd 10.671209653846212 9.100156269230775 7.880192500000063
Cd 9.40620365384611 8.468983269230755 10.692466499999908
Cd 10.091049653846087 11.537896269230743 9.733919499999871
Cd 12.696151653846245 11.515845269230692 8.141004499999996
Cd 10.285377653846158 10.469067269230782 12.809899500000107
Cd 13.547733653846072 8.786431269230759 9.205004500000063
Cd 11.507827653846176 6.535491269230868 9.47862050000002
Cd 6.100108653846113 11.587339269230894 10.190559499999972
Cd 12.243062653846104 8.123947269230749 12.027737500000004
Cd 7.65761665384602 12.008601269230661 12.78023349999999
Cd 12.760537653846047 11.123549269230697 11.214681499999998
