19
Energy = -5.92733075 eV
Cd 10.253519359040846 14.272570730931962 13.04614083436031
Cd 10.884280746051566 13.500499809136997 10.09595844600842
Cd 12.323121733430007 11.322997447199958 8.066861236031942
Cd 11.963324326651955 11.652778361947144 12.27484587498483
Cd 14.53110265110032 10.421280989999762 11.384526858864122
Cd 7.639090770600186 12.312773711008356 9.189881534900202
Cd 9.893446342584696 13.111755803194189 7.305556509173928
Cd 8.772810383539563 11.82746813808905 12.0286654644751
Cd 12.428346695775671 8.495340192546513 12.507039386511073
Cd 5.514052809868859 11.894023614567187 11.670209866757567
Cd 10.496495234084568 9.853753396342412 10.25464157674105
Cd 14.036432724349094 8.944137762449515 8.85640788500834
Cd 9.006268300669554 10.178459683618412 7.268165299662318
Cd 7.34173522428363 9.524773302552948 10.548825219175251
Cd 9.67775004254785 7.392028516314618 12.005575839968643
Cd 7.0239460738278225 6.5155589798319875 10.964306614536934
Cd 11.3633978770622 8.297945982805478 7.633964862050389
Cd 11.96708135177731 6.594135234803627 10.095373172052883
Cd 8.478921231290766 7.38620443249316 8.426031864200132
