18
Energy = -5.58967968 eV
Cd 9.438993231621065 13.55837231171693 12.406494676072366
Cd 7.063992934371291 10.664169714365956 11.828337849652304
Cd 7.895828158317454 12.827149904083363 9.654485594551323
Cd 8.392137225657113 8.015624093740074 12.808254959856827
Cd 10.044423391519889 10.633739580526095 11.367676468760317
Cd 6.175779288989554 10.471150660631043 8.728779324176084
Cd 6.219308799679231 7.92654480582692 10.62725450674088
Cd 10.544500367750697 14.457963597242655 9.57329332468886
Cd 11.565269742871255 6.966924577840284 12.973703466446066
Cd 9.243678108417965 10.28662015949488 8.314578970183987
Cd 10.038293642331114 7.762643811272096 10.223334251083573
Cd 11.92999696044271 11.803592634714354 9.151679580587787
Cd 7.862553388044373 7.539944289721568 8.108666505808714
Cd 12.710815899221569 9.326410956686338 10.913949810192904
Cd 10.750017031426085 7.80352955854465 7.09436892098137
Cd 11.293901023804207 10.961261286870736 6.152960217545149
Cd 12.759708979599235 6.712738715355596 9.244066904507058
Cd 13.330430472927068 9.342199235324989 7.809083410689465
