11
Energy = -3.02967871 eV
Cd 10.318504681818249 10.189508409091067 7.580735590908983
Cd 10.053260681818129 7.202836409091032 8.488683590909178
Cd 13.39929968181826 11.198242409090943 7.806573590909114
Cd 12.167950681818256 9.040880409090802 9.871365590909223
Cd 8.308070681818279 12.29907740909093 8.728173590909043
Cd 7.784845681818166 9.244136409090892 9.171239590908996
Cd 11.156414681818099 12.030949409090939 10.00275659090921
Cd 8.624633681818278 11.087543409090795 11.597031590909141
Cd 6.503202681818175 8.69025140909079 12.095001590908991
Cd 11.480882681818093 10.346004409090824 12.625542590909179
Cd 9.631467681818163 8.099103409090993 11.461429590908955
