10
Energy = -1.97184446 eV
Cd 13.108027073026337 13.275576801305737 11.649386593685207
Cd 12.107266910001654 11.600574345032712 14.410315759391938
Cd 10.97304539837396 14.33606857480035 9.468046187079198
Cd 10.252075074757837 11.02610052052593 11.899695839780287
Cd 11.792052582790966 8.624988286847412 13.344689727368152
Cd 12.605020999960942 8.968737946950828 10.073641999013761
Cd 13.149006843505813 11.769951708212108 9.043077387984258
Cd 9.301899933469748 10.006895154440423 14.943588084864992
Cd 8.222906041177637 12.359882141313163 9.154625510313988
Cd 10.415029889264755 10.026420845078817 7.952661321221569
