17
Energy = -5.20709329 eV
Cd 14.03610976133902 14.042213038247622 13.196885827411984
Cd 15.103136860115544 13.521271738872572 10.266015483017842
Cd 15.735032059184949 11.562387135377453 12.554958830855428
Cd 12.331955401729637 14.933406186731798 10.653305942836056
Cd 11.164004448678929 13.151637538832187 13.520604368615386
Cd 12.752845624778502 12.948562735057202 8.217308940069564
Cd 13.886729295305091 10.648106477586166 10.00187693003829
Cd 12.885270071676295 10.582660498904042 12.925510396042391
Cd 11.111236276774138 12.133690805179095 10.71472164215171
Cd 10.077752924171579 10.54778128108291 14.753910193918207
Cd 10.059603440943565 11.717294194378121 7.137287428207616
Cd 8.484274858886405 11.927765765244516 12.32388800764205
Cd 11.389861326210818 8.992897409587322 10.599271092737467
Cd 11.34865500744935 7.99911476909656 13.593009759656011
Cd 8.726301056874943 10.42709051881941 9.628308372033304
Cd 8.728506766177325 8.86769508704429 12.338695375131472
Cd 5.842270619011906 9.65997061926706 11.237987208943695
