13
Energy = -3.07669295 eV
Cd 13.267071928246091 13.960219762800241 16.978698099631213
Cd 12.98355453741063 11.34112537803338 14.915818617396404
Cd 11.093925053771326 13.701312207868908 14.813666934689929
Cd 14.349359173754397 13.765670448341021 13.9747206578515
Cd 15.279211602257101 15.538297897165045 11.635165588371326
Cd 13.28703908038143 9.021167493490132 12.903004304868508
Cd 12.288186786080301 16.69619203545611 12.676951566742572
Cd 9.442994384895432 15.278779131087303 12.971392820038288
Cd 14.261702070807038 10.11326892989297 10.027028344681975
Cd 12.613886178714829 7.442842077866082 10.163961822799918
Cd 13.49063042929422 13.095768273297317 10.723670657963655
Cd 11.12175023278566 10.035210378445514 10.761310309102402
Cd 10.530397518972718 13.070205013593208 11.229853712267483
