13
Energy = -3.68247947 eV
Cd 16.1005736243789 13.82999799894207 15.3280074248616
Cd 16.61719984052041 12.540977071886463 12.210746797058682
Cd 13.632584202271639 15.91591451433502 15.649859804727603
Cd 16.447926425342818 10.900757419942872 14.734068107088884
Cd 12.75232228569615 13.119247199198492 15.282300765704955
Cd 14.484247325155028 13.781842451230306 10.170343115816639
Cd 14.132061319155989 14.899615753476164 12.900379697199117
Cd 13.567697959888424 10.264351733273289 14.487394897615536
Cd 13.06351591294755 11.94526831151118 11.992302510262398
Cd 10.755976551403041 11.352927069829367 13.87678886148728
Cd 11.476843674357008 14.798239730291275 10.843654029465357
Cd 10.970165461941237 16.011787513239877 13.88573574946834
Cd 9.3610119777111 13.72238718498753 12.722144018669963
