15
Energy = -4.12203682 eV
Cd 14.188480827367579 11.751314926629199 8.129364258179715
Cd 11.251349167220784 10.999414638356996 7.277070587159837
Cd 9.30998842639879 8.752293948651056 7.702432244367285
Cd 11.722213416280205 12.968007213559455 9.704732709090711
Cd 12.761400478103091 10.125748165891299 10.277297991195505
Cd 9.251272280095735 10.056926584338264 10.574266422431299
Cd 10.941405044613246 7.481318876420132 9.991393266846682
Cd 9.304276103798417 13.074802112279547 11.471639170786052
Cd 11.719820279316215 8.799017660718373 12.797088515223942
Cd 11.432085841584517 14.031562038829225 13.67705113468738
Cd 13.859727852173613 13.059172335011397 11.966402477805572
Cd 9.845167515954186 11.035693179715585 13.692909125491946
Cd 8.472191047852903 13.718808820205295 14.48366534700289
Cd 13.045720190587199 11.2232681279839 14.177752345966429
Cd 14.066743374392713 14.094493217150097 15.248776249503928
