11
Energy = -2.88871171 eV
Cd 14.138259950505098 14.532618228100235 11.365597944962259
Cd 11.673601545681242 13.147311615195024 9.805995859866668
Cd 11.672218257044946 13.148001003576594 12.915314947437766
Cd 8.716748352743503 13.037787697027257 11.362088527152451
Cd 9.427864095272133 11.363946091896453 13.981354973212346
Cd 8.717594700045497 9.687942649605253 11.363564497905223
Cd 11.673826041143757 9.578697220887937 9.806891146284242
Cd 9.42659415620308 11.362228375380505 8.744063361928637
Cd 11.6726550751586 9.578671464470775 12.916445699145306
Cd 13.732493316086451 11.36277886122434 11.363255037379407
Cd 14.138907732195614 8.191428682509473 11.36619122680513
