16
Energy = -4.24917374 eV
Cd 13.334266217735248 13.067207692016956 10.57487533120908
Cd 13.562893496920449 10.085521235381767 15.416961571904352
Cd 17.49860834465608 15.93331730751923 13.163170122061208
Cd 7.506196993940051 11.439750573542948 11.460752546961304
Cd 10.316019103955385 13.067539347376048 11.073139068312964
Cd 8.892071100441411 13.067281929174724 13.824920167803915
Cd 14.444792244467079 10.980318046219429 12.605814313791015
Cd 14.444384873386703 15.154596827974268 12.605431445504173
Cd 11.485569604677037 11.380817181956655 13.605179032374778
Cd 11.485313844200077 14.754260410261004 13.605482150369557
Cd 7.506451346843793 14.695796310233845 11.461253960924354
Cd 17.499222615234665 10.203147787338116 13.163126295574754
Cd 13.865161744545055 13.067757770499886 15.118985762967085
Cd 13.563032842305239 16.04957261969893 15.416514859217619
Cd 17.168350638027743 13.068212853803747 14.506165177096818
Cd 16.510304178017385 13.06754162068998 11.48086738327955
