16
Energy = -4.84563887 eV
Cd 12.572371647264204 11.149271939674394 13.945493896012074
Cd 13.171786617829303 8.135304340220973 13.088400923951546
Cd 10.51751872102386 7.120118366579505 11.993509527445775
Cd 14.154501955124259 10.538584251517436 11.445705244869417
Cd 11.947460142151808 9.009532208375646 9.986428526121697
Cd 9.678337759839314 11.958081459814116 13.727136501758459
Cd 10.346761542031887 8.997908148853279 14.433898551151481
Cd 12.465235895601403 11.368610426314532 8.112782644375367
Cd 9.435094721422617 15.34321573485187 6.524877120733106
Cd 9.15948624605003 8.03213928239097 9.056399544801435
Cd 9.14153777704746 9.813818556227147 11.539784227361052
Cd 11.446226561610558 12.044261767302869 10.968408861215929
Cd 8.314769838071195 12.747343991478603 10.907287384530798
Cd 10.033910968108277 9.999012046083768 6.947908943460544
Cd 9.835174207863329 12.879073016654921 8.292882230996907
Cd 7.560891592035624 10.644790656735703 8.810162064289985
