19
Energy = -6.20111085 eV
Cd 10.983600309561057 12.77689823796818 6.824795113561317
Cd 9.135755101029625 10.426414116678835 6.009289244981289
Cd 11.782049729433801 9.831698919079418 7.43310910324237
Cd 12.97003238658239 12.273065328517953 9.232046035346443
Cd 14.14124724526065 11.67871126928605 12.017789766868992
Cd 13.29902841280546 9.182645561759768 9.905470928395516
Cd 13.236101437845377 6.969621621881896 11.9582186552536
Cd 9.050596449941194 8.853466320791526 8.675005434964444
Cd 10.388408867693862 13.868483509386076 9.620595748029686
Cd 8.22727377612467 11.850657354194281 8.54470749765466
Cd 12.225330145467932 9.553277183263132 13.002641850057884
Cd 10.58665588917331 10.807571896981768 10.497322880834746
Cd 6.7258151962914985 9.946380269666749 10.506638482371802
Cd 8.11770089146271 12.91724684391459 11.461536017785988
Cd 10.917310082675563 6.883066811433964 10.120328245243243
Cd 9.314301193584381 8.707038162939632 12.494787428458102
Cd 6.975350926725055 10.825440096535303 13.312382179468585
Cd 7.7078274652345415 6.953082792158195 10.703244457594653
Cd 10.027646375537081 11.50726558599269 13.492122812316568
