14
Energy = -3.51365236 eV
Cd 10.093663754414886 10.316343619115871 10.042582766392822
Cd 15.471241186409774 13.64790309105779 14.129157288562013
Cd 14.447892692509766 12.672343840812593 8.303019836766167
Cd 10.40066730544932 12.64135086533291 12.782261294605826
Cd 8.833635241739978 12.972470374118132 10.221126878971887
Cd 10.058319894370365 10.40452484270282 15.086391284377306
Cd 13.813403535676052 13.919967581334529 16.892220418394242
Cd 11.537903045671223 8.97174430675468 12.660806025421948
Cd 12.874247202807842 11.443432402960099 14.147602039048003
Cd 14.851081490235448 16.38430121219633 15.173530070196687
Cd 12.412947621769657 14.908576671623853 13.76646997490942
Cd 13.262149256602296 10.231961256592031 9.889836888990887
Cd 11.891768590416591 13.390951081300614 9.851285773998384
Cd 14.26148242906381 12.601614408643359 11.546382254244852
