15
Energy = -4.40107901 eV
Cd 11.052184955092615 13.913846227367646 7.519603409920149
Cd 12.461173647211885 11.215233886652086 8.684539472507561
Cd 13.81308973531614 13.814969824467022 9.40542210471936
Cd 14.87725572319508 11.063987666050103 10.7501852838347
Cd 12.727214242211092 15.761712960531005 11.493030195510595
Cd 10.840983553344689 13.387524563849677 10.530715224148594
Cd 11.884648314134662 10.604142353309081 11.637078830699586
Cd 9.479182073293687 8.841261802208614 12.840526495456544
Cd 15.0038254256376 13.860361215015374 12.251362576929578
Cd 14.099077395186567 11.282792428771787 13.818320870907655
Cd 11.902755553592431 13.4872200861558 13.427717956092456
Cd 9.18221986633921 12.018843603643939 12.623772111331103
Cd 9.461919232087945 10.672216175426295 15.327787491719313
Cd 12.091787586133199 9.10563824782373 14.61066164894063
Cd 12.191720577957447 12.03928683946249 16.14831420801611
