18
Energy = -5.53686341 eV
Cd 12.000644084030556 9.762179085044076 13.284627869154583
Cd 9.369357100295897 11.171456995614639 12.260621119422998
Cd 13.444181363858895 7.992409080640698 11.035098612983477
Cd 8.832588135474227 13.337913317409814 9.94990784530135
Cd 13.27379538423023 12.52931823924395 13.903883391807236
Cd 6.924584034174611 11.03395379951658 9.428257871872647
Cd 9.032122396479794 11.87287320476697 7.285692372751259
Cd 10.07118864976828 16.448122473221428 10.401887830410043
Cd 11.40064145297343 6.5241067691184425 12.677974409035121
Cd 8.651657047524902 8.795047862202797 10.534201180304304
Cd 10.216084260990307 9.135714268404982 7.861589153963674
Cd 11.576681423762826 10.255284912126791 10.184176318559109
Cd 13.945480415990449 13.877048706189203 11.179441066645577
Cd 10.864467727826188 6.84640590011533 9.728621806555667
Cd 11.045827447809174 13.683717992592607 12.093851589092191
Cd 14.293115624436725 10.880601061071767 11.306702351568289
Cd 9.243430526768272 8.391273679777164 13.49650839797865
Cd 11.812858629896558 12.99054363958497 8.990190791491447
