13
Energy = -3.49406572 eV
Cd 12.107001013390686 12.112485000906918 14.695634257495463
Cd 15.167164808688874 12.670345519023064 14.918811665315262
Cd 11.61695561420352 16.228545414898072 11.915771679174263
Cd 10.191088648143785 13.565912916105749 12.753213311874402
Cd 9.052482239707304 11.49462199042689 14.89281951722618
Cd 10.577213725995033 10.42593214249153 12.350133801568553
Cd 9.327372753578151 11.392850791206076 9.472812015814515
Cd 11.606000854603234 13.574314912531397 9.976290025289757
Cd 13.651146386908858 13.810662452835336 12.389717667281403
Cd 14.896970794882634 12.856425941011713 9.483253608169367
Cd 14.02786671630654 10.65469628134676 12.745745299755477
Cd 12.620009898332944 10.649608628579736 9.95192814173391
Cd 12.590369334946162 7.994592130530393 11.88518746509162
