21
Energy = -6.82714772 eV
Cd 15.540102451038997 13.643305079880458 13.065637467939746
Cd 15.052334276509985 13.35600474183783 10.085063550484355
Cd 14.835769511582772 10.859889539280829 11.97631290833292
Cd 14.85346148637359 8.341512502820464 10.268727815102276
Cd 13.208458637322993 15.104042459933899 11.717286010024043
Cd 12.796520174678431 12.55088789886133 13.858781309373494
Cd 11.969873340466476 10.729208536133315 16.186114474425175
Cd 12.743963479273933 9.112684301139108 13.616175286169424
Cd 13.635324029520532 10.93338805104718 9.060854461098526
Cd 11.44461255739345 17.408660930173916 11.030407483952077
Cd 12.452227635313907 6.882396613285215 11.249071273581267
Cd 9.731110356177739 12.390232010816323 14.823787266929054
Cd 10.493529674303913 13.68284989052198 12.207027409480474
Cd 11.736047538921321 11.051221063505045 11.35174614918844
Cd 11.814396633604558 13.381419305344957 9.185305871889959
Cd 10.06080157424222 8.612348515871837 11.693101131872144
Cd 9.772046065242893 9.34076037710288 14.583743951667968
Cd 9.058535339965793 15.65534391569002 10.26426330979067
Cd 8.819730935250048 12.814084769667613 9.308442210236624
Cd 8.400384912886619 11.33811719547952 12.194696755371417
Cd 8.610742548099381 9.84161545977617 9.303427061259171
