23
Energy = -7.60376607 eV
Cd 12.754848379814979 14.675706957766407 11.82184031719856
Cd 13.465137006396569 12.379802999688097 9.709024954613822
Cd 12.593241950101351 12.596093615571176 14.253674372070426
Cd 12.658618341993623 9.265868943712347 9.85258543847617
Cd 14.615502528911266 6.92250750664168 12.40979596695012
Cd 15.29477409397031 13.19027134847112 12.27476941569682
Cd 15.756224787984202 10.71633748669339 8.2847316644691
Cd 15.097816906348463 10.217010518175577 11.365744480793296
Cd 10.397407402190725 16.401594867736538 11.03542325344134
Cd 8.789914776192957 11.147793174927411 5.957443735320856
Cd 9.773678461020483 8.694092414318499 9.412896830353542
Cd 11.287577930986913 11.671792535669812 11.710877662925842
Cd 15.154709405183354 11.012526878737061 14.351435073882424
Cd 12.666768166122157 9.341224138744886 13.120416541503845
Cd 11.525124908992877 14.499360667334518 8.857252829824464
Cd 10.400377975660483 10.111170490473187 14.908080706838426
Cd 7.810390461000813 11.850615808312225 15.068758852400606
Cd 10.015990068016096 14.129782275299364 13.283809675776277
Cd 9.458058532364015 8.754634930256982 12.357489736544471
Cd 10.30210149196334 11.58308383348522 8.695077201762832
Cd 8.948997101355642 13.756333761881427 10.362484935647872
Cd 10.326627079208818 12.950321311259819 16.17892645842616
Cd 8.321675806525052 11.547637097147241 12.143023457387219
