25
Energy = -8.5088841 eV
Cd 13.408345254058874 7.6253877814138935 8.189189464295863
Cd 10.555016425926054 8.597201181226785 8.095827644987603
Cd 14.745140752215185 10.356123816995932 8.226848713297882
Cd 7.507339681138315 9.053108161049657 8.411176479037467
Cd 9.32114374145328 11.424852937610305 8.427683507098838
Cd 7.860276881461145 14.29430564732143 8.801208974239827
Cd 13.877815234439565 12.354660623191988 10.32315807964594
Cd 11.465095845371037 10.538587304374602 10.359563108108413
Cd 10.673461870261843 13.71513316649472 9.76830452481127
Cd 11.797197760171082 7.490773710709188 10.915552262529372
Cd 13.282865707481003 15.257070738112098 9.799960634251406
Cd 6.028085645507144 12.1046631356733 9.797725850317091
Cd 6.866832784325936 9.603872772364625 11.291791055882584
Cd 8.956871822078059 11.6444616631598 11.592181616116562
Cd 14.563896802377688 8.879531331725138 11.007982859803345
Cd 6.720128099338772 14.619871089043066 11.546238065957725
Cd 8.836753227252881 7.319140606663595 10.588741305508693
Cd 12.095176540816448 13.856391499217034 12.487021041709731
Cd 16.736269582649655 11.188734047334261 10.717533710878064
Cd 9.694047821581021 8.986807936539899 12.976065994488431
Cd 9.128572350766852 14.221990541013321 13.233275164787322
Cd 13.20303372341211 10.892314979474586 12.997952507568975
Cd 13.286896957804395 7.725486056373546 13.50179462522501
Cd 10.629666881047788 11.806959552234854 14.275024671898567
Cd 11.5177579607538 9.200259074371104 15.425887491243083
