20
Energy = -6.68291123 eV
Cd 13.258838424417704 13.102465020262166 11.428986649453172
Cd 11.51935924774784 13.922401394620147 8.89830577804242
Cd 11.27202848600614 8.487403317536947 9.26109036502207
Cd 11.764668120885457 11.039977448601379 7.8536171981117056
Cd 11.06500573108427 10.851738933641897 11.310623325063734
Cd 10.694828339825305 7.811462736293323 12.248768335977186
Cd 11.290682283384267 16.03775207192187 6.71829421405906
Cd 11.992769702992693 9.35572353524666 14.66034949514825
Cd 13.812427001655378 10.006446238978748 10.183465137825774
Cd 8.89680554862872 6.787983355508595 9.838078072681135
Cd 13.752843981045086 8.019439649059079 12.518140320250598
Cd 9.03495101498255 11.808259234356022 9.195666001574553
Cd 14.282633914802622 12.596777987037441 8.667902166538637
Cd 10.164658383889092 13.9335392575705 11.52857988489044
Cd 7.475019643662247 12.171297688356683 11.873910838537203
Cd 8.124345195956128 9.374561653687783 11.075370512576363
Cd 11.69543900607321 12.43273559476597 14.001482063508053
Cd 14.364860057731404 10.9562003097487 13.234841167666167
Cd 8.869557834869983 13.500530757732772 14.230900325829477
Cd 9.229133004238392 10.3641587389505 13.83248307112193
