22
Energy = -7.53638564 eV
Cd 12.763865690287655 9.676673569757428 6.9124093165742115
Cd 10.111577741650246 11.29095722527846 7.2628261550118545
Cd 12.85522959140953 12.43603587711794 8.185523811163693
Cd 10.368312895630789 8.202754602977507 8.140439030315655
Cd 7.655150804329676 9.52395772864115 7.258880730877587
Cd 13.415225710295028 9.890249561671029 9.868026632412953
Cd 7.617207167679599 12.048722815791967 9.063723229090812
Cd 10.232325604405345 14.018929948531852 8.90764127955408
Cd 13.987059510789477 6.655892308582244 9.684343749714031
Cd 10.008943807586773 10.410093870107914 10.149472880941614
Cd 7.611160565119727 7.009115169538285 8.862923966537476
Cd 7.410265419957394 14.873556434988032 9.953602624561436
Cd 6.1773563955917 9.493817935616013 9.98659231188999
Cd 8.448289322148161 8.174499620882601 11.530617018133325
Cd 11.949617783242912 12.368541870233573 11.125502695270512
Cd 11.604766249018047 4.792763643371341 11.66229339529061
Cd 11.368775248639441 7.8161162251801235 11.02615675594
Cd 7.83026012595242 11.125764483904836 12.064616476066368
Cd 12.740662895885787 9.937419587306403 12.873318673908889
Cd 9.384948182457077 13.891856891907402 11.985868297916245
Cd 10.227967878308561 8.552342422926005 13.963726431510414
Cd 10.301813268298673 11.562539592757163 13.716795195487764
