27
Energy = -9.23304447 eV
Cd 12.928303827158924 14.088702702494048 7.942989638393589
Cd 13.300480765800549 17.040043886931922 15.026165845543105
Cd 15.619473645088007 13.807446431987449 9.364740145104726
Cd 11.094971884430882 15.457812153869737 9.916593211395222
Cd 11.579166458279234 16.841335526153433 12.474682260158067
Cd 10.486203271170417 11.015984221812992 11.721139474221934
Cd 11.914714738410824 7.313178359663555 10.917785542869584
Cd 8.149776085847595 10.32182706533832 14.842736886302692
Cd 13.342409404096156 9.740815295359637 11.965197896519415
Cd 14.08527876205556 10.738633918770097 14.685370560999623
Cd 13.02980603315143 11.804628218049087 9.797641991916853
Cd 14.10198310666513 15.702925566528851 11.178840892698574
Cd 16.419788254254023 10.029484273116337 12.466513344013315
Cd 8.800700048168606 7.340745907689405 10.011486023089496
Cd 11.289670551077872 9.780460676721898 14.57063300018894
Cd 12.964065988634863 13.451178885119083 15.172483150744952
Cd 11.413731219455872 9.402159835789721 8.667546989763151
Cd 10.038221803158903 12.637194653515127 14.564503702556257
Cd 8.631755784895134 10.485579001424039 9.382936576947506
Cd 14.71202719940914 12.711936414779913 12.23379622585132
Cd 7.6970851609128115 9.390182989559449 11.99072033484297
Cd 10.569647850630075 15.470163523106413 14.963723237005423
Cd 15.288478407093589 15.062105718933918 14.050129336960993
Cd 10.13828233219678 12.93158441631947 8.693256197984896
Cd 11.729375767765902 13.679940400299055 12.24396946147434
Cd 10.913175230782638 6.379681923273295 8.034161058196478
Cd 9.813105848647984 7.425947462633327 13.171936443495653
