22
Energy = -7.31791224 eV
Cd 7.934489434716923 6.380431811233648 8.995598686266241
Cd 6.13092549650223 11.415317854782895 9.714244229498073
Cd 9.744222388054082 8.780317323881103 12.500444680469666
Cd 11.099899208492664 7.648876748664682 9.889802177835366
Cd 8.486208043870143 9.414429809588816 9.582565373657197
Cd 7.909546059011693 11.160815471021106 12.132796857295949
Cd 12.87554561023049 7.7506762647584 12.314423571213695
Cd 9.982659251343648 7.836939024012949 7.00002926467879
Cd 11.669497375378883 8.954028968708808 14.898472673144203
Cd 10.22594724662735 11.535262210357292 14.09752529109197
Cd 11.17660276166613 11.074119409622304 10.993554472232315
Cd 13.409639633173036 10.755796733600642 13.249872141622053
Cd 8.84841085317081 12.579036480738187 9.256041845733076
Cd 10.93826601120533 10.658701892332939 7.908998443997601
Cd 10.7943635590058 14.452438714548853 15.051660365155575
Cd 13.69295658218069 9.319237078434089 9.764566655428569
Cd 11.529746196660223 13.75751347052727 9.322885690008759
Cd 12.517346640932024 13.740889024723117 12.653068940101297
Cd 9.397159672989142 13.90168082665269 12.104882968750216
Cd 14.294522895569507 12.15278064567449 10.747155781712069
Cd 13.708321481829701 11.811841241610406 7.8352900191408015
Cd 13.94135255837974 15.226497955515251 10.29374883195708
