26
Energy = -7.67038926 eV
Cd 16.128359488394977 16.206662658021866 15.685426353068813
Cd 11.780801874945206 16.272650879047678 12.860317496013087
Cd 19.471555926207518 19.914861299986644 15.955284341728419
Cd 12.605087535142129 18.228083119324918 18.22422574536501
Cd 17.823961547876397 18.41960122408511 21.513099712954297
Cd 15.005407307640246 19.365206266602865 15.8764100463353
Cd 17.19623818506509 20.64966554510016 17.762176782647966
Cd 16.129751845871496 13.24222089876508 16.463602235553033
Cd 14.81386217686416 19.08311589544224 21.18668350480647
Cd 20.987085989522672 16.161457429612636 19.45239352889171
Cd 14.444349312458892 16.502920875924616 4.591939982253598
Cd 13.836366487166357 15.408636404965005 18.258434332748504
Cd 18.000076488817275 15.558856348570558 18.42780619970337
Cd 19.111025164593258 18.393852580121642 18.739387537723754
Cd 21.51307879811119 13.148627746816269 19.046193460741616
Cd 20.63548962228379 14.301246800826032 16.326968611030782
Cd 13.170678903299928 16.695345411183762 15.604978248905546
Cd 19.188121801320126 16.902972588773103 15.922448739519897
Cd 14.369353070200699 20.602617463413306 18.627196247553808
Cd 15.915535789578962 13.51982778344042 19.50756829716203
Cd 15.568941946752483 16.134362933160208 20.950450378926423
Cd 16.057241235934345 17.824252545762164 18.359463319043673
Cd 15.534928898906688 17.468103712160307 1.3736987537116685
Cd 18.70147036680425 12.436972030923929 18.250776446606498
Cd 16.23486425120889 10.557718122409563 18.459990913176608
Cd 17.37780048253715 18.601595933063617 14.174513281332779
