25
Energy = -8.7591837 eV
Cd 16.232416481322183 9.754428916408196 8.871220515962268
Cd 11.389448193633854 10.553164952552756 11.071871648588667
Cd 10.350630773172744 16.285414104946263 12.460632320951886
Cd 14.27013861504825 13.840936263698188 14.420401454365411
Cd 7.5165059557308105 9.68845868732257 13.409408363075112
Cd 13.44316475556628 12.743400115927782 11.686902925493134
Cd 10.639594418193825 9.944114704451732 14.302803576588188
Cd 9.56597969256329 8.10761136575516 12.022820482486022
Cd 8.300803515607667 11.104498835895201 10.799617434444476
Cd 12.002630465482664 14.988944397374718 10.218127323258736
Cd 10.309864284931315 13.15399507381259 11.924560362294843
Cd 13.299224163943592 16.230763777812026 12.966483370064061
Cd 8.369556597524674 12.338426665047775 14.177844219868657
Cd 11.466068271455658 12.891649451419926 14.752565828069217
Cd 9.109176854049581 13.672670161690874 9.185302637303314
Cd 9.274879510934767 15.062059687761524 14.893169457398816
Cd 15.341034585289684 10.29045409174875 11.728301556290997
Cd 10.431485195275863 7.945144866582975 8.282321689709391
Cd 11.759157332930865 6.676991612827316 10.668548322882188
Cd 11.69582261564405 13.45572692469988 7.691221150074659
Cd 10.1409107821161 10.910382168513355 8.306704159384173
Cd 12.931102887089391 8.551658310763347 12.654065394334266
Cd 13.842692904357047 10.857772455275148 14.274985746806207
Cd 13.561766118760552 8.255687941746931 8.922913285417682
Cd 13.380219922499974 11.319919359090024 8.931481668013292
