24
Energy = -8.49835099 eV
Cd 16.012312347946278 11.4671464245395 13.330964423308055
Cd 16.07743384595923 9.952562385026138 10.512617834444349
Cd 12.093925113048622 9.236859705744111 14.97981652137967
Cd 7.260740671974901 8.87465523652729 9.148903376752417
Cd 11.75833186486075 11.546672792171877 7.323801242857553
Cd 10.907871136188316 15.37562594376418 11.460980411808867
Cd 6.571646395714958 11.596116630390691 10.346678239613686
Cd 14.414735173669662 11.479197387437836 8.560964728385978
Cd 9.324087806033788 9.532005784780972 13.939777877186838
Cd 12.65767536330426 16.41843134873465 13.666321675187287
Cd 15.911708943769149 13.09169065485693 10.691693391281405
Cd 9.368573935839569 11.146033228372 9.049563749465038
Cd 12.984038363629866 11.719043493131254 13.46343765046887
Cd 9.725219837661584 8.661564175263118 10.928638385695995
Cd 10.65865386584261 13.972635574936703 8.807522810297103
Cd 10.330461049971206 11.735087539971548 12.080814332978049
Cd 14.21482706115292 8.974124101694562 12.606893686904598
Cd 12.355926097085073 10.18534415155678 10.431245246704883
Cd 11.702292026266791 7.253171594872011 12.65832270682318
Cd 6.887981435107006 9.073052081186109 12.196026755227681
Cd 8.34687924477132 13.836668553654174 11.126448588876114
Cd 12.896107847142835 13.268184707296713 10.714170821005444
Cd 14.690460037864424 14.275797237497073 13.184970863210095
Cd 7.433653392786341 11.913872124184913 13.374967537727482
