21
Energy = -7.28342469 eV
Cd 10.722194747280716 13.131087257761676 16.43139324859584
Cd 14.580715240186738 11.162750320996665 11.06158488851415
Cd 12.246769115453526 9.844377244958153 12.431356182184452
Cd 10.177392495895836 9.068590160108345 14.547086440451825
Cd 10.161184564625913 11.937718594134436 13.652851438271524
Cd 9.712436692078239 7.878740050693004 11.796057214145728
Cd 12.16077658372249 7.963450995547908 10.013227610531626
Cd 14.179383021085382 9.520540775490836 8.553082084531923
Cd 11.71117212873458 12.718619596330148 11.187463150852112
Cd 7.798151943200271 10.07343242021463 12.997609566745517
Cd 8.837607469865437 6.270664163067463 9.45833103388381
Cd 11.012017913603938 6.97737605449427 7.47196034541177
Cd 10.339458788027661 10.379215113472625 10.067849914250854
Cd 7.548556301636275 9.475287026309926 10.068398386483802
Cd 8.34160828466454 12.511419254779266 11.208942468425457
Cd 13.29127348095539 12.385938885713548 8.516622225776796
Cd 11.304588236226325 10.113761655579475 7.298230071258948
Cd 8.445577880011879 8.472553402004458 7.320533736098006
Cd 8.120632765924148 11.417803976748864 7.538843370573988
Cd 10.485267570120687 13.338114483788676 8.316267413930275
Cd 7.62010286035056 14.062095797451116 8.84184909816976
