26
Energy = -9.70387351 eV
Cd 10.396523442286455 11.796957257255114 11.017948620844399
Cd 12.24806952951861 10.068924153241511 9.172564876345088
Cd 11.830052896625947 13.015949000524397 8.467558149959265
Cd 12.682861713115843 8.636872080447667 14.527014631399869
Cd 11.634329737604236 14.818938488243825 11.012207037070763
Cd 15.350419749710312 10.411004105107667 10.152110753232837
Cd 7.940771805813257 9.48361299032008 10.380470358660235
Cd 11.814710058753334 7.0021068125032695 9.443951049241305
Cd 14.236850255530088 13.333408334839508 11.246251359581061
Cd 9.454786498996764 8.211800221613833 8.206139545988549
Cd 12.133308300719696 13.178968278819275 13.500419489752895
Cd 10.62179724359428 8.679310293305461 11.713479487417702
Cd 7.717844323353234 13.417462234277012 8.607266378887799
Cd 14.773886172118015 12.688928787758448 8.340201877480363
Cd 8.65439923697864 15.024511373575434 11.384962735719409
Cd 9.964694713802668 15.394400198186494 8.55680780763212
Cd 7.162049747888995 12.327627410626773 11.332407735147068
Cd 6.252918711651355 12.051477526805451 14.310243985932457
Cd 13.039771830327611 10.664668219876685 12.159680643196491
Cd 14.66997710641617 7.564854534019797 9.768650405676274
Cd 8.523270508930503 10.096343328320566 13.29580453918044
Cd 15.149754835612148 8.569110343899245 12.66165144691989
Cd 10.831820538788786 10.947870400089313 14.998681863498115
Cd 9.484128766727679 11.115448863116802 7.995946648913601
Cd 9.077036617210196 13.294384379155701 13.817248592203319
Cd 12.752077020382373 6.603171746528496 12.328441342576985
