22
Energy = -7.44070238 eV
Cd 15.816546155069046 10.529169800802979 9.318867224533827
Cd 12.107814572116597 12.374114468338455 7.23253880030762
Cd 13.445830282137086 11.181047257836426 11.29717668829019
Cd 14.11502335313017 8.236352204751519 11.068494480483917
Cd 11.242693756490139 13.100868357272496 10.002272127082076
Cd 9.007287256588684 11.981923363725276 7.525764909499749
Cd 12.726307099105249 9.568796617054222 8.523710199773166
Cd 12.461677773788283 12.984947995772192 13.452122316516773
Cd 12.207062418912116 15.39016641617671 11.647093755342997
Cd 11.236784894648892 7.32125846024448 10.155032570861799
Cd 11.623985628254061 10.09417873934385 13.722659223254256
Cd 9.496604452988226 8.928166350191747 8.406238183822794
Cd 10.948855511389121 10.019507025027826 5.755870262201326
Cd 9.579159597200114 13.906153057993132 12.7394690737631
Cd 12.0188068028985 7.258730810196875 13.06762394212663
Cd 10.160522470496126 12.324305565660314 15.508389373580806
Cd 10.476362458703123 10.384278174381661 10.852691654080479
Cd 8.193773485964936 12.541126526439378 10.472791545396396
Cd 6.9167363896341465 10.189651722653142 8.971763452223664
Cd 8.55302007892495 10.968445918983129 13.24720463840697
Cd 8.867664697983695 7.922001978961945 12.203380257523307
Cd 6.261423514197083 9.637317983958123 11.815523070047268
