29
Energy = -10.51093735 eV
Cd 12.812168443513361 15.800337245440188 7.882246545218722
Cd 16.58447335135535 12.069033227726287 9.432342374846446
Cd 15.049242141738873 13.620373733990768 12.710299279799656
Cd 14.123056708073898 13.818311961901143 9.833558293153555
Cd 17.458408201257484 11.829118977582958 12.25848645094322
Cd 13.76956476129969 10.790313094152337 9.180508650141514
Cd 12.151271889997393 14.17529366602456 12.227671573375785
Cd 11.384633167759798 12.762765746158605 8.68065829904744
Cd 15.318862649438415 10.878293597816915 14.182580726234637
Cd 15.557720935746596 9.569555094133062 11.359047978454212
Cd 10.507471724077048 15.478546305241295 9.910306703474665
Cd 14.117247490272058 13.314088881717087 15.591618472346155
Cd 8.802008206255422 17.962949289572023 11.10887224624722
Cd 11.03310378199439 16.94634613114934 12.831851602222994
Cd 12.926938310142665 11.305800932842537 12.112362794188988
Cd 12.156338652754535 15.678004149195038 15.373580523353844
Cd 10.882502018968259 9.9675994179024 10.043825049628504
Cd 9.187076115781416 15.198522250702323 14.88295719994404
Cd 13.436775970627773 8.509748203632975 13.559833290865095
Cd 8.265561964024773 15.02543446750511 11.984953954810058
Cd 11.117787976949113 12.793040455948647 14.846711282486543
Cd 13.393616451362112 7.88391661274227 10.092305354784092
Cd 12.667375543604537 10.436607700117378 15.708227391301598
Cd 9.780826669781582 12.499630227764735 11.275283708209713
Cd 8.00873641199604 12.531520592088764 13.808601113711408
Cd 13.736184472083723 5.700064318116425 12.298611014457888
Cd 11.03601759822967 7.475630966399115 11.968961954449853
Cd 10.304726768841986 10.065047351290731 13.302432448149082
Cd 9.172013728098785 10.689455618464702 16.273412623520773
