28
Energy = -9.32063709 eV
Cd 12.509494954377807 15.07605291275727 15.409282035893716
Cd 12.817733956236703 12.827497307969258 7.343684951306484
Cd 14.726874933221216 12.971702223437205 9.66800463947576
Cd 13.345812820645909 17.920369702998354 16.3112181281188
Cd 7.053076298282128 13.905914393466112 11.889437710060793
Cd 11.221139089988394 9.024927645213054 10.41808404397041
Cd 13.172373006962323 14.616826543314925 12.527622463083901
Cd 10.68941227086817 9.269922124172457 6.134013101522237
Cd 15.85896368815026 10.139497261706648 13.320196842235012
Cd 11.725703685990144 14.203119133783053 9.78487567479418
Cd 10.41035868053372 15.621764133432404 12.083244726628037
Cd 10.545960864417713 7.547951978833665 12.896052610741823
Cd 15.752306889752596 13.261899265317856 12.602437022338691
Cd 10.392761999704248 10.389220178314723 13.605799225457092
Cd 13.070781374325051 9.900730847952303 8.061059587012299
Cd 7.929183590044644 14.852925660231042 14.838988281691684
Cd 17.10514934194979 11.378893521296215 10.700564230315024
Cd 16.47531607270282 12.326539227759067 15.365758544228783
Cd 13.25611307603649 8.75612211646975 13.155117445947822
Cd 13.521080957081487 11.847262667077514 19.270324999709647
Cd 12.670328071460382 11.658195813803946 11.524430505644611
Cd 10.515757749625113 13.234680348544723 14.228895771671919
Cd 10.383793376295603 11.357878363060564 8.590008474067663
Cd 14.672235397318772 9.604379541813499 10.491060594977709
Cd 14.529715839147238 13.759921447221256 17.040151279969404
Cd 9.69886662934561 12.367435501039731 11.3108374155173
Cd 13.305799227349278 11.726967108617183 14.488490130210456
Cd 7.677054324521329 16.868079372827463 12.506263065705461
