25
Energy = -8.31933134 eV
Cd 11.244857789370917 10.153724150036275 5.371608156792538
Cd 11.106268770097602 12.260063205845427 7.568266058804652
Cd 12.85527050788381 9.720653637299685 8.121927584080876
Cd 9.724647419970777 9.494005158433747 8.023099767728592
Cd 13.081051667597889 14.131388541461853 8.727167282587757
Cd 10.168268377530485 13.794782413892861 9.97107122132672
Cd 12.339397919872933 11.764535215328024 10.745692962428599
Cd 11.14138760023291 8.638980510338314 10.711454458685914
Cd 13.491527689104586 16.550873532448815 10.394449070649312
Cd 14.143710650873409 9.31034196239585 10.808697521134853
Cd 8.939644698264221 10.861133474273501 10.570031000611957
Cd 6.665424678728889 12.964141654688008 10.90358275210511
Cd 14.409990604600857 13.917213525743612 11.780287821084169
Cd 8.82390072002333 14.327354335648003 12.638464920365147
Cd 16.207278145691422 9.166278309353311 13.152943763177909
Cd 9.929072079980116 9.475598236356085 13.446565978796935
Cd 7.736556955007463 11.521662009666517 13.397045632276305
Cd 11.598461371119786 15.357597223872236 12.430734519667686
Cd 12.865395783342718 8.311160733274813 13.413430581676248
Cd 11.096310519426988 12.423187062111728 13.580389784859147
Cd 14.011666595879717 11.356878628502068 13.444478489065673
Cd 13.850963125119128 15.285671441840629 14.538495535791627
Cd 10.926792387697065 7.399329234608333 15.652559767766782
Cd 12.01610852754227 10.263497858953633 15.776443052666666
Cd 13.068271476069892 12.992174004655835 16.273338376897453
