28
Energy = -10.00181284 eV
Cd 9.895365391143216 8.1119376939635 11.467316374082625
Cd 8.7056156972686 10.856994155580825 13.024169970006952
Cd 14.76737695613121 11.494482901927555 12.399977021880467
Cd 12.024798958420524 12.357963135732376 8.66333146233843
Cd 12.506071656690072 9.265246220371672 10.37421985892466
Cd 12.655334319319383 14.451061616710327 13.914343596277659
Cd 13.053133744271786 14.106887948595464 10.825959853927975
Cd 8.572933664674391 15.62761196291349 11.264375429588368
Cd 10.584388494911796 15.182779803912636 9.089672185399465
Cd 14.357825001243876 16.493185991010296 12.352211325272135
Cd 9.315614648032138 12.616773126541059 10.507145367708489
Cd 13.18679046423378 11.397925430544378 14.930447877024251
Cd 12.56925866696813 6.922225642142177 12.490302446510377
Cd 14.215253421324954 8.572490692248087 14.493671194842632
Cd 11.045104107197314 13.090458041569626 16.04612307411506
Cd 9.226564414655732 10.698942421827095 16.023301865208243
Cd 9.711916635856143 13.787791830485034 13.405464893090539
Cd 10.16685394948645 10.020826535308503 8.683553109436865
Cd 14.973353541282158 13.57381351964593 8.5374672010715
Cd 11.314707628465968 16.566911242415568 11.962489983871288
Cd 16.317233520395266 14.0656800602455 12.498532358157632
Cd 11.731692239655658 11.635953845585039 12.119489712244953
Cd 11.180958059052058 9.283074995185297 14.010308558372007
Cd 6.773181666483844 7.5083460068381545 12.214016441116643
Cd 15.15732642507082 8.434083751635399 11.633651829408588
Cd 14.891018361903857 10.78140013861948 9.435576120084972
Cd 16.117214148048678 15.912821810180947 10.01100108495933
Cd 7.694069517146368 9.893284777600636 10.332835104413098
