22
Energy = -7.55874041 eV
Cd 11.356766773008355 7.629079988399325 11.53269150764487
Cd 10.23068945566799 10.58695609919978 10.44842722708486
Cd 9.781677680948512 6.9021549800343 8.933033828116955
Cd 6.590287639586478 12.64389715595311 12.624384033600094
Cd 7.6083593904803495 8.95515060825595 9.646845540203278
Cd 13.711680417802256 8.855792405712759 14.17048801544927
Cd 13.80831008994891 9.286188445350705 11.02403941157779
Cd 10.261100279953203 13.436066439904513 9.010800176748235
Cd 11.023572058040916 10.093150948462535 13.319424213968652
Cd 8.90260400128447 14.25778641856698 11.548035415008659
Cd 13.161622101919804 11.947181061292474 9.215809007395611
Cd 7.994381802617935 9.91420007847328 12.479318019344008
Cd 14.662327885549963 7.500392536620172 8.492609326896101
Cd 9.15569501237498 9.602837519272898 7.1689734646966645
Cd 11.57111010673504 12.843501656043967 11.950018523111492
Cd 11.913646757871287 9.093482513966105 8.51893274045694
Cd 9.277283488005269 12.41360783337057 14.034971466314593
Cd 8.289700414516524 12.515073426081493 6.645808477728011
Cd 7.586447772430148 11.952753148349794 9.760631496759919
Cd 8.464535975856888 6.868993994475716 11.776120663206589
Cd 11.350983985715363 11.75630591028774 6.730905332394263
Cd 14.385490761963501 12.033720684204267 12.056005964570693
