28
Energy = -9.87340708 eV
Cd 7.318629445179967 14.454738125966946 13.234117967197564
Cd 12.815457670380919 11.10348515145621 9.044499782244486
Cd 10.800686007441538 8.307930573905926 12.569949546867164
Cd 12.956802785837652 8.445878687969365 10.396086021869529
Cd 12.90132224442358 15.959478768123784 12.098396827305569
Cd 16.81672553144769 12.679673844759227 13.82391534043101
Cd 15.07659816814466 12.347124506721412 16.422777955450478
Cd 9.400075005949036 12.353549744893666 14.331140407360637
Cd 14.060586044568405 12.45570855422845 11.856755117025997
Cd 13.834078219925606 18.859809293775392 11.561252122320491
Cd 14.254764056711455 14.347908605613476 14.199847334046053
Cd 12.339390973098542 12.038026459488195 14.63936039412928
Cd 9.757892419111712 10.999110849976105 8.868873598247163
Cd 15.975885220828417 9.816180483955941 14.825527649519609
Cd 15.557220165664978 9.830066039261691 9.101751776517771
Cd 13.411782704633383 9.49337904160808 13.24583095139173
Cd 9.558204797960991 14.454982030831948 8.718361019157824
Cd 12.515712543921998 14.143977831187025 9.786944997091478
Cd 8.700315292322188 10.075991569272064 11.544371176041397
Cd 7.785190148916549 12.833452195214194 10.524875211921923
Cd 16.301430236238986 10.380877175238334 11.899395537498629
Cd 11.184078137587274 11.739969835663985 11.748579427493846
Cd 18.053934247375178 13.260146963807069 16.752944657398892
Cd 10.054115522772555 14.614100261313947 11.684512020014525
Cd 13.361440800959828 9.814652960220947 16.431762479183607
Cd 11.464429624925867 12.910648636757731 7.0997481913116
Cd 6.675768759560821 11.485011105667636 13.316226576928731
Cd 11.198868331283819 14.925525810293108 14.403581021204172
