28
Energy = -9.06862127 eV
Cd 13.310041564332083 11.19226302851081 6.903686517659919
Cd 7.078054374616602 11.557111161927184 11.323663957549641
Cd 13.925987410583254 11.606136145831657 10.259482110083312
Cd 10.711973860065441 15.308705132958789 11.121028867402684
Cd 13.267124309064313 16.063211090458612 12.57347943008971
Cd 8.396417591544814 10.782403747412147 14.053846164852928
Cd 11.276212365140015 9.737170116284041 8.775521721694895
Cd 16.28604869870794 7.529609800364026 7.226320670279256
Cd 11.434970416478635 12.05249964349052 11.960810534645681
Cd 8.596852866488382 11.176463223471902 8.779531051166252
Cd 8.252845978099815 7.75671162847561 15.319886605480907
Cd 8.788166325640482 13.595243211262064 12.589760468649347
Cd 9.732298084263535 9.633126161750651 11.431891050321003
Cd 14.23485067820843 9.018483931931044 8.891004792543741
Cd 13.61965236249777 14.637753745047453 9.910091437134446
Cd 6.348766682139956 13.065242202992998 14.67932208324426
Cd 16.40855958709078 15.418534511568678 14.114553611614616
Cd 10.937039219480948 9.21315525627109 14.272590170102278
Cd 11.41280636441394 14.23165531367969 14.118545583016807
Cd 13.116534754805839 14.132060776753217 6.823392908768266
Cd 10.857885918691673 5.994165355521191 14.460903175347907
Cd 13.660348291673637 10.76055011644931 14.10127135359429
Cd 13.560548021799772 7.720617504316262 14.324065465999949
Cd 10.938403025709283 12.973017970626717 9.059310112237796
Cd 12.755700039305774 8.881363074629364 11.572664678601834
Cd 10.83302436881044 11.837648570365454 15.75487713788642
Cd 11.274795384466938 16.194717494906396 8.219053248915321
Cd 14.348617819663819 13.294906446526943 12.743971454899693
