26
Energy = -8.88306884 eV
Cd 11.45383483957425 15.632216917984524 15.165780042866524
Cd 7.475392720899776 13.580023909758701 12.413175385240962
Cd 14.729095470791634 11.073782099857429 14.331116225220935
Cd 11.244127452854428 13.404381289126682 7.899514106405149
Cd 10.062854825483548 15.745145271531408 9.417751706665987
Cd 12.780866085231759 7.443809259442311 10.22364166806185
Cd 14.609468873098013 12.554603359423613 11.290615375307256
Cd 11.590893032356785 13.42457720388034 11.106341240748272
Cd 9.102579031486888 12.33406849415644 9.826602506115506
Cd 12.090002698370753 10.84099867320971 12.599389822582165
Cd 16.67286217917435 10.237509332891127 12.129858866315741
Cd 11.577563027450196 10.426562971118644 9.552455336055928
Cd 14.212246944571923 8.451634308613459 12.745475895128653
Cd 10.056507731884171 6.088612516043637 10.751596555450778
Cd 11.00791852438905 16.786790937346844 12.285430801767173
Cd 14.601703000726392 9.861291881768759 9.721436048621062
Cd 7.46686999844997 10.725311117951147 11.855611954856402
Cd 13.442615310702216 14.82211692512305 12.910387929720153
Cd 11.776756879521853 11.586310037322033 15.632107009595344
Cd 10.04619975227075 13.3681199222768 13.783981375625387
Cd 8.12485926933203 16.28227225181502 11.587328375189871
Cd 13.886675457517004 13.668262692825587 15.602430465126856
Cd 13.963417580234857 12.39894545943128 8.296845004797689
Cd 9.403191648338042 10.387401783877625 14.1700396281439
Cd 16.074349945546096 7.164805179378513 10.462046419663606
Cd 9.813363001048318 8.976661485149531 11.505255536031743
