25
Energy = -8.37406506 eV
Cd 15.785722196858536 13.380747261120796 9.791762158211995
Cd 10.827310367099303 16.42705500257485 13.908992092568432
Cd 12.932670467543566 13.993812429048132 9.134844360483715
Cd 10.89094032477707 12.043887965858492 8.326039271307135
Cd 15.870576952443619 10.648263849423081 10.855970262656378
Cd 12.354637322567031 15.509299400856138 11.542462167442906
Cd 14.107289895360971 13.072145949237779 12.333283498292383
Cd 9.592003698784724 12.973350854559914 5.668259876989135
Cd 13.930891665094139 11.047247086724306 8.446022409140198
Cd 11.78107729845659 14.332319836742817 15.944918361210988
Cd 12.172095281150696 11.112922498361726 10.901484639214559
Cd 10.97622812688315 12.927858568178163 12.835865821671945
Cd 13.137783783074408 11.862029245604525 14.877995196563461
Cd 8.759313650770196 14.448827670995298 14.773911845150408
Cd 14.807351016616863 9.562803828361355 13.43718914619551
Cd 12.568494747086527 8.481026438397304 7.877124582038052
Cd 7.8943070307673056 12.154486015190558 12.901833064155667
Cd 13.573949032109534 8.395271701730792 10.79588818160336
Cd 9.624186138203363 9.377137285464151 7.8344628729002475
Cd 10.08260892658474 11.036545750973985 15.254142092056238
Cd 8.990004763852506 10.778112237249005 10.465366488842056
Cd 10.577679532472114 9.276926140589586 12.624250111564162
Cd 12.346175796874096 8.869468412583156 14.88591551934401
Cd 7.283369790981112 12.04885247677111 15.943188894729508
Cd 10.61119725456045 7.717467154374913 10.11669214663899
