24
Energy = -8.38540664 eV
Cd 10.228087772953867 10.39143469023139 8.124560658653374
Cd 7.444380485038992 9.24591232801186 8.838785961909064
Cd 10.405973230159606 13.511415484760933 8.924729536502948
Cd 11.346846410294486 7.520375775494729 8.853413918858534
Cd 7.675734028778447 12.295195629376716 9.014510497020721
Cd 13.370908694309206 9.45985767656302 7.900549768554549
Cd 9.68862891017542 8.718966525755617 10.947664182375522
Cd 7.021361884977639 10.494440015936688 11.526086045441108
Cd 13.314798275392953 12.376770179335438 8.388386477530851
Cd 12.849004891052465 15.232492039572445 9.27384871318921
Cd 9.31083817711184 10.404432934370606 13.463501320172309
Cd 13.857048454001964 7.726649650762687 10.493360573643423
Cd 11.315926956730712 11.28156003507148 10.82650600610003
Cd 12.266789517631231 9.04490724530559 12.742795906748906
Cd 11.71371470002788 14.359983102294624 11.927017084774558
Cd 14.274632122846521 10.719221803546578 10.755088216830185
Cd 8.965953805608853 12.921393365831815 11.823989670158001
Cd 15.213869992498163 13.63442491092005 10.631053148879982
Cd 11.582518714553045 10.464270158147592 15.361398637277144
Cd 10.289756074429437 13.142130760595535 14.660842228112278
Cd 13.179024296372702 12.03772369664019 13.367843078664922
Cd 14.686879049461695 14.814638580283315 13.261193039279133
Cd 11.84623903497354 9.240096476134132 18.115167507718784
Cd 12.349136587670099 15.299811613804671 15.035518099006966
