23
Energy = -7.52952085 eV
Cd 9.677782562503833 9.822683806383916 15.369787232021029
Cd 12.695183020206294 13.167001761954728 11.785349362287791
Cd 8.093022494565984 10.89420338792478 12.455080703696149
Cd 10.082342368066035 7.92220436966042 11.85684411544074
Cd 7.672154527260023 8.072160763876427 13.884881286943365
Cd 10.343529835072788 14.252849719112243 9.892992757481753
Cd 13.358035280035688 6.641374874800558 7.780479105458695
Cd 12.554395806563068 12.291804885994177 5.63784542672221
Cd 10.404741407866439 11.070343596444854 7.441080346363183
Cd 10.863254616787167 15.353106158790348 12.859404985144106
Cd 12.812617936429596 12.978143239438243 8.610298739098623
Cd 10.718983956847326 8.104624009591074 8.59108369745053
Cd 8.20424094358348 13.940155680397387 12.211909031230803
Cd 13.335714867304647 9.981101618648804 7.957339050727498
Cd 10.453636450409219 12.42600703975839 13.898119763904203
Cd 8.293132198252579 6.3434139886905845 8.772693820908552
Cd 12.120364722959573 10.018228900713186 13.337500281018125
Cd 7.87172037819415 9.418947043748561 7.96186791921934
Cd 14.533406792230057 11.068094693893073 10.641268740302325
Cd 8.018403317299272 12.055558103669004 9.62758360827785
Cd 7.266523410383762 8.479255893369963 10.79166947435988
Cd 12.877856738728434 8.497511912339728 10.77406994876462
Cd 10.693998422522844 10.910090032429498 10.586763724140695
