20
Energy = -6.39871071 eV
Cd 10.266938743179514 14.08724789029019 6.074861695282583
Cd 9.594371176983667 11.21586420638706 6.728744141486217
Cd 12.14991481934888 12.622212098287342 7.898560805868146
Cd 9.966218358585339 8.514770063777654 7.849015364657287
Cd 9.225718070091391 13.723991913404076 8.90772511724046
Cd 7.647876392464351 10.638013925488654 8.899968461383073
Cd 13.576591205157378 10.331581320957385 9.03606868550312
Cd 10.660075453919356 10.385965927696228 10.134169475618222
Cd 8.696958311430071 7.755715604476013 10.906079785398516
Cd 11.349342360141833 6.723741468456467 9.870816667026066
Cd 8.690569599959865 12.327519762877978 11.458840169164732
Cd 13.980104199268181 8.014772897423985 10.90022165616264
Cd 11.78873196436025 13.153542496922954 10.837650821593984
Cd 6.47194098431813 9.591609324383874 11.479095597385642
Cd 11.349389479608298 8.382469781371395 12.574549444436064
Cd 13.822303419051085 10.74653305300831 12.191454572057046
Cd 8.212438785253484 10.412286620629411 13.79378893923378
Cd 11.114443821922713 11.363459718878184 13.663647899317512
Cd 13.260897572440632 13.508058779801054 13.412233936421833
Cd 10.122603589891462 8.44807145285785 15.329935072139484
