20
Energy = -6.16349041 eV
Cd 11.144282147921205 9.38480514368031 4.869413035455037
Cd 13.37252606865721 10.993285829763455 6.4613923215705995
Cd 10.43553271369037 11.279885735360322 7.303288714667487
Cd 11.914208302215084 8.42797401856858 7.705760007498281
Cd 14.957215437977741 9.587398584321093 8.913356507861149
Cd 14.441687625734145 12.551551479729168 8.873560762024141
Cd 8.451244198860316 12.404589956475085 9.503786097197287
Cd 11.501085997735009 13.153092897479974 9.457979805635206
Cd 12.903111917721425 8.204236645786766 10.599155717265436
Cd 10.42069655987818 9.982918592416002 10.114299823439406
Cd 9.266675206240604 13.744216984119905 12.183348934707027
Cd 13.098858405241506 11.2360830902902 11.408868584245155
Cd 8.261920495244334 10.756109478671199 12.177775117295567
Cd 12.468856002674658 14.10527158396701 12.17016846797623
Cd 11.088437935306148 9.206197085862375 13.051326467240884
Cd 11.105323849087343 12.104338416309254 14.111339281067648
Cd 8.970054659782843 9.950635834135388 15.472632509943175
Cd 7.357857577675204 12.640641099080483 14.68242108156445
Cd 6.134907975345385 9.728863298893051 14.186111577538389
Cd 11.983511381146503 9.835898703224222 16.032009643941784
