20
Energy = -6.88329355 eV
Cd 15.042372468276579 10.740892918288672 11.035422733266463
Cd 13.95132458696867 8.267761809240897 9.301927376511701
Cd 13.314976059528714 13.379104292373164 10.568252936151058
Cd 13.534850479248872 8.479506533905264 12.287084987222284
Cd 13.389496356582624 11.1495460921293 8.515309945334312
Cd 11.25965935682333 15.320551468020657 11.519812883677027
Cd 10.933759612731768 8.79698898627266 13.62828889080293
Cd 11.3885584478992 9.146649693123162 7.554513558330546
Cd 10.981028511787626 8.790480299699924 10.501650722451126
Cd 12.050331501279983 11.261266981796556 12.318942919667892
Cd 10.702904118477848 11.744279213668818 9.53374347732643
Cd 8.363250375731873 7.634433040784852 14.535700042799041
Cd 9.78193599716641 13.237509100142823 13.081418447163777
Cd 8.27180899292728 12.22725384819465 7.81796663529511
Cd 9.018574559575672 14.279618090125096 9.874666149929121
Cd 8.57543484723672 10.703661549085426 13.950550624955454
Cd 7.980014517472695 8.947687070097802 8.831284474606155
Cd 8.229350117639914 8.31021014876754 11.656646749398451
Cd 8.000481082527052 11.427162730092597 10.979187720489877
Cd 8.891887817105953 9.817435941178768 6.169628531610477
