26
Energy = -8.51192366 eV
Cd 11.204521931001649 9.54903853667416 14.558357344448005
Cd 8.830820371765864 15.673680348683884 9.37213357602047
Cd 16.713310530043476 9.756118437375557 6.034900737272784
Cd 9.574312933176945 8.092697671705988 11.422290523689409
Cd 13.241160717514758 16.52326488019801 13.167069401535676
Cd 14.169498782425176 14.059121194587629 14.695752046805495
Cd 9.693304593916348 10.7129001973013 7.759962802074915
Cd 12.061080005291666 12.286652373379884 8.623557980830123
Cd 8.824890646723112 12.76569101114911 12.899924367359224
Cd 8.4023963171258 13.701648527909848 15.863150434134182
Cd 12.473885097872497 7.462627317924815 11.703878221378082
Cd 12.100517131997053 13.79699002702161 11.511527129803964
Cd 14.551253892519256 10.419530705839533 8.133302758372848
Cd 9.286477785937342 12.814275642581821 9.907609190972538
Cd 13.549619039932702 11.484622415745298 13.285313522077587
Cd 10.62558540583679 6.703939957319722 13.986082352087475
Cd 7.935406820116357 8.5730964017211 8.919798164897715
Cd 11.238545531784679 12.466670296728132 15.105495170089823
Cd 7.72739489702584 10.488932351704594 11.315469231544231
Cd 14.585979309277084 12.488053243715491 10.35797767255506
Cd 11.029316902462732 10.840865334678144 11.717113532026895
Cd 14.18471784915148 8.561148288691493 14.026040414430256
Cd 10.828881020279374 16.795311752958998 11.29300375001509
Cd 10.491652506509265 15.128023402745342 13.81267274243721
Cd 14.619013450646746 9.481243424862393 11.050123435075076
Cd 11.837041111389292 9.154440838519914 9.25807807978981
