21
Energy = -7.32903308 eV
Cd 11.697662230110065 7.837625541962578 12.795482839081503
Cd 11.293420309878437 10.31622208961203 14.456245771679615
Cd 8.866740104190615 8.617133884679397 13.5612893101597
Cd 12.385681966308793 10.808509339155012 11.591030408928878
Cd 12.181146789560541 8.053991798450275 9.91281580127258
Cd 10.50226338201201 12.888147526213531 10.049025268956363
Cd 13.52761339606641 12.850708645357217 9.566114623691576
Cd 9.866314402517528 9.916818044142783 10.034873434580446
Cd 9.216023276124401 6.9165788029672255 10.982920521013947
Cd 9.31944614111229 11.602321014547782 12.564366609821086
Cd 13.601662165390378 10.090367117675134 8.334232658768158
Cd 6.665361163657589 12.853424875553493 11.73182360149284
Cd 7.155316377507657 9.661983902941436 11.358685719500832
Cd 7.801766206702062 13.876050078699231 9.199437374533236
Cd 8.849635391014305 11.415090588095252 7.670835698917762
Cd 12.586226487782726 5.886501456944007 7.740612924070101
Cd 10.849206325861068 8.944263631840187 6.992161795114334
Cd 9.432876989853064 6.371433599509522 8.012290634928247
Cd 11.704857204274099 12.117283028278635 7.158282693681418
Cd 6.068540990317944 11.212858522846421 8.991574927790259
Cd 7.447032946895608 8.596493333480142 8.266338014137318
