24
Energy = -8.57219103 eV
Cd 14.658552614303598 8.555821592744167 9.475793773774505
Cd 10.07719034662899 11.465397252857437 15.865217402069165
Cd 6.8138520917335414 12.67334457119578 12.868870894427587
Cd 9.96605176587414 12.928712827399345 8.466693119089452
Cd 10.5251154548701 9.983647585515502 8.43481663984093
Cd 7.003084465546777 10.193817575921301 10.999549043272916
Cd 14.986938014556088 10.953434858667604 13.86677347578879
Cd 11.848946227807 7.4845810608195595 9.326481131561495
Cd 16.54555136491526 13.125582519345334 12.654480501556156
Cd 12.223981223577022 14.866838606592472 9.117450241905123
Cd 13.090822917699542 10.267951075463362 11.581522545317512
Cd 16.08639473147677 10.963414211967189 10.537591290921762
Cd 9.698237645518939 14.818686984513931 10.813451001890751
Cd 10.755043632357584 8.131370099851956 11.988040992641094
Cd 10.381124748159966 11.409609814062938 11.121522995153311
Cd 12.963190320375226 11.812062276626815 8.905279970415467
Cd 7.251731672784541 12.96859816848448 9.843051255018768
Cd 11.93825642608458 9.676454006413094 14.266850451630159
Cd 9.759246624782648 13.378313233724985 13.476677097013026
Cd 8.590959927963773 8.022146539128613 9.741576347509746
Cd 14.818907384518523 13.835102296014147 10.335382769266447
Cd 8.875046580077061 10.169862122914989 13.39813001718306
Cd 12.400360726457292 13.589149424801834 12.017802581040641
Cd 12.62057962281895 12.605267825860427 14.776160992600852
