22
Energy = -7.3464474 eV
Cd 14.592872640487858 8.52241938369796 7.506547692613583
Cd 14.177713563813027 9.411314373141066 10.546634797151118
Cd 13.267587933121908 11.547730307221162 12.394850905495051
Cd 13.549700435289132 6.464906886073874 11.496565676208762
Cd 11.76067675645461 8.578773651277995 12.638992520885191
Cd 12.671662424759836 10.883419609201788 8.335022297238861
Cd 12.154491781049314 7.380654011697287 8.933299762990059
Cd 11.694234484231199 13.347629009196963 10.18793063281426
Cd 11.424816996391835 13.779574161745655 13.184936684745304
Cd 10.670889759719172 10.95359270696662 14.249647115691454
Cd 10.843385024653436 12.991680635274513 7.2566850123496245
Cd 9.977125807938032 9.066490163620044 7.874133853920799
Cd 10.588133850516881 10.398816484362879 10.544633379959238
Cd 8.521773710909937 9.139716021191974 12.98130646836609
Cd 8.642934491249699 13.10561345255797 9.400736445714147
Cd 9.68602643617328 7.177657872270199 10.569951662221733
Cd 8.725949037514019 12.348090091601009 12.190378616892577
Cd 8.22651792802872 11.237457485821661 6.966631919902978
Cd 7.50229592781279 11.572202613361512 14.872949457791478
Cd 7.487377331372902 10.230974146850306 9.779414963790684
Cd 6.7740859501562625 7.638718961413658 11.012730046156088
Cd 7.021742485193785 14.18456272829169 7.038014843937954
