22
Energy = -7.45270208 eV
Cd 14.46613581328766 11.858925012475794 12.134782271093858
Cd 13.80350999105708 14.710042742312716 12.426835461049658
Cd 12.995004547052684 11.246324784420853 9.558161026288916
Cd 11.544554121087453 14.120197598064891 10.505111968271143
Cd 11.721299159604285 9.676429214568557 7.265044109362696
Cd 13.100316423820841 9.169720053740233 12.062030603948676
Cd 11.144340296227254 14.25276133970051 13.769762273547316
Cd 10.689894589168956 12.620553173048338 8.12888513355256
Cd 11.238970486945497 11.313039274533864 12.774056156160418
Cd 13.299274376180094 7.939911606880335 9.097989574339886
Cd 11.935879087285622 6.477161940676361 11.354730490311193
Cd 8.83507518199206 12.584454593234401 14.589290690129124
Cd 10.234117293175194 9.94607685307282 10.01967172023331
Cd 9.947801949840445 8.359142431328431 12.655249442037709
Cd 9.668503395107171 7.642370283089372 6.443741077454799
Cd 7.903860246434817 9.77117377237229 14.256048654971174
Cd 9.048470870486364 10.930764682658966 6.3451904913233745
Cd 8.91820210776731 12.90612198876339 11.438127740166669
Cd 9.644582762284257 6.756983931282913 9.43394395413152
Cd 7.578629660237299 11.867820937941394 8.860022513588778
Cd 7.659530157275341 8.746632993289529 8.422843520615759
Cd 7.448239810347562 10.018406768980737 11.279323192831205
