20
Energy = -6.25215033 eV
Cd 10.429827111397675 11.59933158216519 7.4678516474084065
Cd 12.931173040866225 13.75623707562713 6.794530292202336
Cd 7.47101792053156 11.849661789657963 7.613588204004254
Cd 13.249414213928118 10.924339941653033 8.25256492527331
Cd 15.918992757438163 9.705509923104183 9.085493697388605
Cd 8.453234298165587 9.201496333765663 8.600220487512125
Cd 11.736046625802448 13.353911209330544 9.791169398614008
Cd 8.424761255356808 12.974100934500008 10.139423636958334
Cd 13.558353101461307 8.985456724406692 10.850673123682693
Cd 14.880222603707969 12.05286761152289 10.74680984612511
Cd 8.958651354291298 7.849807485001135 11.269818732397761
Cd 10.825488175691227 10.23145992069761 10.455511140995238
Cd 10.163999535328061 12.718835925565845 12.529257924388146
Cd 7.916143505161588 10.594302048071317 12.10762069780199
Cd 13.2926526745806 14.012644425207096 12.334211067197193
Cd 5.788374327012753 8.947103254263615 13.941902402682501
Cd 12.853204438327856 11.075540432589156 13.132649067767735
Cd 11.521202311423371 8.337343144208129 12.997825762376932
Cd 8.798807801552025 8.312013756397189 14.414018571984077
Cd 10.253037708186442 10.94264124247652 14.899464133450316
