27
Energy = -9.23297892 eV
Cd 16.255811956518674 11.592713861596373 10.663471987284296
Cd 14.317780220510732 9.934547425710125 9.280523911715278
Cd 14.635036243311461 11.40136569555669 13.2759583691747
Cd 14.213629776643891 13.767891992403598 10.956224230642547
Cd 12.870158292721051 7.343034836180434 8.543899200459169
Cd 12.884421410303688 7.722139324063333 17.122713568666793
Cd 13.353494458430065 7.976668826419117 11.429678416079852
Cd 13.250527638821621 8.919975347848386 14.202685745286782
Cd 12.284672623771716 12.552142351346847 8.674681010729051
Cd 11.330715503650824 14.734657047988879 10.610244439256741
Cd 11.853215276591913 9.887782142481505 7.23420736905184
Cd 11.948918738836532 11.133156521707638 11.361644254724977
Cd 12.330585888100426 13.654942785390434 13.421267540686397
Cd 10.402496618937604 8.689009412522656 12.26797033036596
Cd 9.422268332048464 14.733103095188962 13.24962207210029
Cd 9.994909950498261 11.76901896787212 13.83942032599535
Cd 10.105836469248162 12.173166130944411 6.334408938158261
Cd 10.132150949915015 7.075360074109277 9.568333542068071
Cd 10.482194330097807 9.285569019380334 15.46786284759117
Cd 8.94427761363491 12.609966354896768 11.00814033012079
Cd 9.421806225979179 14.258965698965513 8.388232817595565
Cd 9.76793208893499 10.124281841579194 9.446609716984915
Cd 7.614816046176845 7.948972872698175 11.009844570717306
Cd 7.674332932197966 9.928972015147217 13.386398817088132
Cd 7.479421884144984 11.785848847938794 8.078636627411022
Cd 6.73388291793988 14.388066647872641 6.679446909748451
Cd 6.583013480500643 10.738102254600072 10.717051802288907
