23
Energy = -7.83285004 eV
Cd 13.28824882765529 10.298786338027945 13.661261769772393
Cd 13.465337456961164 11.325798669759044 8.328637996101946
Cd 8.609142784221541 12.697969503263351 10.57539698143638
Cd 15.052410511757268 8.657133913571352 8.942560034413555
Cd 13.315192462760095 13.20021858573824 12.771183120681712
Cd 14.640116275862852 11.022456460879116 11.060800728481782
Cd 6.418898231420236 11.38423167166707 12.316212244685634
Cd 8.463337279522431 9.348882643163929 10.908087726012788
Cd 13.185259928812906 8.019488458510217 11.397778233732854
Cd 10.882617775707361 8.521230167579416 13.239039864014408
Cd 10.773379440642174 11.033117414638376 7.167985378199403
Cd 8.01734554827399 9.19372279462186 13.97082539408116
Cd 8.19736963685927 12.22108640752621 14.738522559734333
Cd 12.572886271924608 6.80322633760667 8.711693373499882
Cd 11.660993327783531 13.062787674248115 10.10435010332864
Cd 9.459050100450279 13.593368482983806 7.868681369812639
Cd 12.792587132164961 8.842239363503706 6.54100845515967
Cd 11.326195918887233 10.070663994917977 10.258798911503023
Cd 10.722113516569829 14.415619691958614 14.230323947897807
Cd 9.85776378710093 8.24321175041624 8.369774747708032
Cd 10.631588574522144 11.647941406781628 12.80192614775841
Cd 7.977343278384968 14.610500162196107 12.796346419895025
Cd 7.954297919830392 10.758273304590658 8.269356865813442
