28
Energy = -9.61600311 eV
Cd 7.488625601219477 10.444331363355923 12.203507592973212
Cd 14.25713059662125 12.011673211267004 8.568556379118483
Cd 11.481732017603516 9.819181751571328 15.654642446702425
Cd 14.344466072513267 9.083471790810364 8.177048759178634
Cd 9.267943548380456 8.546503455694758 14.030049182864566
Cd 8.211147952551439 7.516898165458805 11.418303415835066
Cd 12.455196737685279 14.27455047550814 9.736334368461591
Cd 13.721026524759935 10.262220305141645 11.134278699737534
Cd 13.723669080105935 14.154633448326583 6.441822416894656
Cd 8.202819069223 9.790724180015358 9.064521397944109
Cd 12.807191854925598 6.634291090477822 8.257870734237445
Cd 12.435932204138169 7.0121996765808285 11.209058431452128
Cd 13.199398643120317 8.373170709694417 13.662433226902772
Cd 9.492299390699136 11.705069047018116 14.400397662698696
Cd 8.410290735520773 14.349990011148657 7.904741835956371
Cd 13.793058744897921 11.308594113119625 14.270051147597181
Cd 7.028610021432385 12.392168094798839 9.910495365455366
Cd 16.32433104035989 10.607386711188571 15.776806065813288
Cd 11.414636345303736 10.34629301140979 8.732192224072941
Cd 9.49171505880929 14.54076872088331 13.120251471570425
Cd 14.74121645764554 13.19372693821711 11.51322961877983
Cd 11.004607999318356 13.019581087853506 7.252909944243951
Cd 11.913101207505278 12.838151028740652 12.66348712400842
Cd 10.159270074615861 7.576651858498852 9.16042089830196
Cd 10.01352255196057 12.538643002672574 10.379131517078596
Cd 10.779072200016866 9.91223746034339 11.750124561324611
Cd 6.803857507386476 13.190602137330082 13.397773090701618
Cd 7.742599815084775 15.203088433351125 10.795377431314748
