24
Energy = -8.23620766 eV
Cd 11.818807863089356 7.257710396938459 11.254901631084765
Cd 13.911406059873329 10.878604369872713 12.515390750934198
Cd 11.304105576497129 17.59596073949307 10.324364035374417
Cd 8.863630137576065 9.181747777958028 12.526590060579327
Cd 9.330854242076697 7.443159973056612 9.745434709950809
Cd 10.586758489670048 12.332670638891981 8.44311751001412
Cd 9.476294426079054 15.074128500614666 9.661446390993394
Cd 7.158574061395502 9.541590572450037 10.017053364911314
Cd 14.451032001283542 8.054180872982723 9.871847846342952
Cd 13.472914110414221 12.85200457403134 7.852736590321921
Cd 12.788165864606512 15.218866335137717 9.366658507437233
Cd 12.167600066191307 9.461789801665645 8.386851205956624
Cd 8.712696728060646 11.990921608300523 10.940083633046063
Cd 9.892799502162338 16.20254227536293 12.597478936960682
Cd 9.658693399977702 10.866517297922096 14.960557383629556
Cd 11.223921780132272 10.347969892566452 11.06124646628103
Cd 9.19687057184737 9.79550756105432 7.813554608449906
Cd 12.183368438695837 13.168069638404486 11.409474073465772
Cd 12.246309860226614 12.389622626072153 14.474816744734815
Cd 9.297802635988784 7.63629992495992 15.32485560929481
Cd 9.649629005977632 13.382158873565073 13.386559797998395
Cd 11.85218284172539 9.034251092344247 13.8821513577474
Cd 14.419560440645656 7.780311877379482 12.883217767806698
Cd 14.766436808778565 10.991448444355893 9.672048271768148
