21
Energy = -6.74829642 eV
Cd 7.8835589628665685 8.27437700980267 10.931591564769343
Cd 6.468749810659333 10.538628657075982 12.27263025031073
Cd 10.159750497397756 6.844207634908139 9.708958122978903
Cd 6.354519870144216 10.43979554590998 9.187426944219533
Cd 8.062567796039453 8.289935449561348 7.702143625916425
Cd 10.602278797159176 9.345672039716666 11.971964507398981
Cd 7.263763189335465 11.206915901926724 15.0878814022616
Cd 5.432145721207156 10.781195482863225 6.102652841510985
Cd 8.81534230697035 11.631353471710305 10.687809406554315
Cd 13.010737259442603 7.45162666887192 8.338738828225528
Cd 10.6686682337926 9.721980920780469 8.868892852398368
Cd 8.498621390123084 11.300319275079495 7.1904003323427
Cd 9.929532435667493 11.8111363346268 13.834455088715147
Cd 12.711207436455966 5.887174272650954 10.921624834562541
Cd 10.796564386261707 12.729911243724217 8.625848951166457
Cd 10.902880971126041 13.669887721446974 11.695433396701437
Cd 12.852038949702171 11.40113733651399 12.427996103395278
Cd 13.581882673291611 8.471615610475858 12.045868319345862
Cd 12.962078062462435 9.926512673150825 6.537955921916784
Cd 13.535883727906372 10.452184599970675 9.57142520683619
Cd 13.365193804141363 13.485526106963237 9.962608245391722
