27
Energy = -9.1664377 eV
Cd 12.823683360993982 6.750517532716369 8.946697150885019
Cd 7.534760295957802 12.537675887598816 8.78288556087131
Cd 13.510107412636764 13.231938002406237 13.24550261690183
Cd 7.547981407838822 7.829513991201785 7.0678921039535325
Cd 10.699218131100086 13.619732550705095 9.241575195748776
Cd 8.285430818186178 7.442860708982546 11.853319265492708
Cd 9.898964987114566 10.916734470565912 8.02817683596992
Cd 5.691879223949381 13.635602516241095 10.948489504422435
Cd 15.113250072775022 8.431456481497902 10.241622637006083
Cd 10.721227091379008 8.31786713019025 6.776222398308408
Cd 12.914946781573432 9.938822954209833 8.713127739938898
Cd 7.63052485930372 11.564348482704311 11.931856805607758
Cd 9.301793233828748 11.124395048875545 14.251899077462976
Cd 12.050901174543501 10.730533236107071 5.51407819290148
Cd 11.524112209735696 9.068630543290057 14.321315781860019
Cd 10.624643865669219 13.334842837896804 12.452193660830059
Cd 11.944543869775277 11.977178819986102 15.425063741083326
Cd 15.653343509852657 14.9842882443489 14.548043192797644
Cd 9.70808032092881 6.975930575499349 9.227106877709303
Cd 11.411938490599029 7.849731865330728 11.545889653945332
Cd 10.419983865644154 10.633335457460797 11.067639244120588
Cd 13.075531748899543 12.822422168011965 7.426336771015157
Cd 7.675924916038499 9.5010926079886 9.694839820157197
Cd 13.47849237737008 12.728162962844147 10.349625760570866
Cd 8.475325980307192 14.751881741476437 10.929029101029712
Cd 13.35675721407437 10.203309666659568 12.095585483651922
Cd 8.462069959219486 8.290653089927417 14.618080016479169
