22
Energy = -7.70743438 eV
Cd 7.243719715529665 11.718099344435416 9.02173130412132
Cd 13.704185332402242 7.9460744580501945 10.343082742807438
Cd 9.090588070104001 9.752692645990768 7.4503040007935555
Cd 8.595405731954974 12.649863842734458 6.541659845435136
Cd 13.986710975814301 13.291893876284993 8.3338283125692
Cd 12.677763590752887 10.283578757330346 11.908166746566739
Cd 9.424017572358036 12.977949485352113 14.287057023782115
Cd 11.013215670526272 10.3798120255645 14.475749534036972
Cd 11.59062576684333 5.99516192970593 10.864794439942674
Cd 6.466934462995132 8.22399620808422 12.257128868008614
Cd 12.048426754800525 9.539494909345974 8.341840674634653
Cd 8.22799020631615 10.339290625292001 13.260168808604664
Cd 12.257547011903949 12.970165497042945 13.32070149451254
Cd 9.866282157054023 10.31434187662266 10.564892556965102
Cd 9.580770540396065 7.474523136263159 9.308854232431626
Cd 6.625761490251051 8.729299352358554 9.336441053386467
Cd 14.676932124120915 10.648134016920107 9.575343603413385
Cd 11.304538225195987 12.390031674114013 7.6094405061357016
Cd 11.208938878275047 12.976938456963474 10.49712759361126
Cd 14.43918779433506 13.217924494958714 11.296645468528167
Cd 10.29977015371418 8.048492618262975 12.659854542300398
Cd 8.39495546402401 12.856508457989376 11.469454337079314
