27
Energy = -9.43206971 eV
Cd 13.070779571075017 7.210775558732304 12.596436497875674
Cd 9.965744229273957 10.628920903372922 7.6347497622373615
Cd 10.472859373699213 12.787575023740487 13.828477453220428
Cd 11.462247592015856 10.07966988201778 14.717392295676772
Cd 12.860418653823217 9.55049386783851 7.68851205663141
Cd 12.195325479466794 13.612323240352948 10.187661911727634
Cd 15.273743828063612 12.980884463719473 12.034218701654765
Cd 9.884527608453771 11.676495242762474 10.399353781703626
Cd 7.7188953218561585 14.948005979358413 9.765120167451958
Cd 9.773069845048488 13.958443762093989 7.913737405712499
Cd 6.2729822678821785 9.511160259908 11.259063690961742
Cd 8.642040566934774 10.511207887325295 12.928892627775593
Cd 10.866456182143978 8.786736002914001 9.999180095756548
Cd 16.507972767874534 10.16287894740916 11.50613905258317
Cd 12.397602409780669 10.782173703369676 11.86724341045219
Cd 12.87047006106671 14.679626415886371 12.838799820341185
Cd 8.242802709913 7.361041768568497 10.639781250005491
Cd 7.025848787878543 12.399483276427725 11.073573357616041
Cd 9.877863722040503 14.872582094908777 11.80059402924702
Cd 13.861075106936344 17.090331928241554 14.376205833136348
Cd 7.3990082298303825 9.46029585113822 8.464480402030974
Cd 14.517091708770673 11.749142792468005 9.397220227116096
Cd 10.054636892220167 7.815666204943025 12.995960905100578
Cd 11.968650867629178 7.249878019783516 15.406688932300987
Cd 13.610874914496696 12.13346887284242 14.37365230364827
Cd 12.320573740067523 12.52149213841923 7.423635681611284
Cd 14.04916007451353 8.793958501403466 10.367691177156365
