22
Energy = -7.41412951 eV
Cd 7.3909288406101945 11.82068236426584 12.854086433421696
Cd 8.083070157408 9.134159726580801 11.633310417412085
Cd 13.683722544103384 12.906492762715152 10.036590366334504
Cd 4.944880252500254 11.293947382819521 14.566467753128647
Cd 10.060162092972028 10.228592208857798 13.719081751240665
Cd 9.957768980060225 13.24758030722066 12.574946151841011
Cd 11.590811713253958 11.121678396488113 11.208920224698858
Cd 14.545775646114853 10.81373571200518 12.076892899267023
Cd 11.92119866184187 14.997383448507923 14.087027314418737
Cd 13.482530970336603 9.776390114017195 8.84099549189685
Cd 11.204870134003599 10.972750842636401 7.014488602976075
Cd 13.10191295654059 8.727138283248305 14.10504578027363
Cd 7.824730331798317 11.815909339537074 9.884469415982535
Cd 14.383589749491403 13.812597986597046 12.831010852036455
Cd 13.565549035128287 12.730796182556219 7.1376797170012845
Cd 10.4254227045164 13.153298245257945 9.318706067679656
Cd 11.37993392003581 7.5658986502840255 7.295829935077868
Cd 12.470622818580228 11.849135827531288 14.238453552236317
Cd 11.902554862815196 15.218340706071425 11.000105755530283
Cd 10.96846089337389 7.999994613769089 11.744632706726854
Cd 9.917707537076513 9.556037069663601 9.280155466427544
Cd 13.904848593632957 7.968513225563693 11.262156740585684
