26
Energy = -9.10880204 eV
Cd 13.122566163249916 10.694836949685731 7.442664989454112
Cd 8.382785543780079 14.319276108516641 12.175385414307392
Cd 9.110602146843593 11.686061504892853 10.615554728571016
Cd 9.570663651283425 14.720107532003349 15.087101436241845
Cd 12.044819772411252 10.672615663930205 11.096999349010959
Cd 14.246801412633392 14.525145183423241 12.065346617063087
Cd 13.003441040765749 9.289737013484613 13.722488292324721
Cd 12.474587464403735 13.575854366240126 8.1184319445282
Cd 10.037049448177195 8.586662780068787 13.393435249227235
Cd 13.502477437959525 17.453025308801262 12.039088261233164
Cd 14.367166546597236 12.221990234825569 10.094679635892932
Cd 10.433618922931474 9.087246708232572 9.255550678378134
Cd 15.427642785882973 10.00361467113247 11.825891178236443
Cd 12.365502746249026 13.95382211423509 14.377103895572484
Cd 11.830895862008884 7.306308185909585 11.353741049796913
Cd 7.862057476326344 10.69570565272849 13.377725415546223
Cd 16.814967102827545 14.371951688972855 13.78734307221728
Cd 14.46623928786985 11.95857482516818 13.840748562793133
Cd 13.90808475505884 8.677255055972703 9.429312078132767
Cd 11.48055228461337 13.661214614534142 11.004058133860942
Cd 10.804395792994605 11.575941246080996 13.608454850833954
Cd 8.050981811084776 8.800709442598404 11.080602026237834
Cd 7.048435441526497 13.146009963913118 14.86786498930698
Cd 10.209353077455265 11.692261584211357 7.713256423005189
Cd 14.74327624679395 7.127576499247215 12.00158898654946
Cd 10.785387501174508 16.290846824094967 12.719934464581442
