23
Energy = -7.45963435 eV
Cd 11.652975333481342 12.705951146381453 15.083222858825636
Cd 9.049347562639639 13.211929408222762 16.515289189077183
Cd 13.951965201412557 14.1453573681476 13.446137002956409
Cd 8.180949292726298 7.846320722327877 10.383272245992073
Cd 12.162000582960134 10.847104527781132 7.965900935033024
Cd 9.888348903921777 8.893287144002999 7.543609484675381
Cd 8.872507077849257 10.93372050503903 14.46071603653762
Cd 9.68828733283871 14.26047465385493 10.495504228203513
Cd 11.711839690645329 12.662277272482267 11.961126104241847
Cd 14.321710390712445 11.379116109529352 14.872741632459784
Cd 11.880716200007257 14.118262547251094 8.415833465720747
Cd 9.47290534965035 8.378744392745466 12.992608090520308
Cd 12.037766409010015 9.945461024623553 13.429490903462588
Cd 16.003582952167772 12.066196348772852 12.293120930139873
Cd 10.674257876107994 10.094666158477942 10.552964894938745
Cd 8.835247756109547 13.817302432221295 13.428869868639724
Cd 7.602019223259339 6.854873883287205 7.523516262721606
Cd 14.206798308961321 13.721139242938813 10.432251155539088
Cd 15.037521879394957 9.136997312098261 12.935263738090015
Cd 13.71614428038411 10.606214501236904 10.655798270185771
Cd 6.975041928791797 9.858109738022964 8.42201080608922
Cd 9.372573112941971 12.071202341096578 8.477818524489292
Cd 14.578154370728702 12.490426954329147 7.57338979839303
