28
Energy = -9.59604974 eV
Cd 11.83350181969107 16.260543349141912 9.638349549019095
Cd 14.612233785336647 9.122977356242686 8.531130715472472
Cd 12.218299856008722 13.142915671476146 14.10275127643298
Cd 9.87295370425702 11.98124256651582 12.392692564914684
Cd 6.859653962964913 11.357688815831384 13.363223192250222
Cd 10.436501064437266 15.576926514077694 12.279688254270123
Cd 11.86429677159049 13.311454067971908 10.476074801478862
Cd 12.039646667058218 10.404967883727409 11.061760596543433
Cd 11.708499633941004 9.748729295291195 7.883682350474984
Cd 9.394082784660494 9.926027555211933 9.80785639369127
Cd 8.944981199490257 8.888042065132428 12.848206661892524
Cd 11.749250075257018 8.117529920990705 13.353645559341624
Cd 13.605944660919295 12.08981842060305 8.203248380998689
Cd 13.961059174568248 15.29701894224637 7.701998571356958
Cd 15.09930341441585 13.830161925948794 10.116056310088007
Cd 13.771013295667599 10.515868612258492 13.734835038466798
Cd 16.618076921270863 15.796756983903226 11.882926078934148
Cd 13.960561460079076 8.17842383689455 11.320536243758314
Cd 8.342963264756923 12.220627433598958 15.743519353403203
Cd 16.202440150116782 6.178631664131054 11.455356977031613
Cd 10.134779642717174 15.146762335018591 15.278893259877231
Cd 15.25149515886279 13.1694217478633 13.17028427774671
Cd 10.82888040897552 10.400058421447271 15.084705485029852
Cd 11.037609218548901 12.766235549375532 16.98610973279895
Cd 7.973995195760944 14.1829930909391 13.184163729788652
Cd 15.306586784009747 10.905753651606384 10.957960746680921
Cd 6.672986526342062 9.755708340108052 10.899897067897774
Cd 13.479892409400447 15.508202993552745 12.321935841466772
