26
Energy = -8.47090336 eV
Cd 8.693242478246288 7.446113290954418 11.143636168720457
Cd 12.516946769948824 10.473617184789655 16.777326646830787
Cd 8.175559701570224 12.92682385986657 10.668519417266637
Cd 13.870274351176128 11.376973587558513 9.600011583602349
Cd 13.100181629581082 12.025164577268976 12.49916400047629
Cd 11.122577846392474 12.661151822900054 9.980494893491214
Cd 11.766718680485972 9.63070879218414 8.013032582366408
Cd 13.361737666689804 9.132925958639902 14.084946662919139
Cd 11.322795907211423 16.105052809760547 9.347160858806925
Cd 14.792898798778307 11.688030331583434 14.986286248179054
Cd 11.608319612935492 9.432745651787334 11.022210626527128
Cd 8.787447952562578 10.124054547094413 9.779567953173341
Cd 12.19465800647088 16.299840471795395 12.418391399998116
Cd 14.467233457606362 8.408917830890264 9.563214764946899
Cd 9.92893908287755 9.882420818523705 15.42054750463713
Cd 10.758324891338498 7.778616255978739 13.430898130669627
Cd 11.361622928956978 12.695342256394685 14.89002594182217
Cd 15.54603171756652 9.970389264190558 11.969872118658612
Cd 13.426671005874505 6.911828547354466 11.964447901071818
Cd 13.622185373332725 14.359306876983766 10.496741500589444
Cd 9.025419291447422 14.66317633480127 7.917766949600947
Cd 9.788544225240685 14.399947313407216 12.927543909257722
Cd 9.642678371787817 11.144072595453618 12.698439816754437
Cd 8.45591284585468 15.926562766996064 10.606916743801051
Cd 10.1024577979671 11.96531876880668 7.066749326845094
Cd 8.85758720935743 8.867865085292868 7.023053950243661
