29
Energy = -10.56873448 eV
Cd 8.916080635154785 9.74310254498096 15.384480699249785
Cd 11.344161816435024 10.511858978168075 10.696912301641362
Cd 15.732237091111609 12.634800584709335 14.788525216460537
Cd 11.657033802822067 15.417136383571929 11.482961354212353
Cd 8.69132458399719 12.731054621964292 15.280607154346665
Cd 11.339555879683877 6.7978908164215435 11.41727027480289
Cd 10.354010492294421 13.358565450661162 9.445653775495993
Cd 13.208502048099794 9.783526152893229 6.998371853528435
Cd 14.168804357068764 9.565161179215298 9.862912963246076
Cd 11.966942772910672 12.209570601105026 13.146426016500978
Cd 13.684015761750924 10.293647483115683 14.857325484685473
Cd 15.258482708353954 11.87044039210866 8.153775767757262
Cd 11.106301746978215 9.075987797055095 13.428243978939795
Cd 14.066100087196206 17.707932825667932 12.392483168107232
Cd 8.993617987028076 14.069333910449146 11.999208080578772
Cd 14.09534487263025 18.259596279776652 15.465041381833245
Cd 13.930009056644705 8.325626045245157 12.575706689906903
Cd 11.493537440097704 17.526788449444 14.092364678226355
Cd 14.23438417344132 14.501269213394318 12.833938878314905
Cd 10.272490486828854 10.72309718549753 7.827911939603594
Cd 12.521761423133416 12.8254169718551 7.315231617651999
Cd 11.27031469806849 11.091961865891887 16.557685553221724
Cd 9.085376258203322 11.192819371460008 12.54689782253593
Cd 13.29081124424156 12.95357804925835 10.325231416243708
Cd 13.004571404726756 13.43822468465612 16.05460917236084
Cd 14.984982464392244 11.275746862865626 12.239547049547747
Cd 11.428948536701046 8.060643230430369 8.758962549751882
Cd 10.83281110137062 14.652845237482149 14.5010063883086
Cd 15.141912281382433 15.476804043403147 15.645133985686918
