26
Energy = -8.70471167 eV
Cd 17.392207853150126 11.40486478951993 8.78816469670912
Cd 14.239772412436848 10.943788849194156 8.77313481656071
Cd 12.057086051124571 11.95795562317747 6.99052114628684
Cd 15.599091702365149 10.60037123642107 11.485213028167134
Cd 11.394584324191865 14.997873394284891 7.476763407257627
Cd 9.397370771650086 10.847742777605598 6.352892325723663
Cd 14.277530668150758 13.263795480100374 11.694346890084699
Cd 8.696063807495468 13.173502398713696 8.154025287004295
Cd 14.308275756342642 10.836637433057653 14.277110741409109
Cd 11.029817460702752 9.869137165551374 9.262009098662759
Cd 11.886004917257639 12.791009551161538 9.964269540508964
Cd 13.439023488362412 8.688287181223377 10.846484716264772
Cd 7.935752162787508 10.218659235211508 8.891552468429536
Cd 12.268635792423236 15.646146055086424 11.934180157023803
Cd 12.143951171854972 13.09260052145682 13.887049719007496
Cd 10.7720614400658 7.5358684658720465 11.723897041715535
Cd 7.959382409343341 8.89337631063942 11.556773242162803
Cd 11.496973641037556 10.513582296322348 12.370520987470828
Cd 9.039925290381623 12.045699622407163 11.22755393504068
Cd 9.794439766816042 15.010094752877938 10.244580928276697
Cd 9.496503971275972 14.568430529054845 13.219815261807735
Cd 11.934949591191325 9.568537242097934 15.515469359842182
Cd 8.308296934069443 5.920559389516537 12.799354715058653
Cd 9.231871097907804 8.56494991358289 14.301156915723372
Cd 9.26023908779531 11.737941632555918 14.286509488064654
Cd 9.268877064718268 10.246069875369258 16.938206719928118
