25
Energy = -8.82493532 eV
Cd 10.408736650596227 8.414442273346936 6.6194528965065995
Cd 12.137308387948973 10.790955980507716 7.145254873062226
Cd 8.995636618701319 11.029322404425338 7.205795716241697
Cd 14.696107103418381 9.564982045796722 8.47012357887907
Cd 13.690926566198085 12.59607679676292 9.005895492321905
Cd 7.606008596171083 13.93096649850752 10.103952303169244
Cd 10.790561230464975 7.7493730208883305 9.445824897873468
Cd 8.934682577339101 10.340219665320289 10.315680266891878
Cd 10.341479133640636 12.870808297921998 9.359185540884527
Cd 12.419560822294427 14.971901298773831 10.316956214745467
Cd 12.066620748678764 10.393561770830663 10.338624161456597
Cd 16.03209084373639 11.102932945348375 10.897470893045874
Cd 9.476363321185705 7.947422217359881 12.127166555317336
Cd 15.278779535796643 8.20535817313481 11.184592723138694
Cd 6.237449254753703 11.543216282773644 11.189772468875027
Cd 10.813806006978034 12.046196443386432 12.501015494009149
Cd 9.934888937468235 14.822434122371352 11.932901275484028
Cd 14.04662641855525 13.10246980885498 12.022635358955512
Cd 12.481027128522737 7.868082870783577 12.027116530710412
Cd 7.457829407241073 13.452328131279325 13.264579817236068
Cd 8.363097482988026 10.491095029934034 13.370369780027316
Cd 13.287861342811961 10.532156377395042 13.309267365601691
Cd 11.78567641276028 11.51461285951196 16.212995453719838
Cd 10.863230472495683 9.141412979095088 14.475355939867486
Cd 9.832973766208507 13.557000472643963 15.137343168933615
