24
Energy = -7.58643606 eV
Cd 12.408467026411412 6.877371721721229 12.36029525056188
Cd 15.222721238085388 11.37704761817993 11.723279783042356
Cd 11.217433367624604 11.273121621218667 16.2591314438239
Cd 9.838654420628304 11.700710744499602 10.69637284401007
Cd 10.520719496736145 14.579063148341808 10.066046391885255
Cd 8.588893446321578 13.926030507739664 12.386737396666057
Cd 10.28580656147989 15.263087146108111 14.658025732390621
Cd 13.161852713980512 16.079842306724558 9.725954546388163
Cd 10.60814604236691 14.05206145860391 17.349563213817845
Cd 13.548757292829182 13.345983697458568 16.95842591302616
Cd 12.51445897772589 10.110786477169697 10.669594957532391
Cd 13.992515403571181 11.118030464127854 14.583107603698233
Cd 14.80797460811248 17.89608648726481 7.889636310325441
Cd 15.967160947150218 13.391850256249125 14.994200303015853
Cd 11.962809659608535 16.44228430275987 12.363282371894567
Cd 15.121198901577829 8.221231531568145 11.83866253093661
Cd 13.137992005212217 13.481132319033776 11.271719041874269
Cd 9.035940637396356 16.859005109934486 12.186390504461755
Cd 9.826298950426283 8.835425921070287 11.560662142153738
Cd 11.114135978730742 12.493887752547439 13.414198241962893
Cd 13.353217964367973 14.56899184769893 14.15752014726224
Cd 17.834528165827354 9.950973057298217 10.887690730917441
Cd 11.571330650147042 9.49343791416506 13.885423939717606
Cd 15.221265077900213 9.52483612273521 8.976358192853423
