25
Energy = -8.97612779 eV
Cd 16.486912353128165 11.906869125476486 12.345022844343333
Cd 15.651997739436302 9.254229491740457 11.26913693797881
Cd 14.068289869906076 6.768828938797882 11.25989689580377
Cd 13.639219085245625 10.236739614212949 13.472374125535161
Cd 12.144120335246503 7.55706131105005 13.37238475538551
Cd 13.789721577424455 13.245821491682392 12.62039844308685
Cd 10.977541808770054 9.89425834127808 15.038685242324783
Cd 11.418706858275742 12.83492424583277 14.760232690479837
Cd 13.418485786192045 8.401990867084342 8.805866029805447
Cd 13.065690350580427 10.966123486273379 10.454141711156485
Cd 13.653808013407255 15.772141168943126 11.027869823167752
Cd 10.27848412626699 9.437236068905586 12.008639557396839
Cd 11.124963419199961 6.742532895366425 10.31981270038716
Cd 10.426292601618131 9.513041022776298 9.07937669144218
Cd 10.94035160083702 12.38555495274794 11.862095271514601
Cd 12.304383351490397 11.50689712010162 7.577430199956312
Cd 8.510794968980758 11.338090931373458 14.107763683815659
Cd 11.827272598509476 13.90887372867153 9.343213983304137
Cd 12.13376241043995 15.64272620191826 13.715400659984821
Cd 9.313156734048112 12.148297848943319 8.08241166206419
Cd 9.20846939140922 14.692801339503754 13.43646203087203
Cd 8.069457324311726 10.978041025439532 10.69981575406175
Cd 10.673235646629948 16.302811678297918 11.054269623149233
Cd 8.84777566299732 14.077264414800396 10.401434271495175
Cd 6.661211793336844 13.120948096469908 12.519969819176358
