27
Energy = -10.01692725 eV
Cd 12.51533621959257 8.344523333619385 11.949636659144904
Cd 11.304036068761965 7.422182784981957 8.443903320266594
Cd 11.738459866409938 12.09214497337857 6.748525131538313
Cd 15.08843044032594 9.561978857731878 12.809740789640925
Cd 7.47666055361013 8.26930631506787 11.933380188841776
Cd 13.566869807367606 9.269383279919461 7.232002573726392
Cd 8.45399667725101 11.0835922788878 10.889793032976195
Cd 9.990247894522119 9.557779357448714 13.152465624511086
Cd 9.858494328587588 13.276187848542785 9.036708100189697
Cd 13.113307042961914 12.784062443746546 9.295259850826733
Cd 14.064183120113805 15.35138809270993 12.32700144383768
Cd 7.76409839593922 11.868416065860897 13.985857066173063
Cd 14.859763714038056 12.478605545741853 11.859621453484158
Cd 12.677132689384052 10.512912056950594 14.379236680410576
Cd 10.960660914167482 9.225355983931694 5.870757769457826
Cd 8.29628595357931 8.1326443901442 9.036544125275174
Cd 9.139786172504031 10.651461514773013 7.819727077695922
Cd 10.506630353658979 12.71789689217355 14.913469199952372
Cd 10.025658211141014 6.802351826256667 11.208412306247416
Cd 9.201049632957064 13.77620321757026 12.097815997020993
Cd 14.340298669410632 10.096472179056603 9.970957590172013
Cd 11.553094465566998 15.144799023995501 10.670225283619107
Cd 11.314037305313795 15.476189256977202 13.730913522883196
Cd 13.522328232797133 13.386654134065006 14.550508223833146
Cd 5.9331224962708164 9.546427802029402 14.0982493053742
Cd 11.749272214564527 12.142741213332776 11.980726902420166
Cd 11.269725205958425 10.118902395596155 9.906141353255938
