22
Energy = -7.36803942 eV
Cd 9.56215273146486 13.274499420698705 18.8411048871473
Cd 10.635128729568315 12.878460316189551 16.062674022298285
Cd 12.342496289363897 10.85846556065246 14.69117411394827
Cd 12.4994302474143 14.026583450833355 14.127164792955881
Cd 14.865295099354144 12.063865929040146 13.360454987865918
Cd 9.65918940080155 12.410308630208652 13.331429821194016
Cd 10.900703813810082 7.374291219263874 14.975782169450719
Cd 13.8601955542344 14.436142438423794 11.575096221251645
Cd 13.602735112797964 9.466424672833455 12.166872242669152
Cd 10.750228294567389 14.875862032559846 11.677389055922413
Cd 12.072592644244665 11.966407067939217 11.305190168090327
Cd 9.728896763983808 14.916076585470721 8.839785535793453
Cd 12.70917459456499 15.43159608124037 8.959735942541966
Cd 9.228758593492067 12.27844873300302 10.322458756415632
Cd 16.082418673864566 10.856613611196146 10.785227159536438
Cd 8.356014963107112 9.288255004026217 10.60687320774732
Cd 10.544601303834499 9.537335314735456 12.598037600183687
Cd 14.706973644083574 12.980954244840724 9.087472584585523
Cd 13.507465202673103 10.12245078863804 9.12258672758998
Cd 11.691354768683587 12.623139289317859 8.196575248704033
Cd 11.748570804075586 7.851405952231947 10.287122156143191
Cd 10.42158190583259 9.958372792474004 8.555751733781417
