29
Energy = -10.06628325 eV
Cd 14.71839565708723 14.397912097498395 9.943121288645463
Cd 13.012307301612067 8.151763963465628 10.88333028380277
Cd 9.100459197667108 12.35817844074887 8.631345433298987
Cd 12.146597115105864 14.438478836389764 11.936865804250045
Cd 10.626204039257786 9.259672511294584 12.628525448320191
Cd 11.82207203414264 10.120102510496253 15.495860429885246
Cd 10.800813502711073 10.040778560299351 9.598977814181621
Cd 12.945007730865733 13.101511780490206 15.788222045489889
Cd 13.202573416275241 15.73794956573361 14.518310357811158
Cd 12.72520630216683 11.461483383507572 11.613091845652711
Cd 15.672576153412162 11.503777061327296 11.251979684323649
Cd 15.197130410688137 12.126339572646042 8.20981987053549
Cd 14.719293351302069 10.5120345381326 13.95044485058414
Cd 12.13290253560665 13.016528344299743 8.958926520781079
Cd 15.129386809512097 13.521463625290263 13.413647720623828
Cd 13.052654855460768 10.148258872820426 7.76467544721486
Cd 14.934376193433481 16.295744142017007 12.08324408257946
Cd 11.755662531603864 11.537228475754405 18.288154248735786
Cd 8.483487049201287 14.58231442982692 13.983267476043268
Cd 13.132881222055314 7.957571905767935 13.859685976306057
Cd 9.614591497256733 12.74472376034196 16.485762117037293
Cd 10.333812304569761 14.438265161972296 6.583345776322089
Cd 14.584122173295244 10.772167217065059 17.055870636835138
Cd 14.354206481779524 18.533724284956016 14.149641885055923
Cd 10.523754336422744 12.15063246908018 13.572278858688582
Cd 9.311911713736842 13.852398886574182 11.196169726769156
Cd 15.409245152264079 9.117799370863318 9.460720178895182
Cd 8.407988157840766 10.940632722383192 11.323376277964625
Cd 10.585774202201664 15.615956937490989 15.806731341900894
