20
Energy = -6.49592995 eV
Cd 8.525534595590663 10.722451266831586 8.95973712392082
Cd 9.770884691064955 10.441792474134811 11.6748019948156
Cd 10.261981091169142 13.094559178767582 9.62264236073526
Cd 14.528289483354142 14.921396286448784 9.047774984980519
Cd 12.754074635413348 9.413811710794231 8.261936509303693
Cd 9.798987301549177 8.693901202137997 7.1409308159255485
Cd 12.954352532646997 8.033708650330333 13.907047635412644
Cd 9.43110523228903 14.75232117390814 12.137569884327553
Cd 7.383817099043768 12.713750230909431 11.067425738868844
Cd 13.753159874025943 8.622766648394117 11.077724442394715
Cd 9.510586443360378 7.776750993679352 15.935703305225587
Cd 10.822823878230187 10.15453286743885 14.48761315857679
Cd 10.826840102560945 11.578592812299608 6.951675129099547
Cd 8.605217319856905 12.351755437214663 13.829741817895277
Cd 11.661258623119728 12.734391715061562 13.24462220729626
Cd 10.564849667249524 8.127903491565801 9.975928019915724
Cd 12.366965629784403 14.70745571728807 11.10475481464992
Cd 13.530834721319437 12.37380721852965 7.8559633192586515
Cd 12.558603790872827 11.361875392449823 10.662283126600682
Cd 10.2249750635745 7.257617307891445 12.889265386872356
