28
Energy = -9.43188682 eV
Cd 10.178425315466107 10.397521826334152 9.06592803077193
Cd 15.17442266517487 11.221642241504384 9.128319120849229
Cd 9.000405595284072 11.562439205844505 11.75093473895515
Cd 12.979947980927268 10.032576423024524 7.57076431526403
Cd 14.154865932390509 13.821784331062 10.40362696422802
Cd 6.645824849848211 13.311607333077005 13.98077362399983
Cd 12.223746824829602 7.673668446908178 9.360808266974097
Cd 9.58396138880848 12.829859222062861 14.45960035152326
Cd 14.370155872298534 12.149299415844059 13.981760440882697
Cd 11.332559185400095 12.461166108732813 6.621444163257443
Cd 15.601519000253992 10.043550725649933 11.815816172453145
Cd 7.314163691262696 15.862526460345201 12.536368376540413
Cd 12.147270634333218 15.835173569740993 14.897042649260925
Cd 9.107580407574686 15.76182554770667 15.016881151503528
Cd 10.516611248373318 8.910606935577187 11.857919411447986
Cd 14.626270399973212 14.99884661534619 13.175052033641705
Cd 10.373299103058237 16.751711875767512 12.289947234286306
Cd 8.944608927925092 14.340148066370865 10.583177981582168
Cd 11.430850167269185 13.186483909258333 9.494585235561294
Cd 14.243023958553847 9.183566511864012 14.468113980307466
Cd 9.860013100063503 6.017462585639603 10.907421398298895
Cd 11.730693246597482 13.88891153198319 12.450846508854692
Cd 13.866722773791704 7.471595955295848 11.882334903633064
Cd 11.688556873572601 7.59567098882495 14.263036916545415
Cd 16.633045266802704 12.909397609866804 11.910644921551048
Cd 12.697417165354132 10.943095970961542 11.20584619559646
Cd 11.58898467800683 10.808106113833228 14.12959544531976
Cd 9.363653198837 7.562617857561751 8.114986736570907
