22
Energy = -7.01945424 eV
Cd 13.949091166647982 11.937213381849466 12.742125559526727
Cd 10.974443450501603 12.320869463124646 13.682416070987816
Cd 8.87621705896606 14.370803549732138 12.214487395236944
Cd 10.551433038673032 14.173252699180651 9.599156244166453
Cd 12.143308637379882 9.488408668717842 13.307070087263622
Cd 14.64606557818314 11.491249072960276 9.854825817345725
Cd 11.130597259201602 11.094455559109216 10.776995446626083
Cd 8.543314174410146 10.647443795756953 12.65414852732583
Cd 8.099999761136354 12.148386659579756 10.071719494173976
Cd 12.15742263415457 12.189748516820723 7.991134643791454
Cd 9.079842304000316 12.839094081547291 7.225933614831124
Cd 6.655239137854561 8.463817099663167 11.899544786875918
Cd 12.697605538230865 9.22967119464501 8.883142748464483
Cd 9.616279869450535 7.652357544901962 12.87096843163444
Cd 9.203252265219488 8.519938594343937 10.010492051391227
Cd 6.771170364696603 10.575541720510659 7.935553371088031
Cd 12.189634273190148 7.341214908160739 11.197015677455967
Cd 13.1796607762489 6.174724917946318 8.471302641219658
Cd 9.86267762833154 9.94717600400461 7.41337097990185
Cd 5.224610965147543 8.424055589369793 9.368238579613863
Cd 10.42010687840514 6.909217290241609 7.622151961554845
Cd 7.443185810610148 7.4194789871848785 7.6285391010471795
