24
Energy = -7.90286632 eV
Cd 10.716993571753719 8.739271944859459 10.779300543400387
Cd 13.262835337556123 8.65111593326137 12.640386582899836
Cd 15.929124755168443 9.816290381635545 13.09997119320667
Cd 12.92697225163172 10.56593782020213 10.09055438386244
Cd 6.993985811239544 11.10121275680666 9.696981338254401
Cd 11.643583008118185 13.399010061220249 14.919132817197998
Cd 9.275056694510475 6.908469681733702 12.791118148522681
Cd 13.896730948532216 11.612417518112503 14.332373562095853
Cd 9.613109927683983 10.23717093856881 8.341678215981995
Cd 11.950919487941377 6.373343996037258 13.9588958001234
Cd 8.506745308428478 9.850769355911153 13.096417894263531
Cd 7.596502283892731 8.344524429033754 10.61055758159779
Cd 14.154007148217696 13.136564737381871 9.109677199342675
Cd 15.65198940453281 15.327408902142777 10.881637564436033
Cd 11.199625296347905 9.737992326406927 5.61603943287241
Cd 8.551891267599068 12.769029062105295 13.439899405776146
Cd 13.065293622017549 13.931351795503156 12.151636912256173
Cd 11.691727411010971 12.278788394209768 7.535157652613369
Cd 11.441089038988542 14.615243272376896 9.439034854439301
Cd 11.241110126799516 11.240239634627997 12.604556551040154
Cd 10.178488578848343 15.30646600658506 12.025271854946203
Cd 9.47157356641319 12.570606694951241 10.403774014459932
Cd 15.67128714574758 12.244928135173062 11.512022590161576
Cd 9.368140159506869 15.240628373640712 14.922706058736882
