25
Energy = -8.62315431 eV
Cd 9.428500303287864 12.104974183368894 5.908699695838219
Cd 10.516475226946122 9.252788906409034 6.790303498212574
Cd 12.404488380914115 11.617124758222268 6.78724107115363
Cd 7.995511208191209 8.070487321450088 8.077873558779942
Cd 13.312835044459428 9.948965800271793 9.196788310328058
Cd 14.477230472029056 12.688222567532675 8.842373881905432
Cd 8.816796869133453 11.175878335535183 8.801113898973078
Cd 10.710442526927181 8.31895801721763 9.838963042677143
Cd 11.440648236748679 13.182842614811515 9.19831999401309
Cd 11.240150723189675 10.913422061919631 11.306570865257386
Cd 7.646967408361672 8.922647290069001 10.923562188542894
Cd 6.6598182122081715 11.747528713421387 10.914615588086274
Cd 9.303025194707633 13.20717089067117 11.272533518915319
Cd 14.60605912724604 13.45852082047249 11.671896546603676
Cd 11.819977420523239 14.958197340766382 11.798884027057248
Cd 13.764330593863269 7.98520694737081 11.37235796937513
Cd 11.51476187864501 6.008948478354907 11.833550201314381
Cd 9.878964023787766 8.411955602647952 12.927512044445812
Cd 12.877940258660546 13.436704511412009 14.271838792333915
Cd 11.288676905373555 10.731498998135864 14.482909438354651
Cd 13.932944097086066 10.69689321056625 12.823577970833288
Cd 9.775662702317321 13.465292799079789 14.470048987354504
Cd 8.335741530731422 11.030639808761824 13.337517627198146
Cd 11.245679677435426 16.270146351447405 14.537586654061247
Cd 12.66441155782594 8.053023250683914 14.271400208984469
