21
Energy = -7.167097 eV
Cd 11.62937961419048 15.054228725461595 9.600501753068272
Cd 13.859092865655128 13.090487040223461 8.971493513949008
Cd 10.96430803282084 12.531202962064299 7.8996635445849
Cd 13.830497456431413 14.119066754576075 11.848938981897419
Cd 14.89998184340083 11.315540205584561 11.363741603199312
Cd 10.94668963890828 14.673741785226504 12.578731890421375
Cd 8.599956866223755 10.625400903618786 7.636185145554641
Cd 11.126329763106757 9.008817271149386 8.033095079607811
Cd 12.217470816302924 10.794734691089275 10.12001423481664
Cd 9.828359177055274 12.634077871704205 10.779671683267477
Cd 10.690722151763218 5.897630087659246 7.511687433535289
Cd 7.514578038173578 10.841221723999121 10.396298459877881
Cd 7.479232178371853 11.647895092190284 13.252274254162218
Cd 12.156677221888945 11.884410873774845 13.092041342398298
Cd 9.909386449134525 10.953944403571075 15.063156354119698
Cd 9.015434552937274 13.83186235531344 14.58194936227987
Cd 14.409205698323488 8.553004051134115 12.380762474419786
Cd 11.997793993409363 7.709570432351673 10.740888265150943
Cd 9.951337046659233 9.824866859726312 12.133937066819138
Cd 8.93218415712532 8.09806301743331 9.85780596346673
Cd 12.100571960745157 8.969422414775266 14.216351116030129
