23
Energy = -8.00383025 eV
Cd 13.940150156712825 9.13103866548788 9.005565679111644
Cd 13.2159080834703 8.506212627705235 14.05672191740042
Cd 12.103321107812418 8.036785795832756 11.041786077378283
Cd 12.988009029267738 10.978363838537597 6.84273857246853
Cd 10.864860420752189 9.156735243591417 8.412038607093635
Cd 10.331387608476389 7.876070550474519 13.554121421758657
Cd 13.883341946804515 10.460859136868944 11.852186845224402
Cd 9.199755899658056 7.215152352211878 10.858904252085495
Cd 14.40787456458251 12.257582940402159 9.199730682929973
Cd 8.61581792088413 7.381342300567262 7.741702829413284
Cd 11.49460778364138 10.9902268652333 14.003300475211715
Cd 14.693186815217441 13.346091719101834 12.068938406991867
Cd 8.78673276000695 10.21235454694597 12.434891805241133
Cd 11.114163958243807 11.206678749257975 10.80598740890942
Cd 6.569835334910804 8.17757121121056 9.823982517702477
Cd 12.317575074768726 14.282478090329231 10.476838629619108
Cd 10.023401048693437 13.290430915795342 12.850361374925349
Cd 10.7079580356062 12.438853433236618 8.07579405597668
Cd 12.535352477117106 14.661444564540815 13.701647314438276
Cd 9.333818579227849 14.27519888010884 9.984871703317925
Cd 8.274236982296072 10.83802547456772 8.959019119581093
Cd 6.081388377200585 10.697001509144425 11.136051883892854
Cd 7.224518542198167 13.290703096397321 11.820020926877381
