23
Energy = -7.72917219 eV
Cd 15.381726215422072 15.104766937110268 10.921870072546458
Cd 13.504649013766107 13.423882495221465 12.989204648829077
Cd 12.306874902739695 13.474541113880175 10.13396175072678
Cd 10.431043496499669 13.823541687715325 12.5884560311942
Cd 7.213359264092909 14.160365161225487 13.126307939331559
Cd 9.401724441770186 12.872115928226119 9.834319616435986
Cd 14.906541514024411 12.211530908754359 9.375151627893004
Cd 12.275140578627044 11.440835551506952 7.76676923037267
Cd 9.001079236391307 12.527782322839228 14.957569724758429
Cd 13.865745712312663 10.424774179368764 12.479731238240927
Cd 6.3407641803595585 13.289678030782905 10.444565386943554
Cd 11.338220379060527 10.597404026066574 10.795810570979743
Cd 11.667251703461156 11.374026522587892 14.331273230761385
Cd 8.889069073943528 10.660816694460719 12.614387833518627
Cd 14.778831681172193 9.27564114948046 9.837621002691188
Cd 7.327352909499323 10.411675519729396 9.858572535661375
Cd 8.348845790645665 11.79091193812174 7.2777446758493864
Cd 10.03285758456754 9.438198113201251 7.905044577557121
Cd 12.238110257232414 7.876311312705593 9.102413482918456
Cd 13.579294069632153 7.389102991228061 11.879557178824236
Cd 11.31908654949552 8.470284098114318 13.644366198554453
Cd 9.380642713135739 8.303811833061387 10.69334109105991
Cd 10.831939103124045 6.018151855587309 11.802110725327225
