22
Energy = -7.11044689 eV
Cd 13.823185686512044 12.695582347763555 10.195634740306831
Cd 10.193835276293989 14.265941698529756 12.668058245385902
Cd 8.855092145737931 11.863996776189882 13.835695971051763
Cd 11.244816952181909 14.736240715746936 9.429921237060361
Cd 11.379682185426148 8.445821870860682 8.875363434448616
Cd 13.817973798383736 10.272984566221833 8.411711929264102
Cd 11.711036076826659 12.648681849412123 14.75956980560213
Cd 14.165648239353605 10.249218913405512 12.082574012004844
Cd 14.440049567902355 11.623624840822329 15.815263333633938
Cd 11.399455917115223 8.512162199666095 12.00549147264412
Cd 6.892201452979401 10.203664865159299 6.188257582068213
Cd 10.046868711118329 9.939564726761883 6.524816336706373
Cd 12.51963532074242 9.57030744647206 14.631936002248436
Cd 11.114921765293106 11.809887234380096 8.748994780074748
Cd 14.010482295073803 7.9012355024346 10.258759106785934
Cd 9.188944274623402 9.97658416312755 10.276592599872828
Cd 12.948152278577284 15.235583307742457 11.877874882410529
Cd 11.298940808851514 11.585427215410713 11.743086550201657
Cd 7.384003419119416 9.584352903972531 12.555820029927519
Cd 14.56388163328979 13.073456491326937 13.145429245118027
Cd 9.575662140074714 9.001840531865575 14.606176424896976
Cd 8.881697438276897 16.260007216481753 10.819139662040811
