20
Energy = -6.37809519 eV
Cd 7.140513046968681 11.96544431471477 12.567004464900949
Cd 8.42642306513923 8.833983509792565 12.06747748592864
Cd 9.133424121979804 10.888547111464812 14.526453568727389
Cd 7.796309749266838 8.12540011062321 9.223050852733236
Cd 7.680336366954117 11.162759429876298 9.392552205680738
Cd 7.519107115290987 14.05715215324652 10.465649302797708
Cd 10.710985329269612 7.578212699195786 10.025046281653966
Cd 11.549918613853217 8.451373391966916 12.843175362810936
Cd 10.043256010619691 11.3823525892653 11.48565267335445
Cd 12.146864701957552 10.511731917655334 14.948541451066587
Cd 10.093172757978826 9.814424481224979 7.864021154581676
Cd 10.335446421539578 14.792734009305445 11.13837519590775
Cd 10.442784720638578 12.650076040260325 8.654142644692842
Cd 11.312697213789974 13.226403679209412 13.608328862323281
Cd 12.699790545555802 8.26126402377177 7.611452949337613
Cd 12.36550421376919 10.035689034537516 10.117841925253217
Cd 13.873962231251713 11.045634773415749 12.61660790687068
Cd 12.890853705206824 13.27287392968452 10.73728934413644
Cd 15.569306022595315 9.413903327360394 7.222575840346127
Cd 15.035506261776641 11.296201688831308 9.650922742299043
