26
Energy = -9.23145939 eV
Cd 13.303041733246662 9.054859697491013 14.630156637417945
Cd 11.477965954940256 15.326102877673469 8.265374824810563
Cd 10.978584600808377 13.484779460875485 16.207837703661387
Cd 14.66515355570743 11.114083757640222 13.057301930485293
Cd 10.513207220179023 8.119018759514697 9.731033655429359
Cd 15.232345862704788 13.730067830940039 11.625225658979659
Cd 10.826750615684789 10.301215157898984 6.860315879601581
Cd 9.630445433583015 11.370689524832079 14.192355646827687
Cd 13.331444281683572 9.296477434757914 8.539192287322896
Cd 8.553089063092168 15.413582326321968 8.502895983295714
Cd 12.037249765425127 10.277225930027836 11.425539197179091
Cd 16.334076623460184 10.673333796841439 15.645468563021945
Cd 12.624042913478862 14.726745986081522 10.873056322347406
Cd 11.53916045429709 7.440124855424061 7.042497826654884
Cd 10.189654474656646 13.040486783776943 11.118748160128899
Cd 7.3670643818348145 11.57933736846811 12.396586079659604
Cd 13.671870297540194 12.105995305834618 16.055014564573437
Cd 10.475840337472224 8.32722038484848 14.598288130363116
Cd 11.150657150652906 10.424919880173526 16.75995467834999
Cd 12.14829630962511 12.837553760796412 13.3345161665459
Cd 9.133128032384798 9.1691665168623 12.0419481227053
Cd 9.693732353905688 12.951985948946287 7.168281227984064
Cd 14.911834703221036 11.212386002254167 10.048617524895315
Cd 8.915308686821916 10.773564137125291 9.316917496374117
Cd 7.342103896846177 13.342848497168951 10.12954062250479
Cd 12.344797517822625 12.297074238499343 8.824181329955866
