23
Energy = -7.85519146 eV
Cd 8.57660532611586 15.896579611743014 12.301937979893665
Cd 10.850168066085986 14.824148439281498 9.187178009559451
Cd 11.532160130078022 14.857758832319556 12.293366108743337
Cd 7.494650597331471 13.349459600781096 13.51589052380637
Cd 14.07449914960648 13.56002299924308 13.015752331095472
Cd 10.843938043984485 11.893728787932005 8.449562907625356
Cd 10.328542400928997 17.551105457421507 10.416770467474354
Cd 9.12917389878103 12.810813776955259 10.779290846876885
Cd 10.557029766432358 12.445411477976945 13.905148642993606
Cd 11.669224281238057 11.025288355140113 11.467474891108557
Cd 8.3464550426813 10.478228910869113 12.554344132596698
Cd 10.118298185982656 9.586387007549932 14.942327039085562
Cd 13.356525287342663 13.204613791069526 10.019717859503608
Cd 15.744588528216225 8.336368476278968 9.536826615704445
Cd 9.025517241378479 7.563441728708751 12.922962134454698
Cd 12.926140144485833 10.60742735229862 14.55075235552983
Cd 15.749182871663349 11.398738331457423 14.177629140158466
Cd 9.817540390173022 9.039810155336369 10.25422831154501
Cd 13.830608779845134 10.647258416857348 8.551495937664031
Cd 11.98499165378919 8.241642465986246 12.804521214193613
Cd 14.661647213649301 10.541319675231689 11.482138497833413
Cd 11.371611914720669 9.098380334234841 7.619664483744902
Cd 12.81492026769527 7.846085197533423 10.055038751014344
