28
Energy = -10.61629731 eV
Cd 10.426602695497973 7.338797744922831 10.676666299597864
Cd 12.245822827237108 11.839784122142635 7.582467071526719
Cd 10.013029843487004 13.19507038596254 8.993063798831118
Cd 13.738469811756396 12.0448138210028 15.314565401230121
Cd 6.841701195849951 11.239338061792177 12.248373283612358
Cd 7.868255448663689 13.228859762325895 14.230738965693861
Cd 9.968463738527465 15.237715420747783 13.213595415066784
Cd 14.66692705136066 10.926683118150592 12.689033247920094
Cd 12.557099139982814 14.971964089087825 8.893628824325374
Cd 12.194112369852375 9.639183127881159 14.61054614995373
Cd 12.503215449428197 16.263402339642916 11.590170823890947
Cd 10.8946911747293 12.806253490002536 14.893642388414687
Cd 9.113727269929878 10.49270153448127 10.250703607117838
Cd 9.82601472426647 16.03399849392777 10.241639240537182
Cd 11.477412100117684 9.20373274796707 8.627947403243002
Cd 13.459220198061367 13.875690676691264 12.994337033336198
Cd 13.416723116889829 6.967558723737407 9.809138169523507
Cd 11.975411321831064 9.978146125116893 11.550134722373475
Cd 10.849236471439665 12.62834544540562 11.842014707923138
Cd 7.889258983285914 13.726449578120615 11.040840355795387
Cd 13.498647548285225 14.219740989053474 5.951055028397973
Cd 7.991374333778625 8.285801387042362 12.121129798449195
Cd 10.297445995580537 7.349158655575366 13.787013960547227
Cd 13.228497185465429 7.429045178194409 12.826632551472404
Cd 9.337946692252705 10.413810586447713 13.852335690032954
Cd 15.594737885351963 8.54256554214312 11.167042331397395
Cd 14.477354373886753 9.91064317746202 8.774257206818149
Cd 13.525004884199936 12.438527009563105 10.316040603312603
