24
Energy = -8.70824379 eV
Cd 12.307715930573641 7.859549849268565 7.361676228039117
Cd 10.73981080151346 10.300700815274736 6.567097510505185
Cd 10.137504444306028 7.378457250106555 9.453798475473747
Cd 13.312826392831397 10.566436904629878 8.327605922944258
Cd 8.754648224813852 9.913914692061995 8.726464328487392
Cd 8.621387695631023 12.410704029801039 6.415771043709579
Cd 6.3776878231762995 9.861143391402276 10.449047844775041
Cd 13.090775141914508 8.080359254307862 10.270647458914077
Cd 10.066969265548845 7.826270923165285 12.46506034704339
Cd 7.446859382424292 7.107214900370448 11.123963944422067
Cd 11.021450904350203 12.608992104522207 8.725717238321478
Cd 10.919946496806965 10.267833138632792 10.811952628333517
Cd 10.287988285916615 14.441845811585454 11.087305103763255
Cd 14.605826678856515 8.685391292067294 12.692796359779027
Cd 6.379805842630656 12.152399106381756 8.54101379823319
Cd 13.747116114476343 11.354374377767448 11.214387091772515
Cd 12.295904772031102 7.712545490559056 14.324067757428654
Cd 7.576769106503546 9.465976183891678 13.17935155902699
Cd 8.36516206287296 14.33041679214106 8.748621744427552
Cd 13.207423154548536 10.659293379197736 14.493823665013627
Cd 8.435735377864606 12.054483359272755 11.215562488646142
Cd 13.397203953072285 14.32835768141961 10.352609664332237
Cd 12.040433384383208 13.16946206671859 13.10295651144667
Cd 10.207841883453954 10.808670325954765 13.693494405662582
