27
Energy = -9.35193487 eV
Cd 8.305173187963755 8.537114080429092 8.451711202502588
Cd 12.633206446168767 6.600852908599553 11.947140012886212
Cd 10.780302578391384 15.493915207393432 14.938935748176002
Cd 11.973426502722463 12.073835559170753 7.537200182642808
Cd 14.756911311613818 7.6448975126886225 10.136249341164271
Cd 10.54463078274374 8.853746743764821 12.552958161935663
Cd 10.703019880411263 9.29723957919323 6.788195014050276
Cd 16.49975392111001 9.564946647132496 8.34716195835527
Cd 11.415390353726055 12.656256192793007 16.160666369566854
Cd 13.366975910742648 17.1503778009731 15.969390462439549
Cd 10.434564672609143 13.348884663335268 9.844654454664544
Cd 13.774361867599572 9.208640844116523 13.068614785330746
Cd 8.995572859056631 10.522377168742219 10.62874198862793
Cd 13.47700839220573 9.40633809654476 7.95811591454419
Cd 7.230900878864823 12.316808992615957 12.383691800199104
Cd 12.191243554251557 14.617670991928717 11.975861652684044
Cd 10.914925510924297 17.371523105016315 12.30402296821074
Cd 8.994268584118155 14.947159331413104 12.352470543598386
Cd 12.169540619693672 10.850442496891189 10.441756233199618
Cd 15.268833832402354 10.84766311428083 10.698904381323922
Cd 11.075888480968203 8.031349028965844 9.639838747087136
Cd 11.477997201947362 9.846327669106756 15.184675281460914
Cd 13.692941553945426 14.254621532239035 14.888655868802376
Cd 8.942349766835482 11.645418128153548 7.831790793502445
Cd 8.617417689677568 13.262731360406475 15.030696136022621
Cd 10.58108533738424 12.010060948007991 13.021817524397314
Cd 13.79896276012984 12.20992257176403 12.790490171708601
