24
Energy = -8.15521324 eV
Cd 10.291283157433268 7.3802170530648326 13.3987587723119
Cd 9.454651004368321 14.072382698089017 12.289109075376587
Cd 12.168784151152112 15.646277571654094 12.76857080167392
Cd 10.636028393656723 10.449748486151087 9.91649546389927
Cd 12.939822616378958 8.243752603003047 9.219687850140629
Cd 11.16111956893937 6.318644608540778 10.660899828294085
Cd 7.658481431855792 9.655290061345145 9.78914271949551
Cd 9.90911757407285 7.851036488946392 8.365666886575491
Cd 9.094213368057165 10.000881630224715 12.458387019187986
Cd 12.428348089152049 9.125044785247267 12.026549092715099
Cd 8.576146727749228 9.591233244520028 6.429555953778598
Cd 11.61263859710323 9.511659423755862 15.114531302334166
Cd 9.807740086088812 12.147482752548589 14.585795535037052
Cd 11.39934376921533 10.623432749904946 6.908700177184971
Cd 7.662589603247889 12.568928577580333 10.46868249375863
Cd 14.52520701262527 14.157481417986386 13.9759352476482
Cd 12.703351013276848 12.553392681742704 8.952788024457986
Cd 12.712050381562996 12.2582178901352 15.246292738353205
Cd 14.37671475623422 13.865835119526727 11.039995132323835
Cd 8.298915004168025 7.119280122951744 11.149028515499593
Cd 9.794072389597 13.100639647967274 8.35697690395697
Cd 7.053493601198477 11.851695466207905 7.571283637500467
Cd 11.852644368686924 12.194189320246373 12.045958171546697
Cd 14.5106782160306 10.340690480510853 7.888643538800763
