25
Energy = -8.56169321 eV
Cd 15.460631829426708 15.247439175566106 11.260321898539075
Cd 12.538411226612402 14.886339785332146 12.032557095288896
Cd 11.90572545963852 14.688190354097273 15.586921028606481
Cd 13.865513181438148 12.30908402528416 16.20996189903464
Cd 13.59769207710473 8.120857983762853 8.892434696705054
Cd 12.304994075070539 13.166284532609405 9.265291882319223
Cd 11.529749945625984 10.110493274744682 9.580756909333871
Cd 12.205300369241751 11.782294579033529 12.136977951268747
Cd 10.097098467110872 13.558461311827608 13.389327285551017
Cd 4.804138030842311 12.394627096730444 11.774384345518696
Cd 12.327553576571999 9.074314121025143 16.50255671130123
Cd 14.736296588684406 14.446328986859513 14.164287404098099
Cd 9.266853805586148 11.903077216597342 9.179080779305984
Cd 10.70699434706102 11.430879938976833 15.46598572253838
Cd 15.153305966216625 14.160126706630168 8.552521026679385
Cd 10.129557299192788 13.976818462071078 7.057800614401667
Cd 7.834433822553391 12.751214547116957 11.681946134556604
Cd 14.61963902455688 11.190939178304607 9.09587516550805
Cd 9.944603518039745 14.68931343900865 10.439300815788455
Cd 9.553597356823879 10.300435967322318 12.016735681030474
Cd 14.77290566626836 9.249263117828958 11.470286750423176
Cd 13.816783217162925 10.15765406876405 14.127892662925767
Cd 10.170510129826427 8.524473914344602 14.449126914284573
Cd 11.94596304084487 8.15430567958793 11.98634773901391
Cd 15.215418366875095 12.230452924950518 12.184991274354921
