27
Energy = -9.42746967 eV
Cd 12.7858330591075 11.08338579832917 7.578621907971509
Cd 10.940757286168022 11.961819380567256 10.59497705237429
Cd 8.02331407078915 13.606201327164525 11.541484960723036
Cd 10.025248944913272 9.546196389495021 8.74959848310549
Cd 9.966751616931493 12.054536014286342 7.119459635604529
Cd 13.486003873235953 12.766509659523374 12.684464616774676
Cd 11.220481456207764 15.021843388342845 10.997952795179149
Cd 14.073369159151364 12.779263303214139 9.777115629533412
Cd 13.014528986935126 14.989674829175778 16.890354508931384
Cd 6.009220658838964 11.389208657209537 11.729464404093358
Cd 10.012347076756116 8.09977723674944 13.809974864827556
Cd 8.400914095641133 9.533993997676482 11.47585751366366
Cd 15.471768591074886 8.57070460353441 12.10898690572127
Cd 12.481439280367944 15.220337528647516 13.821198967539745
Cd 8.993229990464764 14.472020455864788 8.731898237122548
Cd 10.725048688576132 7.556536766087138 10.877031962797687
Cd 12.249711108058918 12.247635617177732 15.420821706550218
Cd 12.665716921656752 10.046762554119754 12.064283347195092
Cd 11.995936337853234 14.248119743890257 8.072794010903829
Cd 13.063937073078842 8.719413952793746 9.429806495063842
Cd 12.957685568303399 7.4243633396944535 13.430893875129634
Cd 10.111865346738508 11.100764908988989 13.39105699763504
Cd 15.706572609848847 10.136274990808404 9.379100313278169
Cd 12.155876298512093 9.288700727288624 15.791450225144992
Cd 16.18098329603276 11.600716921300265 12.010983724829554
Cd 9.834684473288428 13.985778689294404 13.808567037807272
Cd 7.661760079727724 11.547004263722535 9.115317932784077
