27
Energy = -9.37159103 eV
Cd 8.760649201066672 9.488523365953103 15.387228709584535
Cd 12.345385328102216 11.05775097689933 13.894051396554048
Cd 8.067765786975022 11.44882700357168 9.075597837064313
Cd 15.92675984355272 12.535895405953454 9.792042039508841
Cd 12.801433934218846 14.498717579343417 9.641088510690723
Cd 7.385098768721551 12.063121314347525 14.40514553377645
Cd 15.605194924852405 8.244192204629478 10.339109997217024
Cd 11.090910328417873 7.754444299459038 11.195615308445403
Cd 14.803377460876595 14.339542411915525 7.483403398063503
Cd 15.110182048047966 10.601715555172808 12.174415711262899
Cd 8.796444226458858 8.979255537351534 7.231200197302122
Cd 11.088584340807905 8.326364333246566 14.109776284495128
Cd 13.877235000887339 8.023963794549498 13.037745749294224
Cd 7.306514516995514 14.383649430296067 9.910791601072013
Cd 7.132924454686609 9.299953856095573 12.735470926375283
Cd 10.034546197239306 13.148580403731353 13.719525978908406
Cd 10.106253959241336 13.500240293464216 10.50332728894909
Cd 6.295442903190744 12.088202101308703 11.57875127251478
Cd 8.350498536107576 8.334005118004793 10.183926778541618
Cd 11.82363282320741 15.20687686297246 12.409390633512748
Cd 10.941024319425162 10.986245017870491 8.15078230689336
Cd 12.939534369701036 8.878802811783563 9.201055375791347
Cd 9.776233688077975 10.699907952819157 11.878519488094426
Cd 14.04597200789234 11.341117661077776 7.6961513777200965
Cd 12.490279019571586 11.419972650873662 10.77001513697595
Cd 12.792110142357393 13.86717712896957 15.101623669615556
Cd 14.27279316764257 13.449736226661216 12.361028790097683
