26
Energy = -8.97673399 eV
Cd 9.117670120660833 8.970303643535061 15.104890934242889
Cd 8.13661320448619 12.907604024200554 8.455515667378757
Cd 12.175284297809567 9.177124232920185 14.451024322770937
Cd 14.143492286010558 11.212876366800053 8.017032175819484
Cd 12.801863121861828 16.036655950963386 11.026769108403945
Cd 15.68231031082947 15.226617733636271 10.367894729362172
Cd 14.689875442983647 9.66779258484403 12.431957782741236
Cd 10.910922352341348 11.61701274654627 9.014232115795428
Cd 6.5929757718487 10.500732797318099 9.647623981979063
Cd 12.440946756621488 12.188316615814271 15.408238609597836
Cd 5.557150645428609 13.55747124593298 10.176634021124848
Cd 15.074299354527337 8.835263607154085 9.628583854618151
Cd 8.112001861204936 12.79174227474662 11.709162145952696
Cd 15.75548154664006 12.283384669988383 10.708056907638566
Cd 13.123153708601315 13.8392661180958 8.973616453998826
Cd 10.431997785968425 11.534470844957115 13.049859572341754
Cd 14.830160807978238 10.346680586145336 15.340394869176627
Cd 10.298013699036966 10.938679536013657 17.195225037803073
Cd 10.307365317589243 14.409839813851603 10.447263747812128
Cd 12.243784787158154 8.857561122860918 8.493899186292623
Cd 12.869486121918035 11.88491322802546 11.390382524955507
Cd 11.825515078375734 9.026391120349606 11.478189654711143
Cd 12.236492513116156 14.201669290026853 13.211658129500789
Cd 8.041744437554318 9.591697309556192 12.387706427498161
Cd 14.997085400284455 12.80800529247616 13.580440642934386
Cd 9.36029093201822 9.060751050971323 9.768784223873103
