29
Energy = -10.54962763 eV
Cd 15.789526426925017 10.617959955089917 13.549944590290517
Cd 13.304221188180923 10.616575061827561 15.259765325569184
Cd 14.030994326253673 8.105884114640128 13.723692703878026
Cd 15.506769842746337 8.676756904783877 11.050034086149612
Cd 15.7132161966595 11.618070327599296 10.737305760344256
Cd 13.883629153683437 14.928865334647618 14.021770480499683
Cd 12.630812977138651 13.322739649612743 16.317831435791135
Cd 13.308289835473397 12.283017575288936 12.47441874301407
Cd 11.60975741852848 9.757819907529337 12.643164971292371
Cd 12.874996023982089 7.30904154940243 11.02221017414502
Cd 12.51962726763188 15.042365101103108 11.190899152295268
Cd 14.518233469743048 13.663749351137746 9.113281084140258
Cd 13.08940204826174 10.193717076988504 9.81974513329615
Cd 10.896155884880871 13.982048656420174 13.809271121941453
Cd 11.369935418664317 10.763671276530737 7.459105231771978
Cd 10.724718501627537 12.015895754440706 10.833425099316736
Cd 10.614750538450203 6.118055266342067 9.590337961601582
Cd 9.568285820694804 8.513626064896341 14.86404114262923
Cd 9.893831261882163 15.573897157240536 9.74936499297403
Cd 10.377613617046347 11.345909922424784 15.394923744102323
Cd 11.730979566666326 13.615677927408504 8.347205045224584
Cd 7.763969657144552 10.568927145967209 10.826648172699077
Cd 9.654115679639858 8.916401501293377 8.939017458577348
Cd 9.207088216315325 8.155496772437266 11.855532117140596
Cd 8.533263108808187 12.221327808542082 13.217412334967822
Cd 7.647407130593708 13.509358605087819 10.401628409095974
Cd 9.334106678890334 14.545297677115943 6.776913150004757
Cd 8.739592404707112 15.495853177839484 12.435373906897732
Cd 8.564168594227443 11.854999536077218 7.962182854003456
