29
Energy = -10.47579706 eV
Cd 14.56507093302197 8.911828282352204 14.799227417598196
Cd 11.988526558426686 14.134069221959983 14.683489792824155
Cd 13.35305693864284 13.581168709147963 11.856728821934446
Cd 13.559752809735658 11.601160928802948 14.135062309291817
Cd 13.379612123284637 13.635040696016784 8.7571401267352
Cd 14.281729197326792 7.41380899619737 12.283620048970985
Cd 14.32293903135617 10.658020690060617 11.25834356432888
Cd 14.524541820744647 8.147590524681743 9.472862956805248
Cd 12.209714844867023 15.919362167783436 10.217053511998012
Cd 13.38080304615657 8.336065046481526 6.673181973540945
Cd 11.352636709950701 11.337958343301109 11.613838638970938
Cd 10.702149364741494 11.630105643880292 15.501871944999499
Cd 10.953544888967006 16.135887305473748 12.90142346149511
Cd 13.968119350837933 10.89333059658241 8.177476192209598
Cd 9.160248824924324 15.944519820759862 10.473855751044697
Cd 10.928062507378995 6.972923560312986 7.481422013453774
Cd 11.679527089811126 9.030571440674295 13.659365461822256
Cd 10.335628475908115 13.620735899124966 8.796386793955532
Cd 11.171680253012356 10.138119015675139 8.735282665802707
Cd 11.730758759069557 7.348207049683256 10.657553154402708
Cd 8.816944631521435 11.259539448254337 10.168325914891394
Cd 8.88844378432531 10.6538201056445 13.441483466760232
Cd 9.133941174147342 13.58257143022724 12.448067050788184
Cd 9.337644427223196 7.600386794406816 12.516631586610266
Cd 8.990857042902054 8.08114353231059 9.402002176154065
Cd 7.0284312683565835 9.162575394000678 11.45307752470424
Cd 5.917024727694132 11.260332100759927 9.07039339976259
Cd 7.1860313187137335 13.904755090101869 9.726436149383067
Cd 6.016810909379756 8.23179006232003 8.596867198609804
