37
Energy = -10.59451974 eV
Cd 3.268336149485014 16.668937473358405 19.614506738977468
Cd 16.424913391539413 19.718786301331548 21.767836179534967
Cd 1.6338326646333108 18.269384190133835 17.403704512811952
Cd 6.213022471645025 15.997058959918492 18.854154340798633
Cd 17.997699126488595 12.440448357791588 21.466771963881662
Cd 16.026999341524405 14.186940037513196 20.024546745777545
Cd 10.52120840544035 18.796635534836923 17.419696130978117
Cd 20.958822726987652 5.382740653442862 12.93297261328356
Cd 4.674567918900479 18.447589815894535 17.458690479734994
Cd 13.365983218084803 18.88688915356381 17.761537213326616
Cd 6.19333827360127 20.741100027041924 15.581381238960148
Cd 1.234773535049372 20.712396871579283 19.300451209634694
Cd 22.26749304564387 6.878149591791457 15.394222737686976
Cd 17.185037680467232 21.636229583007164 4.986997840757466
Cd 13.316693756469007 18.934832525491387 20.748063190716845
Cd 6.04229989840217 17.67129410794353 14.840582715172353
Cd 17.253979373413852 20.08385021578511 2.0635504368161297
Cd 14.101489873530127 22.401575251341754 5.503110604903244
Cd 13.79111562788633 20.09268409266871 0.75309243273501
Cd 4.306501940340337 0.403140252327723 15.18963994182315
Cd 17.49744934323776 16.976686833302914 20.348215218128015
Cd 21.34186954212305 20.324441348863033 20.635062771597845
Cd 19.154113151664006 15.048953188231788 22.237672367321252
Cd 15.139134960979616 22.466873952281016 2.3836200918596706
Cd 0.57777566014098 17.776544434185986 20.317607083737027
Cd 20.422329730478353 17.520006418871148 21.34390132933543
Cd 3.057348371153587 21.049505890486884 16.972487516740777
Cd 16.01432035818031 19.23305943638537 18.767900015588765
Cd 18.683686599745247 19.818536406751456 19.63082371965806
Cd 17.96241515805082 17.44381838194865 0.866266935600671
Cd 14.39597361401305 16.470022858494804 19.171374486137193
Cd 19.510466379288225 20.230983925916046 0.24293915142049274
Cd 0.37649096865460513 3.091810398375197 12.281673951028056
Cd 14.608545606871957 19.760512807078968 3.7204203690513697
Cd 7.647301527467142 18.617238972084635 17.28637490290766
Cd 2.249688811294961 5.16733911809366 15.652971904416233
Cd 2.869194892687407 2.6822895706994916 13.988934566352585
