39
Energy = -15.16313648 eV
Cd 16.87247915771165 11.127272546520889 15.794220735986952
Cd 14.928835945648022 9.743872160782727 13.981871047627438
Cd 16.942439644850367 12.577376709486161 18.359447288991227
Cd 14.22177263050469 11.655749374624897 17.542609889503023
Cd 16.83810205059289 9.265798510560863 11.21202601868041
Cd 16.74569140920231 15.402842963595509 19.004249896031016
Cd 20.258326593347757 11.700374594813706 14.52209678966991
Cd 18.989596072850627 13.621172115675936 16.396931590108224
Cd 12.51921549545407 9.894541031795828 15.931030772440437
Cd 14.757749153483054 13.14176585554398 14.917386250306006
Cd 19.377134219504256 11.022676175243577 11.772113623288002
Cd 18.204909117936808 9.246019313673983 13.939154665919363
Cd 14.10398809505652 14.758892289278593 17.37907512405625
Cd 17.30223873344368 18.250714011433832 17.939422185660113
Cd 14.571143869889056 11.311528598804067 11.378132319433819
Cd 12.213397718421954 11.34119872363157 13.371611655442337
Cd 17.437151625653858 13.425811575871156 13.591365763562822
Cd 16.752040402784576 15.488028306534416 15.859019171593612
Cd 15.088496402623944 17.633608489157545 20.02052191476069
Cd 11.374355830705348 17.8119933821151 11.444613806508313
Cd 10.506030527849111 15.085035282866254 12.19134915846319
Cd 10.425364601917087 18.532249508054086 14.224906738412592
Cd 9.208550484155348 16.147013762719617 15.618720456835172
Cd 12.488871687521767 15.344060348403678 9.861568168077822
Cd 12.63588361630419 19.98388897704285 15.642858411361825
Cd 14.266644555880934 17.784909826821202 10.408716660710372
Cd 13.762556565670112 18.915669078782816 13.076869338590022
Cd 8.732794345748829 13.730778484617893 14.10346861660522
Cd 12.749779239408479 16.25054731338373 14.25686670321186
Cd 15.645605338646444 15.117931509041242 10.508491417047908
Cd 13.510908334928585 14.038503334365652 12.45505789163926
Cd 11.61836617342316 13.514987673406642 15.548501774678721
Cd 13.089432381957122 18.671244534532523 18.204979651807587
Cd 11.993755194237478 12.38304339645584 10.113822648535661
Cd 9.653746906001235 11.888175704586518 11.932816381261816
Cd 15.584756315058756 16.350914624589183 13.213307959969582
Cd 15.049174363856423 18.08019334305029 15.813632455683551
Cd 11.700561382913962 16.363626624489616 17.06565883623379
Cd 17.192277714504414 12.7101138432941 10.71563012095279
