31
Energy = -10.43965447 eV
Cd 9.410759413062411 15.770184198693665 15.280354588229583
Cd 15.440918658842666 13.261549480532164 12.22960053303594
Cd 9.835137562422029 11.495267583572765 9.765750407644328
Cd 13.608618948408461 10.055482205236572 15.828811002492529
Cd 14.14757031299635 13.519068293770331 9.29842650729287
Cd 6.771821852527565 11.780209560234827 9.320698324680667
Cd 7.14693760888156 15.957274242979636 12.848063858059897
Cd 9.998898065375625 9.429681290949132 11.82058100242876
Cd 10.534319326620096 12.936409096173922 16.00962340304492
Cd 12.310491391442465 15.382958406550081 16.515378193694417
Cd 13.310852035310036 12.878869144909025 14.605225409173833
Cd 12.823926604272355 14.58021309660307 11.959564981762004
Cd 15.326176820444042 11.813658181561555 17.54030141649543
Cd 11.379412983494815 6.972539456550964 11.04815635846578
Cd 9.892506578313842 14.689532553374804 12.428264254709495
Cd 14.651753523071305 15.604115217193497 14.483875633733195
Cd 11.035828490866228 14.119687889124366 9.581843686201935
Cd 12.61129962158004 12.725578175059521 18.15523589577841
Cd 15.125740848620145 9.967837595641278 12.36972404804278
Cd 12.947242468361729 19.39626333686329 12.436538387027406
Cd 17.84526632134454 11.401752724496692 12.202195238629148
Cd 10.77700844410536 11.91800837168019 13.227575975712037
Cd 11.895999669330559 16.804369872868595 13.786168484536388
Cd 12.44938473164914 14.691536806714522 6.900093754585905
Cd 13.90811148501267 8.19207816463546 10.277106460724852
Cd 12.7226322116226 11.188041093363838 10.973719498191937
Cd 14.918316476367638 10.519584122883115 8.840368330873948
Cd 17.01944642706149 12.44124282245534 9.5185239964825
Cd 16.244003260801946 11.522071553514742 14.757740752909738
Cd 12.41368149972913 8.820081065977112 13.519318505155715
Cd 15.973009353673591 14.641927391449267 16.948244105816432
