37
Energy = -14.10000151 eV
Cd 12.000103504403384 13.142098319904507 8.161822910671209
Cd 13.603570039834642 16.309002158803896 11.822933576456546
Cd 15.003654616827674 12.451796461237105 9.497164688050258
Cd 12.569477077367903 13.198895350155421 11.201165176568372
Cd 16.75356740921388 11.478481749155407 12.184228047559674
Cd 11.421771281008935 15.712624135642335 9.69478950031586
Cd 13.760526653135837 10.476184353352952 11.858377858745165
Cd 8.60091790306677 16.31166558171835 10.422422209320413
Cd 15.530066241036993 14.151237408916813 12.09923660604873
Cd 10.26119449996573 13.402607446636292 14.37185560226814
Cd 13.350515739363562 12.677538407172323 14.090720547790157
Cd 10.732675711108781 15.862101939492327 12.700843613626406
Cd 13.735745645785443 10.413369466791265 7.533969559154455
Cd 15.57859270678704 9.360736719974597 9.726090917859844
Cd 14.097618627124945 9.651651302438438 14.7608663594054
Cd 16.566653948489108 8.570040376878504 12.787894465168256
Cd 10.850359772742815 10.546199665169203 12.568505315906904
Cd 6.685064848931928 14.202293730348115 10.038752393223199
Cd 10.321230722827515 7.745198037636333 7.952907133537187
Cd 11.641647410427106 10.393267256641415 9.741818420996486
Cd 13.277206329741292 7.598044327669081 8.797467341584474
Cd 10.538804869211482 10.658205786035564 6.929219814058323
Cd 8.863576254737206 12.781925110866707 8.331988138834335
Cd 5.603989343933477 8.444641111757736 9.605887919444532
Cd 7.828514262213696 9.585347835615426 7.664023809546122
Cd 9.656629678339776 13.224150953457839 11.3166061730047
Cd 8.532968941068463 10.680716076255887 14.531689919099598
Cd 8.806701465267242 10.438303690489095 10.42224283501029
Cd 8.289745391311392 7.309578427466128 10.179233189631592
Cd 8.976418027301701 7.702163101155604 13.211053919319035
Cd 11.137250477637082 7.575897432614211 11.017148939521713
Cd 5.7893628183253885 11.41028213890777 9.662360079084243
Cd 11.829617448164866 7.852636200594099 14.071403060699064
Cd 11.396116829557553 10.820904570135669 15.616298790023578
Cd 13.986482193864148 7.332021883815878 11.89931213545502
Cd 6.718818770074938 9.443320398758983 12.3590511699085
Cd 7.058242039800176 12.440270446794004 12.524047502646672
