32
Energy = -10.76175304 eV
Cd 2.3909960350582327 14.062236933249137 0.6520170498406416
Cd 16.952126943975347 0.6775111979495694 13.184685306452398
Cd 1.8836016996345288 16.609439194842274 18.316535878947803
Cd 2.6483196910179427 0.43903311721121135 18.325272846263076
Cd 15.366627427019054 18.414253516749582 11.07636097331895
Cd 0.43275060681949007 11.96792473319555 0.02064838149361112
Cd 17.409606145917913 1.4830344065592809 16.040664889698665
Cd 16.591936238196094 14.57143858089541 15.075235740169044
Cd 1.1925652053288054 2.2572762920726244 16.275436728312176
Cd 16.846095097291034 13.439926053207566 0.41030850526352
Cd 15.49008684669817 15.481563652556384 10.675774741128848
Cd 18.610592084938943 14.988300151312664 17.416435818289752
Cd 15.46922568310691 11.224302104191874 15.046380228728237
Cd 19.05580722808864 18.06591942128392 16.51112926591238
Cd 15.980839813341818 13.16229996757877 12.49398412449954
Cd 17.674537277504804 12.162238131699953 16.777802741600436
Cd 15.7061885735875 15.82408292044304 17.814214024724425
Cd 13.417889098881593 11.661546104556763 12.87294277289564
Cd 14.58092356540435 1.3082346075637428 15.205296610822112
Cd 14.867093766754888 11.433314717659004 18.089225982770323
Cd 16.32638828688506 17.570339442561334 15.400717957444236
Cd 13.649691862207355 17.869938012621493 13.624418000859432
Cd 13.474492079804586 14.844016055586586 13.237995573937475
Cd 12.658696792275604 16.90403682941222 10.711732260753864
Cd 13.860555393474394 13.722585207473786 16.34920793122817
Cd 13.64770586533456 17.918733790255743 16.884761465832955
Cd 11.628080447359288 0.7288425844591309 14.824626878341435
Cd 11.489473217708408 12.282660236768612 15.047001735914195
Cd 13.861341070583503 13.965579094779967 0.3909505111203186
Cd 10.072395293512546 17.872145205347415 16.49192576292419
Cd 11.645084961095472 15.571469417483337 15.44899079467397
Cd 11.92647187234465 16.023395608508935 18.436480844247892
