37
Energy = -14.57692753 eV
Cd 9.713087466755548 14.295114169178737 17.291683348920127
Cd 12.552776015464582 13.909823743648568 18.34650370058954
Cd 9.352260388614132 12.044753477081834 15.375347495052496
Cd 11.72360035234514 11.322744421091766 17.065355436682683
Cd 10.685616566586654 9.151876419477812 15.41258670745377
Cd 9.36099598136851 15.545099639374996 14.508324431663892
Cd 15.276151145935438 10.21824541642939 14.813828480677648
Cd 8.597753737953747 10.061745894714699 13.158963637581017
Cd 13.43887855253786 7.963720869693525 14.690764178102834
Cd 11.951669851656245 16.058654994437973 16.239630739643708
Cd 14.138185241974647 12.729653245123343 15.93076717510765
Cd 12.379418615596805 10.789403633144493 13.367789152994327
Cd 14.84388179140637 10.128471875295586 11.51890875672875
Cd 15.420337340494566 15.35456986805108 11.801072573490712
Cd 14.197084802537303 15.299307899454313 14.414583019947006
Cd 9.132173921665318 15.367252838641944 11.502737064944595
Cd 15.701525984227073 12.674558213331727 13.123551493837134
Cd 13.560984781385864 7.359356601233111 11.788971781958121
Cd 11.947913846073702 16.058780494155624 12.257071354667746
Cd 11.665341786353554 13.518235182058332 14.089804338722479
Cd 13.13970588215876 13.121310773047709 11.476745564497579
Cd 11.95404589815142 9.536455913270668 10.287606160696035
Cd 7.861374070676439 12.976793316269815 12.986027472537707
Cd 6.286398475999864 13.8009085145221 10.638867245215046
Cd 16.851771420001832 10.875712547010023 9.50843196345664
Cd 13.740715114027642 17.4836588637961 10.322939207218024
Cd 13.689369065263202 7.194389683767508 8.844283837899722
Cd 10.689681121877362 8.094285456006189 12.598117863054327
Cd 16.89663436322187 13.735661306468373 9.892358598499516
Cd 14.196234110632071 14.805279913199698 8.957725750380337
Cd 13.872184811929737 11.820242748001197 8.79053591967971
Cd 10.26144057912989 12.036082785185192 11.419996341162593
Cd 15.44598142440894 9.201098922039174 7.560023008906128
Cd 12.421192445128398 9.422530250604748 7.051465435184574
Cd 10.811448525683398 11.580323014451283 8.441256033043542
Cd 11.301495571645182 14.641929047432875 9.298009239150064
Cd 8.570395846014515 13.451674946193322 8.857072387535085
