31
Energy = -11.68587728 eV
Cd 13.114779536569833 13.138945541378042 9.136487585083378
Cd 14.786650175987328 15.45471715229426 9.814607764765888
Cd 17.616280021670807 15.096597249068722 10.880346473737958
Cd 13.025718899734564 17.116336632871114 11.46785273973931
Cd 13.187966080981308 11.710085836311457 11.796844880976796
Cd 15.889206248641326 12.640253202983018 10.769564085075386
Cd 18.233807413796107 12.915186362655225 12.788969369315918
Cd 11.650281229313377 14.353358391032803 11.576330658949553
Cd 15.922082327754826 17.495016025186942 12.063196406139978
Cd 17.9740978591995 15.92349350561946 13.766232468915685
Cd 14.650514815332157 14.44056640319536 13.216104060778997
Cd 12.689373832952217 12.439749188970374 14.599958898243724
Cd 15.709471225984618 11.414865400630445 13.660298400035927
Cd 9.59116218922927 14.290238787493108 13.708288097647474
Cd 12.364570278855188 16.09952454439953 14.177230086072447
Cd 18.801445981106255 11.20858230091127 15.062521886442187
Cd 15.457770960304687 16.625253540744847 15.339775759986015
Cd 14.003490602216221 18.896757157524306 13.915075878885737
Cd 9.874579870719623 16.006911747930605 16.201836976930025
Cd 11.457889677893817 18.49373245174957 15.669137076936066
Cd 16.81248725492151 13.780313724337516 15.500744578569925
Cd 13.300513586578639 14.616980031354705 16.61159892295699
Cd 13.828048824585665 9.488576004733087 15.224552860338024
Cd 10.4412684599709 13.057664242717955 16.364593679960727
Cd 11.93866110063337 16.887529707274098 18.278591973267137
Cd 16.56985639424427 9.642425428074196 16.4101457592361
Cd 14.575402889770999 11.896233077701247 17.15335146854541
Cd 14.03976570366356 19.10243991050408 16.976531668327162
Cd 16.214924718096945 14.056277546362265 18.45732370836292
Cd 14.96750444015319 16.65346639447506 18.378520303763104
Cd 18.127374664439103 11.874869774816665 17.850332787315867
