36
Energy = -14.14369808 eV
Cd 15.494308363484244 13.210276740200472 9.437937814847944
Cd 16.525408571198046 15.435035751950105 11.27933424894944
Cd 13.598762846407721 15.069495046470815 11.112951288294914
Cd 17.007224800402977 12.043472730715385 11.827777845764684
Cd 12.97949850627722 11.860379047987355 10.748605210444353
Cd 15.266963220839934 10.133348444639438 10.348069999793948
Cd 11.072520986043203 16.389317878815913 12.090484364279527
Cd 18.975486918776998 16.78430366253232 12.238075158742912
Cd 16.13885477946156 17.966440556669546 13.067603004456727
Cd 18.664612319448935 14.006383123208726 13.322123374945875
Cd 10.790843104842276 13.567882908768858 11.581794213479455
Cd 14.529466672710926 13.196204416375759 13.296090366576212
Cd 13.335930808160558 18.358587138497246 12.326707558489367
Cd 10.388828451804937 14.230829993466102 14.521592461426927
Cd 9.558260070165206 18.27440485354649 13.587254116611602
Cd 18.74214284938559 19.63471332373419 13.357962774459454
Cd 14.546211950079131 9.908851402291111 13.256342477304203
Cd 12.939624304930541 12.92067667923318 15.844520867914353
Cd 13.152795937886056 15.589183155269055 14.380039658805437
Cd 11.639620037785061 11.476436499848788 13.554470117991814
Cd 18.226159128418043 14.354846946877261 16.725059599685366
Cd 16.162411643672662 15.38944743862271 14.693960930866089
Cd 16.980026614856047 11.876684839939328 14.788461205286822
Cd 12.33315970384191 9.139383668525399 15.23435958258608
Cd 9.893841139670172 16.689982048718576 16.17471099401302
Cd 14.912928498402673 10.354768080530544 16.26900742520541
Cd 17.695725955457632 18.15778403086107 15.980485555565737
Cd 12.077934763429873 18.52137102023568 15.213677872599833
Cd 9.892086362145912 9.875711687066984 17.021794644293177
Cd 11.615557372389794 14.973638736259419 17.73993165553298
Cd 19.730310692507835 16.223211915815313 15.071229181591006
Cd 11.54083179948416 12.079989043046513 18.453740758356258
Cd 14.810856728020008 17.93745105576694 15.927452033443181
Cd 15.545513498726713 13.189888219787168 17.237528299393556
Cd 12.8312089957325 9.365314157139501 18.37889447994357
Cd 14.465351501862907 15.875573655295602 17.971238756768578
