32
Energy = -11.32131358 eV
Cd 0.9615114267016592 0.48877610960133716 15.70841258850343
Cd 2.8696178549999245 0.25684196434434686 13.530621089363168
Cd 1.844803638826283 17.76934798220776 11.119519620895018
Cd 0.6820481752874473 15.538487254569901 0.19010383502511877
Cd 17.457968119372804 14.2186118992922 17.161472376266264
Cd 18.247450174996235 17.130610999922556 16.801717302816726
Cd 0.1334744810331894 1.366056072600349 18.554037852350845
Cd 17.672060969356096 11.325785189296989 16.548103082712355
Cd 17.999143536533158 16.86208929300998 11.425884806864442
Cd 17.264998754687348 1.8600768055534487 16.026344941253697
Cd 17.7139032600527 18.2819949721554 13.973551473227179
Cd 16.437837455575224 12.007097672725363 13.972651111532953
Cd 15.011812378234557 16.53168269442708 18.77014972571727
Cd 17.695353755625923 17.864258773568913 0.8032571646262109
Cd 17.075301770332633 14.867048446881121 1.6018050915247
Cd 16.72083661370703 14.770763002609813 13.14666833461797
Cd 16.237431755702655 15.103704889346888 9.843831964417724
Cd 15.069889414613252 17.517187598301994 12.753594369713337
Cd 15.805066729268185 12.510087063147775 0.07384394822376965
Cd 14.12573391962521 14.396767235332037 1.7942914294326497
Cd 13.71332615850069 15.26995322157484 11.369527512708618
Cd 15.42073041325501 0.489676211594906 18.14623374220096
Cd 14.870723599765297 0.4218604600002837 15.113875899386453
Cd 13.708941798790512 13.472699450772605 13.738927599759734
Cd 14.444974724645759 12.200837320092294 16.33492683825943
Cd 12.556566036002037 12.79233738971196 18.678371366466408
Cd 12.060771300660116 16.079343100004866 13.63137366303912
Cd 12.530106037014122 18.47216114307975 18.73373471376057
Cd 15.606150695564903 16.110746508664405 15.723968858456445
Cd 13.005694655144937 14.926865193796084 16.51918325924889
Cd 11.771389906930153 15.668172319661121 0.44955205799361275
Cd 12.318555195563611 17.999841989237478 15.826407482214872
