31
Energy = -10.75641555 eV
Cd 11.259102853813376 12.54373514352482 11.169691054497317
Cd 12.83874751270511 10.772155746093858 13.143868534462205
Cd 9.321197005005857 10.193346746670652 15.068352250335392
Cd 8.796597778821319 14.792525925821545 10.990043907515892
Cd 8.253821478583285 12.48103542006053 12.806490000686766
Cd 13.808954048549754 13.083089186633 6.427591274641975
Cd 13.619814109650564 12.997755318590643 9.443525251556224
Cd 13.678804413447148 15.771389717244611 7.759870672300621
Cd 13.87339786268893 8.894031932980065 9.711895831674047
Cd 11.173416134315776 15.052278025924833 9.302807519487514
Cd 15.188176032284547 14.106257844942256 11.894434696055594
Cd 12.974948973278 10.371082109141343 7.2927405778058825
Cd 11.501415736063827 16.081009884105335 15.191428997068417
Cd 12.477784554421635 14.171226512564784 17.284381435269406
Cd 12.296142038982133 15.26788253814228 12.274675148344102
Cd 12.854515741607528 9.588545605573072 15.994494224855703
Cd 10.757075753587147 12.934321088534501 14.33703480789015
Cd 15.047225527226534 11.223757923725168 11.24528668226799
Cd 10.70502307077736 10.211845232403649 9.088020077582923
Cd 11.71995922226494 7.9094056543208 13.63248925856421
Cd 9.949863092957866 9.791304101883886 12.05857700710166
Cd 8.128190629400422 11.390413041471739 10.03924220871882
Cd 8.643560037088713 15.285511409255681 14.153431118444535
Cd 16.079112538695 8.688038689533776 12.230263305362369
Cd 11.393839685866073 7.445111435539552 10.662785112883194
Cd 13.797994255922044 13.720157658322123 14.509377357733712
Cd 11.07885797380344 11.565629462417434 17.16470597764406
Cd 14.08536828000318 6.299865134969654 11.788296424547566
Cd 14.32706099130541 16.74447580600423 10.464966522053189
Cd 10.255559313341239 17.521616228753913 12.825736312747637
Cd 14.67350456749149 7.660230688800593 14.602527663853484
