35
Energy = -12.42226975 eV
Cd 14.411137051291112 16.6883069300014 10.562409657373424
Cd 11.559617471406217 17.594035441580864 10.593609634909042
Cd 12.807945025369051 14.161747176588786 11.550770380907672
Cd 13.26563295880582 11.242886432458183 12.766692985752734
Cd 15.611172408877731 13.940354608608283 10.119762310043495
Cd 14.890373223902435 11.066212461749618 10.223863227842322
Cd 17.44544795228441 16.227388196451304 10.75131455335457
Cd 9.581428764323329 17.177296790602895 12.775185535603553
Cd 9.890968466971218 14.248319131436086 12.209960096809404
Cd 17.90136008631161 11.331894156218148 10.337403121668405
Cd 15.013263082298245 13.709547351183367 13.454482416628785
Cd 13.297993445942469 16.71582335664312 13.453334956335484
Cd 17.929117772466032 13.699600638506615 12.26873311492038
Cd 13.98553937609938 8.586131894150514 13.995693514704957
Cd 16.135148975405368 17.703922933128148 12.93130694138594
Cd 16.40439424777725 10.266993826437114 12.796194964871418
Cd 7.900570241729169 18.105967955968524 15.399737449943183
Cd 17.467367548077494 12.197022550583563 14.866488202033855
Cd 10.959855480186894 17.358451490742812 15.448189673760126
Cd 8.62808127701744 15.133281398076543 15.144385960106051
Cd 13.69336629030452 11.828632019277487 15.781446208825317
Cd 17.12330765308117 15.48640489520858 14.663600156976203
Cd 16.850529840953676 8.648344850308519 15.446144794141212
Cd 7.660289353454022 12.676882750057622 13.513910993002835
Cd 16.610440670606668 18.693094173263894 15.688722457426389
Cd 13.092770816174177 15.112765151169983 16.054987244576814
Cd 14.158885800918663 8.878204346225216 16.98648430462379
Cd 19.372699356480826 11.796637232834673 17.58907881808628
Cd 15.70640711009576 13.92982805867436 16.921825430943798
Cd 11.097960530005247 13.02317790144652 14.730629398549999
Cd 13.63492452020202 18.573455598124514 15.963835950259758
Cd 16.30386145721364 11.036512110291847 17.397844976933634
Cd 18.601945031147515 16.537073827283663 17.161790716276677
Cd 15.396437441947135 16.806630348170092 17.69954497525175
Cd 10.478125917904206 14.685538663580804 17.619001522203302
