36
Energy = -13.90626852 eV
Cd 13.246542516142112 10.78062860700311 7.747778663403419
Cd 15.99660000006279 14.97941731468248 10.428957343348706
Cd 13.827612952822944 13.612888551676898 8.866064045647576
Cd 10.716375701312348 12.591741752805497 9.056181438700872
Cd 15.733275911949626 11.950310776553273 10.975881278168552
Cd 14.030392893865944 16.79376216842284 11.945167838602927
Cd 11.716119393321264 15.235809190721062 10.358682542620228
Cd 17.01292756790049 17.202882223880327 12.16194387131694
Cd 12.913439469030425 10.96026239092705 10.750188232080315
Cd 13.400847498961785 13.73715910073535 12.381969601337206
Cd 10.620723300247814 12.20048509537608 12.165930472989551
Cd 11.23922089360438 17.58098989382971 12.360108141823723
Cd 17.298796752714956 13.315024466991545 13.165067232611063
Cd 9.719967080885478 15.00675603313933 12.646516595380202
Cd 19.153203096127157 15.739973389943945 13.410846021283414
Cd 11.934684760782343 10.948319170456772 14.59575559282268
Cd 14.152090260564862 9.304338104370316 12.749399630661161
Cd 12.863234570935154 14.037479144125193 15.274108865150529
Cd 14.896608655084785 11.827826900662584 14.498785768545776
Cd 13.837020645956951 8.763596464857336 15.56814400030574
Cd 13.375347219504826 18.055741569151063 14.83605345765783
Cd 9.708023797384614 13.091774492896116 15.02006240910853
Cd 15.267018688569262 15.393091435842553 14.30532310539109
Cd 17.673139115168453 15.000493101258364 16.064241505633873
Cd 16.317486696661398 18.402460172260096 14.859731133652224
Cd 19.73022382717051 17.26389943625394 16.008909608944908
Cd 10.862341331635218 16.3896179605593 15.079711637492505
Cd 15.56630699726097 10.311089508996115 17.464412427841786
Cd 12.333105422980745 16.9312040301842 17.654051899578388
Cd 11.600446414120377 12.360771403821767 17.470985991959147
Cd 12.666129960339589 9.777128155284927 18.10650499910061
Cd 15.132664092229152 16.232916527070664 17.380855130901416
Cd 14.778176000379478 13.271114161555968 17.51308793525538
Cd 10.007993171422273 14.855424900394985 17.541883817462796
Cd 17.444180559488156 18.16510897885829 17.71254846148173
Cd 17.41986537483991 12.120646015881187 16.066291893166674
