36
Energy = -13.79693913 eV
Cd 14.587090528986874 14.45968895148077 10.457601313197202
Cd 12.242652331435654 16.105378512614564 10.955548165748938
Cd 11.123282897210089 13.293626274241193 11.270056146044553
Cd 16.06282943653581 11.851371172963116 9.940323573368127
Cd 17.492599765085 14.610051012281174 9.79009074143983
Cd 14.716910274138606 17.696378605575962 11.745721599409013
Cd 17.63903764478505 9.3126929036623 10.717650443272548
Cd 13.537775713788289 11.41569954259444 11.460861522610953
Cd 20.04086179951024 15.007849152212401 11.77772325055937
Cd 17.227942751341256 16.14063007587804 12.351130136148225
Cd 18.884722723932164 12.265357609861272 11.20678977929576
Cd 10.07891322297497 15.50851381120075 13.073362932199469
Cd 15.749564745536196 13.337032055642593 13.039366867478728
Cd 12.153342648920976 18.34750672296653 13.080047123232964
Cd 13.141979970046256 14.83460900622285 13.674522818775204
Cd 10.950804842388001 10.700187260266896 12.8208462264342
Cd 17.44724487719961 10.714004958707271 13.378125861301562
Cd 9.408658648510537 18.16177922169779 14.153639375985781
Cd 10.622322895143519 12.937918222873373 14.717180091118587
Cd 16.635262031049287 11.9504164305389 15.865195871638063
Cd 13.098725210234637 17.700692491084173 15.830101114081156
Cd 8.983769364585436 17.96417160746504 17.023556849267518
Cd 18.630788039708737 13.79519249136885 14.193727290607342
Cd 14.656323646689575 14.217026278229804 16.095252460930993
Cd 13.598389285979415 11.679673392896941 14.616040088822402
Cd 10.976658375820989 15.466880268600802 16.221750598088562
Cd 15.631935934930727 16.719584182869813 14.66708604720182
Cd 17.55289202108943 15.076904696445517 16.63390317301301
Cd 11.551453594960881 18.05030778620771 18.4471510694248
Cd 16.98093677266316 12.62318131932617 18.68961648720875
Cd 13.255156582074736 15.650892678239464 18.31506994762673
Cd 14.403959383894996 10.70367753647431 17.56204695386194
Cd 16.036336023099064 17.834704476727314 17.424182996446344
Cd 16.08420103773854 15.439022802509646 19.311532319365963
Cd 12.033850115122386 12.75505856548182 17.353270076018735
Cd 14.131631083230038 13.023144142932368 19.490734909115517
