34
Energy = -13.25477083 eV
Cd 13.067564587564776 15.914221673562503 14.058053098709696
Cd 14.198287188226185 11.782463666462334 12.825816186176862
Cd 11.312141235082779 13.246310216269586 7.715564899881321
Cd 15.022339798147117 14.619479584565958 12.00353613751209
Cd 8.778005640067818 13.524510537252963 12.072698408961681
Cd 19.11632972277096 13.047766180974724 14.421345555559407
Cd 16.640445192165846 11.346291557405673 14.97394796143736
Cd 15.53200877318499 10.910405035634978 10.204687249025412
Cd 13.813180555982186 11.618863671034605 15.915484103823895
Cd 9.797990544232333 8.263254966290935 13.49493227816464
Cd 17.40894479530747 12.772241882213018 11.823499105816863
Cd 8.743446378936538 13.981468944517982 15.130850031448741
Cd 12.779628378783368 9.615462238253553 9.896628782625367
Cd 14.162137429494944 12.105876526647963 7.914904296584372
Cd 7.746667413206824 10.976505632551316 10.884015694994643
Cd 15.383633279655601 14.187073612636775 15.029305410597377
Cd 10.363144315095607 7.837722566869208 10.397374644446836
Cd 12.74061173169358 16.617987041983433 11.146455084403708
Cd 14.204172438333234 14.945987515957391 9.101452847460966
Cd 11.679244451717013 13.293001619994122 13.521042049167589
Cd 12.263745706040526 9.665070803148872 14.2363979122739
Cd 14.34433225026758 8.704435650656258 12.318827866610581
Cd 7.556434864550613 8.202044882089428 11.608435858207919
Cd 8.460524538719794 11.047442618018339 14.197869859510122
Cd 10.392087678892915 15.188508583283069 9.94692952804788
Cd 12.762222435704206 14.282758678805079 16.720341258419374
Cd 10.595736552211497 16.15606955835165 15.974069694841617
Cd 10.157601571978427 16.147578723615762 12.953467151904048
Cd 10.686712787359944 10.884791884442775 11.88028888963457
Cd 17.17326619029792 9.68958339752005 12.555534465388119
Cd 10.195192594543684 10.586103656469534 8.821087859988443
Cd 8.499643994998054 13.10379859512224 8.979010796261852
Cd 12.383227795133086 12.979348120368908 10.679167503708255
Cd 10.798612280480814 11.797162339026812 15.988825006756576
