30
Energy = -10.14845208 eV
Cd 12.446014906773057 13.702067176570266 13.724266800229369
Cd 14.577667968821322 13.642179688617913 11.676210529472373
Cd 7.036742992784238 13.96670159333713 11.849641774248655
Cd 10.981109563204251 14.797537954821701 10.05497397089037
Cd 7.834248896093556 8.807804094609976 15.30493795433184
Cd 9.891787309265991 14.731579795969914 12.86829251445143
Cd 15.600746041595126 10.62251190233153 11.693115555757919
Cd 6.455270525221457 11.597924888126354 16.147372886225014
Cd 14.916698995216574 13.107202000562982 15.258814346572224
Cd 10.606667974568257 8.974362578497516 6.443921380450767
Cd 13.148778483617003 9.749629306968629 7.77984468600249
Cd 15.524613147208022 11.65167627398798 8.676103331118446
Cd 8.422673582581034 16.621373442542904 10.910170006803037
Cd 12.989110710711685 7.3514597552987855 10.506408935276706
Cd 6.753472134094722 11.425074596292065 10.368025039756633
Cd 16.9019907738494 14.178044673812096 9.598496866810716
Cd 12.425084196586617 12.247377219552 9.23292710601908
Cd 8.61531607485257 10.030169676017405 8.529317165921865
Cd 15.396694239578686 8.740319791832198 9.474243570426541
Cd 13.696653312180304 8.601729154386186 13.17136345468711
Cd 9.788718369465208 11.394339488323324 15.351160102274724
Cd 17.088987460615076 12.723544386074042 13.220932505949975
Cd 12.67683620290781 11.199883813962188 12.074456711225398
Cd 9.790779857399986 12.06685925233547 11.23982913677791
Cd 11.071674954659368 9.552568321620843 10.19626407181421
Cd 8.191425952941215 14.089721675936415 15.186894364714302
Cd 12.720578132659378 10.876345615437097 15.142967548334157
Cd 15.757289099873338 10.209382886063075 14.76096669570447
Cd 13.894570076482538 14.956944051575988 9.061399138117407
Cd 7.536149428829823 11.122036309173152 13.235033214271985
