35
Energy = -12.94522649 eV
Cd 14.663468784160372 13.471101142946313 9.218711083460358
Cd 17.532709989826074 18.00492612767859 9.532667389226509
Cd 14.909009631675984 16.39972418083326 9.780997550711577
Cd 17.485885309631453 14.745746037815428 9.863505805310671
Cd 14.42681877377134 12.161713961039524 11.785329800868901
Cd 18.491886725250765 13.686683872942716 12.470279906999785
Cd 13.58766918241114 17.07884198583285 12.397897719163103
Cd 10.872545117595568 16.53098949296934 13.440525815320925
Cd 16.577055648144622 17.993801425294034 12.420304354153306
Cd 14.581117711191695 9.277539767939013 13.136562732520526
Cd 16.658140882724595 11.753275747489871 13.696639557027282
Cd 12.506314742555961 14.09490556651481 13.329450333189408
Cd 15.604146383316575 14.835694979582273 13.121957669873991
Cd 14.5767196792937 19.420209621343314 14.146156882120449
Cd 12.137932901770567 11.025847085462447 13.375327728114621
Cd 18.69614507248636 16.40355140814415 13.720264365870962
Cd 17.126453196831243 18.535009599885857 15.769435922334328
Cd 17.514370639601726 15.513112586418945 16.270697786032393
Cd 15.64335653827438 21.921242614742525 15.799709160997578
Cd 14.616369020779622 16.639465990008873 15.406184039245547
Cd 15.356963635362318 10.045189933503298 15.90479718678735
Cd 11.520965201133144 17.585033926378046 16.098744055709048
Cd 14.305624041676714 13.338989374474886 15.655434114307454
Cd 17.08645443180468 12.660721939641318 16.534856214031567
Cd 12.962010826715085 20.197354986091785 16.50732699774049
Cd 15.588707258985739 19.999342936831795 18.174465135512737
Cd 15.884921459463717 17.074248941982656 18.344801559686452
Cd 13.171780120809068 15.529117234521594 17.768515547541803
Cd 12.396650833189067 10.880790944520308 16.26139287699835
Cd 13.862466865130456 9.550775303929333 18.527477431654905
Cd 12.971177294148706 18.327223380762828 18.830571860846373
Cd 16.87392072944033 10.527727968057304 18.563480267491894
Cd 12.885819947877678 12.742824443212054 18.469759337164934
Cd 15.830273156652286 14.170287941433292 18.97569383308694
Cd 14.905990018660512 11.688829302117776 20.511919731240226
