32
Energy = -11.68945183 eV
Cd 15.595887747404413 15.378040328459031 13.132550063317694
Cd 14.754742958577065 12.449775766786345 12.83432448243112
Cd 14.026311244620512 16.961249977233365 16.948770226986117
Cd 15.245893598609126 11.489408633101482 15.736934283970237
Cd 12.280796926182493 11.805622436814541 16.383776347921142
Cd 17.360697410071406 10.959343326475281 13.507177718989109
Cd 12.962390262571981 14.34275231676568 18.12977348492209
Cd 13.284681398016799 16.47663518863783 0.5205624270861163
Cd 13.462533267734623 17.39601680060211 14.009563708119748
Cd 13.57854688202228 0.3362256743743579 15.621557383094167
Cd 17.188534137391002 16.126440967902155 10.588182198182695
Cd 17.648317317808672 13.378620644498158 11.807391431299457
Cd 18.27488532189652 12.263586522508804 16.009067570418143
Cd 17.3336713731498 12.031760267087407 18.720387317927383
Cd 0.22543658239007797 15.494175518149456 12.222954924216841
Cd 0.03992536152005389 17.43337171154511 14.787966202279433
Cd 0.4126518647296243 18.89152391043898 17.34210022004417
Cd 18.862228725620753 18.396367726257623 12.042123224500292
Cd 15.991093420832074 16.44291337738135 2.2709178946462396
Cd 16.821444403127416 0.9219179696443767 15.97389281951688
Cd 15.6135106797493 14.150083887238058 0.48032167353053806
Cd 15.169441753012268 18.850135507569977 0.6974947711385161
Cd 17.41795891808969 1.228632818588971 13.176919038316878
Cd 18.1273344083226 14.851831728200082 14.77258659402884
Cd 15.808693070975893 18.351136385945484 12.205578085843076
Cd 17.137361757548394 18.132713576147644 18.135011346586946
Cd 14.381728305169903 11.783444232478555 18.62989166677247
Cd 13.510751505968418 14.38342214165437 15.085985108167051
Cd 16.57992165824006 17.453021990623856 15.233834947892598
Cd 16.60292764993867 15.161403239518345 17.386834746362144
Cd 14.932485298037639 1.3388626954452123 18.16613496178997
Cd 12.478731938356553 19.096800513118403 18.56558498586424
