30
Energy = -10.70005994 eV
Cd 12.145434185370641 10.40823608049145 5.868069216200717
Cd 6.619742216294312 8.722671444288839 7.839822827688835
Cd 9.426268246224641 9.410577444497118 7.013123428152045
Cd 14.123690635026525 9.581681108014031 7.951218306556979
Cd 16.107118198831422 11.815319349316946 8.241011877443041
Cd 10.478510176526333 12.09916376614805 7.92593490796331
Cd 8.507883267578865 14.243533312156709 8.805501464168517
Cd 7.379618402942888 11.4964290014188 8.639350159318608
Cd 13.177418306897739 12.54739772289168 9.179211919608848
Cd 11.52832557788152 8.450724579293372 9.01420173318051
Cd 14.126741787427772 6.949474834427316 9.85654533350907
Cd 8.898678559695128 6.9721062872133714 8.950221005476358
Cd 7.103512426563209 8.957515718478808 10.780694587571677
Cd 11.143879182445223 14.467302582849095 10.357489818868281
Cd 15.749541391727474 12.051999020634037 11.209620704069797
Cd 9.56511575970598 10.721888780059832 10.610540372337637
Cd 8.55239261942495 13.734776951243441 11.726833869340696
Cd 13.638541756207667 14.266397346755209 12.161458629837673
Cd 13.39791808292794 9.924157100348943 10.976268662054611
Cd 9.9689009253295 7.918226422070656 11.662354940612916
Cd 7.676311036143073 8.749463585465202 13.645310290906258
Cd 11.41859029140532 11.959663877978066 12.364288927759064
Cd 11.199182230233795 15.595616446223758 13.337211556606828
Cd 12.28515658840802 8.643164409036167 13.41257581651944
Cd 14.121602684395462 11.633394352911095 13.650325658511498
Cd 8.798494079166149 11.585363918141773 13.753017225090499
Cd 10.027285730844293 9.444087423433453 15.313442569569528
Cd 12.755591094277905 10.477317874604712 16.00586656425433
Cd 11.67231424055304 13.252138501410986 15.38991970354403
Cd 8.8954359955915 14.409406434245717 14.847763599327731
