38
Energy = -15.80813157 eV
Cd 9.28926185926271 10.086880151268488 7.707064720440708
Cd 11.888226370359272 11.175858278715658 6.789433889812375
Cd 11.833681175400637 8.050306049904584 6.823008792922534
Cd 9.675159525106281 13.145418312527617 7.367264267508717
Cd 13.73752473109269 12.286452382489143 8.807696866941756
Cd 12.415689338630601 14.699971017048028 7.871046881965515
Cd 14.129015235645916 9.451403097561078 8.182483086647327
Cd 9.94666500440306 7.503553253147106 9.094531372084232
Cd 9.833428037022065 15.975207952124768 8.429879156782501
Cd 8.100626513665075 11.771346230854917 9.883034258380906
Cd 11.576342591852677 10.225666503507073 10.02911236051942
Cd 7.418366536650487 14.577000563275378 9.185118436057158
Cd 14.477868103068037 15.02297671561003 10.081250972617953
Cd 12.841432150137583 7.122141309194809 9.674950749997613
Cd 16.74103503576525 13.486625814586477 11.078413350128697
Cd 13.591117223182287 12.239316430451076 11.751367931235643
Cd 10.968863386833766 13.144717202735889 10.303565170955206
Cd 7.817367439210486 8.886415654223462 10.611152272302366
Cd 12.073563906224024 16.75064825211067 10.24939029609005
Cd 14.76490674552292 8.983495801154303 11.143976120607773
Cd 13.249850507163925 6.372641813510401 12.476663118485106
Cd 7.066923049528043 13.68040400850394 12.047822236406699
Cd 9.424100335002212 15.681203238741219 11.404728979766098
Cd 10.374144148360987 7.922927882093262 12.039218970738506
Cd 9.892374491137025 11.180830857550907 12.274950467869827
Cd 12.466963521609081 9.837842227765702 13.049191805257573
Cd 12.351443839442808 14.895939136024305 12.566223909710093
Cd 6.190084436307313 10.79984851558846 12.212184192854936
Cd 8.136811405455155 9.211260729357178 13.844119384152961
Cd 15.305853889909155 9.004734679722267 14.438675346426612
Cd 16.3534355362755 11.076709106737122 12.671367705396381
Cd 13.183185708255927 7.122239733108068 15.262991536194885
Cd 9.625353970371663 13.80291164176866 13.675345785180443
Cd 7.211184862185396 12.146244667866208 14.677235669982954
Cd 12.24595231037823 12.562277338150423 14.472251683120916
Cd 10.449975278790507 8.160919415745933 15.244378745109934
Cd 9.860022429391691 11.155020947324548 15.611893764936063
Cd 12.738658366890146 10.047102083440935 16.213474739902967
