33
Energy = -11.73340694 eV
Cd 13.675964798973196 7.8193630913401995 10.752415569438083
Cd 14.680646222935259 8.87983148139188 13.686693118301058
Cd 12.493443837560799 8.793017319954384 15.658628534712468
Cd 11.536262820392293 10.983466338262787 7.783120917364344
Cd 8.629453587506301 15.380873708084431 10.923812158439585
Cd 14.236600578710739 12.013422358094708 8.548732949418001
Cd 9.827296685052318 13.254850881918932 15.182283061974411
Cd 17.138098305786844 12.419090359499656 10.264520432157694
Cd 17.19662659197575 14.650116335449312 12.52772146001033
Cd 12.747215332657861 14.673430083307103 15.64468976693777
Cd 10.242763419865575 16.193684605632868 16.22806966416193
Cd 13.225441060084924 11.820831258183686 13.306861203868893
Cd 7.630535708749071 11.510417720148627 13.917592548523757
Cd 12.065725464229336 11.715423230663998 16.481829192310745
Cd 9.58389377128893 12.723021785315542 5.944524593418558
Cd 11.545624144989118 7.686538788494106 12.927505352543555
Cd 9.720803737594272 12.437057617478155 11.809038350287766
Cd 10.568889146329346 10.371422168132083 13.943205775421594
Cd 14.230806438734758 14.903056593324294 12.982268823676801
Cd 14.973883162705647 12.732643018235182 15.944950806852967
Cd 12.568239616840502 13.450623973252702 10.715826055666557
Cd 11.249579347184524 14.989918390679968 12.910898986504053
Cd 14.983054449611064 10.54710071138247 11.195837281568728
Cd 10.016365775692488 13.514498267845886 8.962981819318326
Cd 11.798841522427276 10.27389321340919 10.846234705758452
Cd 14.692339550256419 10.054163502656406 17.32957621191177
Cd 15.150790149036624 14.909271710054645 10.04781350911313
Cd 9.835316477462344 7.8789615422854915 10.325916916140839
Cd 16.423525422935363 11.925382051613314 13.498361606271189
Cd 9.000446234183254 16.83170549452284 13.53583047253795
Cd 8.840795394868293 10.553639855380977 9.284684850479344
Cd 16.450063419917957 13.771482955821858 7.517386556323048
Cd 7.134329030235061 14.431460794956358 13.463847955361212
