38
Energy = -9.75276044 eV
Cd 12.12730085897691 0.7062618621228893 17.37050774844973
Cd 20.05173165732697 3.8940303195797177 21.452787553135018
Cd 18.301829580036003 14.225130856221371 19.423874719669644
Cd 19.062165177892663 1.207904947115428 19.532203024286552
Cd 17.6085904799427 18.885613926981417 1.241363347266685
Cd 21.06589318486864 16.12261101343043 1.6052232606609684
Cd 20.397497997414398 2.519044557342181 10.812166938808765
Cd 15.233791833290521 21.49012680432316 19.822766617441758
Cd 16.80442664589326 20.747911477549266 12.890338260240995
Cd 18.20720852998924 0.3361770652844672 10.841631066767428
Cd 21.36138541012051 13.112408135592734 0.4175591576399494
Cd 21.49956090895372 3.7599704393197513 18.526494291708087
Cd 0.15880625046488475 11.527548165738589 17.5028802105881
Cd 15.018923494254567 18.881994887226735 21.944457196472655
Cd 0.3623190136717825 10.881622092939942 14.396421082713486
Cd 20.14515103717584 18.492256658387866 21.656804233503617
Cd 0.38749563589432934 5.658255189435206 20.83408794554055
Cd 16.276424819032705 2.0274569812286254 20.65788443688792
Cd 13.791060117059502 20.362083384115838 17.41014527811251
Cd 0.7934771074557458 13.87485754663587 2.7880353413380714
Cd 17.50046986678763 16.95711290089083 20.91084188784664
Cd 19.728486342644548 21.17465728617601 0.754862704922092
Cd 16.336448305662913 21.628423032596892 0.5470756959233345
Cd 20.177050504409596 18.887809905116864 2.682070942667176
Cd 16.10287509855372 15.702817802779549 18.220784121103076
Cd 15.146064884858538 19.416011101321697 14.943235992867649
Cd 18.823486722353156 0.18194998052649858 14.452300156672909
Cd 2.051458079857663 15.542105611493705 4.949942793888801
Cd 18.531565494131243 1.62999334149365 0.34974444465016175
Cd 20.56787021862741 15.762817170281188 20.72458339847209
Cd 20.959628293906157 2.5663936980667277 13.864877676282468
Cd 2.713275365859037 9.909036988426573 16.558362068656443
Cd 20.993843886199592 12.98911733404904 19.679794632077627
Cd 20.01834372366189 1.7245109234849618 16.766523754513248
Cd 15.774695454089969 18.67106308998444 19.05515146479651
Cd 14.024010786362641 17.300435011565522 16.8062161804706
Cd 13.546224126018155 2.2714199163008617 19.4935775426698
Cd 0.07555062760597268 17.73719776169453 4.420754020948922
