30
Energy = -11.37145659 eV
Cd 10.37824617565207 10.323432499224245 7.301412349726225
Cd 7.654718962686897 11.251937538875946 7.084929461210942
Cd 12.64817021210387 12.247256751805597 6.35332546906216
Cd 9.791990023060773 13.347876905531997 8.09728067401642
Cd 13.332139813335807 9.955964826412426 8.15145233136078
Cd 11.495383695774835 7.43676316567624 8.184956243348683
Cd 9.35411105106873 11.228732177180877 10.367368415324208
Cd 12.631346843576843 14.920838823603978 7.524328501861921
Cd 5.919395238660906 9.583332209487804 8.92433806690773
Cd 6.323169362742335 12.536086481991962 9.572632324839317
Cd 12.244603369324222 12.11515642992343 9.948543123555641
Cd 12.865288565819963 6.249639917537671 10.401393175594146
Cd 14.476466595012504 9.265242957937819 10.795133176560201
Cd 8.437492202830185 14.432025128051455 10.55871124616076
Cd 8.828823073936997 8.336354003727152 8.993771206745755
Cd 15.350268589347312 12.057837145111941 11.236216635941092
Cd 8.10627645329791 12.522079636823111 12.91642973438417
Cd 6.42520130903703 6.987469724323995 10.55173923007891
Cd 11.401979274706145 9.22856309771881 10.944206723484191
Cd 11.718623671068842 15.19165863756569 10.314155385617694
Cd 11.226181455449888 5.818396516149955 12.940800549059675
Cd 6.868745645729036 9.943423769728401 11.813114074885053
Cd 13.235000218951345 13.596687382309955 12.564692568078417
Cd 11.068673427579363 11.553816900928117 13.067319575608334
Cd 10.36203105121681 14.556310635019829 12.830694648399797
Cd 13.851058419936628 10.526953742525683 13.632339976699397
Cd 8.998960829383034 7.61882029923283 12.18321747262206
Cd 13.895968524248355 7.363989152197723 13.067182370286474
Cd 8.58966226981684 9.86435750424108 14.298517706103059
Cd 11.278006961299942 8.69697932580988 14.137780869133714
