37
Energy = -15.27939431 eV
Cd 12.780999983941257 14.592914931977067 7.035114798671512
Cd 14.558002562483837 11.943972436832683 7.27758040009496
Cd 11.800763605693717 11.934228230524228 5.990440017559653
Cd 9.915424889582036 10.692967840377356 7.812793667510049
Cd 13.943202886597323 9.517559758509142 9.139105918674385
Cd 11.091081441389628 8.80268789781442 9.844225910540647
Cd 14.843667178943539 13.988815223230025 9.592259718777383
Cd 11.477656579809391 15.266964115911772 9.660978190796069
Cd 9.402699695892549 13.010856834410097 9.862653710108308
Cd 13.934191213544079 16.49858320438734 11.042589799107954
Cd 8.360678588032274 10.033117014964551 10.386925346490745
Cd 12.213360791692233 12.143169174653027 9.43913955932839
Cd 13.029648572388094 8.792153702457158 12.108432442638863
Cd 16.525796979576153 11.166873938396284 9.47971066851088
Cd 11.21038184278182 17.31391811437779 12.063291395461881
Cd 16.98368074046336 11.715656257761983 12.41240055699167
Cd 7.5020712197848844 12.470033177419229 12.160918677667992
Cd 10.832798457914313 11.284399323862951 12.052295397512697
Cd 14.049494264219058 11.552160993760106 11.719052564945287
Cd 9.15130135094314 15.15443834899544 11.963141300556945
Cd 12.190858545989817 13.928686167590456 12.422768470778962
Cd 10.14756066937612 8.434854734015191 12.844732314587102
Cd 7.46228056518316 9.681182158193273 13.26579425219406
Cd 15.094266609578735 9.723041506812041 14.082320533158112
Cd 13.546115235868866 17.18007290198075 13.929433465758422
Cd 15.2175745384816 14.267824079129708 12.685044176889535
Cd 15.889948549777221 12.378116188706842 15.197117101948136
Cd 9.566779621542185 13.1108476208978 14.189255506566738
Cd 12.623554975963268 11.696258399651507 14.446949407500044
Cd 12.326716756450388 8.626541668042474 15.125058192088268
Cd 9.772970012075936 10.364281576949452 15.21810964062792
Cd 10.905796387587543 15.74192829860365 14.827315873225368
Cd 13.709347094710193 14.522124400451709 15.273006536467754
Cd 14.662151375060269 9.68786058359675 17.012836921023897
Cd 13.942772777968674 12.52571910577549 17.56863058769735
Cd 11.110574442256327 13.33002583306485 16.801424569055825
Cd 11.73838477194851 10.439720031406537 17.581708183978602
