36
Energy = -13.87355076 eV
Cd 12.782593515712032 15.971602048345433 8.769146650399021
Cd 13.433686844308276 13.180911748207286 9.185827143336429
Cd 15.250371779066759 10.723301688868029 9.34132409033871
Cd 11.86513309049863 17.36978262607457 11.31234100906472
Cd 10.925040327501609 11.904996960934348 10.201802310215454
Cd 14.946901812225757 17.181579421088163 10.432512026092416
Cd 13.247946690579768 9.610736041465595 11.181333579322217
Cd 13.530333567720938 15.207172855487158 12.577834250622097
Cd 10.668182604152513 14.414813744359895 11.788958918373355
Cd 15.886362190091383 14.31918719591917 10.839170557844774
Cd 17.613072569249525 11.319485641018266 10.939339238044441
Cd 14.106988748375068 12.260405522792693 12.323421946936698
Cd 11.15582614338334 10.690606806217348 13.023706354039618
Cd 14.425374576795413 19.321479767571336 12.338174401115905
Cd 12.775247336944739 17.963302405155318 14.368246920350414
Cd 18.1422522389951 10.192304800887548 13.760362199474773
Cd 15.374133817860407 9.355810431998442 13.325089250195195
Cd 14.23230581854286 15.434078955606092 15.43021103051798
Cd 17.079124407802713 13.10496615997745 13.295390525017188
Cd 16.38065237508076 16.232655578649023 13.280941886389053
Cd 11.352260056158725 10.794203486700548 15.970949236682827
Cd 15.879624357690444 18.786940122081305 14.975787617678098
Cd 12.015574379167763 13.400113257829489 14.484019418796374
Cd 8.90873949254172 13.89861894177328 14.529621019631513
Cd 14.03258186409739 9.688819529818224 15.927183752285888
Cd 10.188921983941862 16.478564773700345 13.94511465836454
Cd 14.7847324424462 12.495547372002225 15.18086415212245
Cd 18.494224277667975 11.907547270512646 16.151982016320108
Cd 17.124911968602373 14.614259516446063 15.885489680900173
Cd 14.046058460745591 18.14436109334498 17.35918019733233
Cd 8.629485120348457 11.886587811067708 16.65614474310678
Cd 16.00871760494364 11.295466379667689 17.607265713308934
Cd 11.181558864775385 13.299308113166617 17.70451118479607
Cd 11.566619669140733 16.130307591603497 16.64487735846451
Cd 13.980716419248639 13.314045249457955 18.615715083933086
Cd 15.661519972618917 15.783906479227829 18.323937267609583
