35
Energy = -12.61256074 eV
Cd 10.877741423115692 10.374811712428848 18.014143740641018
Cd 11.655868526756262 13.172959824228352 7.945151185841335
Cd 19.54693625316749 15.096667102366123 14.816326907121674
Cd 16.801047942306667 12.637508569428618 11.863718359408848
Cd 14.06752228902756 15.64354715831656 15.33448645383439
Cd 11.375616351440959 12.320768355542892 10.985761545412593
Cd 11.601774580465701 9.460527107164046 12.192427280980281
Cd 11.915113857352118 9.641405345694352 15.33731469593086
Cd 12.39701417656413 16.107569613483218 7.922607675928736
Cd 15.887586699576792 11.589099736627876 9.11395142336298
Cd 10.38841559072809 13.413035371477163 18.03153918599752
Cd 15.612304584687044 16.59629843131614 17.847160064293142
Cd 16.818687354827077 14.449500749614037 9.211876492848585
Cd 11.174918454690422 14.91869067168214 15.549074880560596
Cd 14.18527556025163 10.947785717258325 11.42085573851104
Cd 15.337583585858141 16.058891550018522 12.075763996677152
Cd 9.478321170677416 14.646628323671171 12.88831012284577
Cd 13.876376145889175 13.930350452700324 10.138944110992306
Cd 16.64675722908783 14.41864447716991 14.176104178222692
Cd 15.061364136063077 16.809420202133545 9.116709530849057
Cd 14.210154269376996 8.943708701978416 13.641528496027526
Cd 18.295384191869847 15.119756812239874 17.621291537184927
Cd 15.609034800405146 13.394109260198185 17.0716641053368
Cd 16.09566993558199 10.66055662065542 6.211476600498048
Cd 15.311999412946292 11.58105384504333 14.574084497034137
Cd 8.449258584859361 13.359528313698517 15.426098315876976
Cd 16.318904728668723 14.37707363806206 19.97244633347023
Cd 12.621999760657426 18.025761973293445 10.444818513549905
Cd 12.185115013936478 16.285523210547048 12.914287329326699
Cd 8.05338771968673 11.236812415221902 17.569296598575878
Cd 8.694305921291322 9.877675383200168 14.89751853297462
Cd 10.721901370591246 15.32616729501321 10.336226770683002
Cd 13.323954207873374 13.435417018962008 13.20125956660327
Cd 12.860299704055752 12.337983961246541 16.386441254014127
Cd 10.715818047050394 11.978174659702638 13.922747559967437
