32
Energy = -13.17030421 eV
Cd 8.957915603641055 13.229259919926504 13.195773006383876
Cd 15.057505979300013 8.053112566955319 12.916043319858217
Cd 9.141904663215051 7.859625275975085 7.965150239503108
Cd 7.672626619554681 6.907934839417293 10.597746612818689
Cd 10.573970559615889 15.726976185246393 8.228401550920571
Cd 15.253125093372603 9.89147071019841 10.576082608853193
Cd 12.062378130935274 9.761332992223446 10.581468131971018
Cd 9.130080741427266 9.747600816515313 10.586654193918513
Cd 13.671433410583372 10.689814007354828 7.950574658864222
Cd 7.327562126717421 12.464533240149272 10.579984231338008
Cd 10.586851105239743 12.29041496843335 10.57499858398687
Cd 8.95183761879898 13.203540940259012 7.94835018646051
Cd 12.076389044920179 7.894981926573724 13.211577972860365
Cd 12.063666330358956 7.875944558494546 7.96305285675122
Cd 13.685111535452892 10.718382574570661 13.195742905467561
Cd 12.265030559306116 14.989953789558774 10.564709540089227
Cd 13.55191196698627 6.935009063328691 10.590142313146877
Cd 6.15510246656767 7.996319082107599 8.268365957199046
Cd 5.9380318006105135 9.860027135565334 10.591091989921477
Cd 13.844467977942772 12.48738847969221 10.56913207353773
Cd 8.88599489074685 14.976561443809567 10.570488924823598
Cd 10.579987430247478 15.752090219749332 12.901773754619112
Cd 7.5128073442331855 10.685064676490564 13.209170631270341
Cd 12.2129026684686 13.21928020842481 7.939937882994418
Cd 15.0471128646096 8.033432713260634 8.251922849469212
Cd 10.58850420123819 10.588167547317408 7.8361205070747175
Cd 10.599302884183682 10.609107274684165 13.320109761183044
Cd 12.217637168341291 13.244588644936483 13.190793467214391
Cd 7.505855168325951 10.659905275527409 7.964362602039221
Cd 9.153701189950107 7.881875096464196 13.224081971608673
Cd 10.610603234846666 6.851930731966943 10.59417077945281
Cd 6.167312200125926 8.011598809792792 12.924688442820608
