33
Energy = -11.2653304 eV
Cd 13.005104864324725 19.085625481270597 11.377341844040203
Cd 18.64917994184853 11.804540647127041 12.016165266738682
Cd 17.245416066956984 17.35614679159178 12.257429962036925
Cd 18.34791961516634 14.659066277443525 13.029939464754465
Cd 14.812259930193068 18.164132039559686 13.590982036974793
Cd 14.4654797734922 14.750231166339693 13.25362201642973
Cd 12.121564893171229 16.198443228904907 12.064393050518255
Cd 16.211935134305406 12.475152916086955 13.720357407736198
Cd 10.517774756736173 18.87448914271133 13.039733811984993
Cd 9.263269043918275 15.974784508947037 13.555286587012398
Cd 14.514080249127833 11.366402182478518 15.980969094418242
Cd 18.656369995708303 18.925212884917823 14.689149780105792
Cd 16.789845726207602 15.380729451021379 15.483268279009412
Cd 20.054157989412015 11.56114741600522 14.679093394834933
Cd 20.394261199732927 16.492105948969627 14.725332740162928
Cd 7.867337209495062 18.621085378735298 14.502376300291624
Cd 12.56201198799515 19.918847518853674 14.974348891341835
Cd 11.067724607666143 17.38764676642022 15.8959086792778
Cd 21.794041603757456 12.277007439704526 17.230640196433516
Cd 11.635227805692486 14.423823464944757 14.639824316110616
Cd 13.973343705456058 16.363023063444412 15.769970346128112
Cd 19.392308509875573 14.164607403224382 16.232731970753374
Cd 17.395870663118703 11.812597480757614 16.510453330354864
Cd 16.362635295095572 18.233249060039554 16.430504331798087
Cd 14.95417253746614 14.027800089873189 17.65010334186398
Cd 14.42878597158402 20.312507997209728 17.2105038368568
Cd 19.843690626449938 9.867871432073624 17.395427836402174
Cd 12.03915542171364 12.650291281486945 16.91716922996112
Cd 14.076849108650832 17.67030738760366 18.707205253847803
Cd 12.20441001048197 15.430519085627958 18.12782055985923
Cd 17.648168717944625 13.990392746834136 18.84529872441466
Cd 19.67174245800557 12.016096894208761 19.678786216494807
Cd 17.147571276400303 16.877782122733294 18.931528598201986
