34
Energy = -11.96607686 eV
Cd 14.90605576489459 13.091634281968307 8.04379406649396
Cd 17.515755614557715 14.443202127230254 9.052535128609131
Cd 15.10419772340867 16.26850364528941 8.533019124101191
Cd 10.218620577843076 15.47270809807946 10.594982405292257
Cd 17.22713039844732 17.25627577545709 10.499215229587678
Cd 16.328610693908548 12.1173433999067 10.586310584832713
Cd 12.725724839958392 14.620038963065461 9.443582203175353
Cd 16.702720169607993 14.808006493360637 12.146223929285553
Cd 17.02894470407817 9.19757225544059 11.392519811764114
Cd 14.182987969438363 16.47559202884348 11.509635622267906
Cd 11.004254691453255 17.322657881531835 12.714257930163647
Cd 10.031876588202945 13.693519122635292 12.870442434283591
Cd 13.620350513131529 18.033195885550242 13.911053598046454
Cd 13.908078480470964 13.40354750178866 11.82223192466943
Cd 14.810070651632186 10.288219804245854 13.208084984732565
Cd 12.12258923706077 11.693529773808724 13.356187201607312
Cd 16.978787055400595 12.347410900330331 13.690363168229945
Cd 12.72397017140062 15.003801714727938 14.263094649153803
Cd 14.811544207200456 8.254026389774916 15.419255010156604
Cd 11.984545391443097 9.018187228139915 14.831726437510355
Cd 17.997281825482542 12.172767653826186 16.396153870852192
Cd 14.373883039346062 12.707379391392246 15.342516854799218
Cd 14.678221609778756 18.5440456367223 16.520306624750717
Cd 9.581142195540588 13.360240338534654 15.839856043004948
Cd 11.673991770276192 11.452581116975207 16.500395060660832
Cd 15.751921465488243 10.403307915989103 17.230707333982053
Cd 10.028079597176081 16.23159265104542 15.522810312316807
Cd 14.804016183763066 15.514188131161983 16.51799755562611
Cd 16.04150557391181 19.69423760075479 19.031189130682815
Cd 16.88606218086915 14.123630581692213 18.27012560840403
Cd 11.758222735874117 18.019151875095464 16.995970119873164
Cd 14.431312632705081 14.674462945978895 19.896063568094085
Cd 13.711590676500993 12.352708963347757 18.31783305268671
Cd 13.840953465126372 17.435732321685748 19.224559815680596
