39
Energy = -15.33074356 eV
Cd 10.964244903224094 15.552155596378348 8.467242096758785
Cd 13.868170767783804 16.548756287309185 9.036931519441247
Cd 15.752117828583604 14.320929856929302 9.627477523531747
Cd 12.892567271136604 13.38815702830362 9.090467428141512
Cd 9.511237674272065 16.178014393506558 10.990436414878836
Cd 13.00686246046398 15.014334543727397 11.829548255456142
Cd 11.678267443368254 18.298562557096755 9.997664202762415
Cd 14.80015631391137 11.52220052798995 10.563415191095062
Cd 15.714233881497679 16.75610081964178 11.502997816847248
Cd 16.76211697211786 13.555888941536924 12.225793755786093
Cd 15.245773382196289 18.37678058432825 13.908908476564745
Cd 16.37154251540566 10.554660374750881 12.868991946475422
Cd 12.450677181973353 17.911930547226103 12.777529087462051
Cd 10.571301059033278 15.653036164629478 13.637067884292511
Cd 18.01994942219939 12.701828799329624 14.760348442370953
Cd 14.058158806747775 12.83803525809464 13.534369631871089
Cd 11.9590786218724 11.973604026970806 11.496107304984294
Cd 13.542961532762494 15.790653586235324 14.797801945542096
Cd 16.86264005885302 15.832251196826551 14.145812357582516
Cd 12.859351364073305 12.371318459187329 16.253271047351543
Cd 15.498156441837185 10.743473940230556 15.615196277203706
Cd 10.647014668601795 14.45715863878426 16.296617438240045
Cd 14.513520860942188 16.461016154117864 17.668062082267276
Cd 10.708699469228621 12.651840393561887 13.980702670134255
Cd 15.490641513317353 13.954711648022803 16.109910218612026
Cd 20.453743392293877 12.96336712507997 16.62501414396218
Cd 19.115408522493862 15.64659323075294 16.082073615368014
Cd 11.891817296114 19.0402912384079 15.417290382093222
Cd 11.504617493710045 17.039504125494144 17.475690884397306
Cd 14.537617965603772 19.360295546761034 16.656463910015113
Cd 13.285899482393974 11.580380323222592 19.18435304587793
Cd 15.670966668135206 10.118016903101607 18.47368899225454
Cd 20.803306455052233 15.349192613895262 18.848219499609517
Cd 15.349631485125796 13.789888878231277 19.473853074072814
Cd 17.118896660176166 17.801605469419684 16.647294667968918
Cd 17.538225367223667 12.353516940911446 17.831748606043114
Cd 12.447363773723524 14.436352826895922 18.687399901054775
Cd 19.95938446306626 12.559413759063858 19.746296227440453
Cd 17.526957929774795 15.50746006433663 18.62122140447956
