32
Energy = -11.64118834 eV
Cd 15.594303754067234 13.717205663657136 14.716542814702837
Cd 15.276288233068733 15.004460556697413 11.976964106682198
Cd 12.86329743558785 7.48527413576569 13.847732615772175
Cd 15.91608648489335 12.113903272575591 11.274367927792342
Cd 12.395986836188262 9.762284255901527 16.954360506570392
Cd 9.585537218433766 12.356899652604744 13.261111964564375
Cd 15.028414828855807 16.86790429576359 14.297626863422447
Cd 8.93253310156473 13.546402311504801 10.479048205714431
Cd 9.434810441089125 15.406334658658302 12.758835137239284
Cd 13.75610056282119 15.421554151712883 16.697343891178708
Cd 11.725329839937526 12.319277094892167 10.884313265032294
Cd 11.005757515105445 14.586313703781169 15.37556733207593
Cd 13.712255002003715 10.371803465506424 12.210597917569768
Cd 11.357508139351424 15.482162135586073 10.18782968652342
Cd 13.871327045551434 13.99176314239243 9.562315793579176
Cd 9.663935592599728 10.352293890690204 9.753510581339933
Cd 12.050375870627784 17.53766578530481 15.36114056827029
Cd 11.39804304392435 10.149810732776178 14.147595789209676
Cd 8.273612205666446 13.27488887984584 15.988962967850878
Cd 8.903429251708857 9.503029737355716 12.489132757067525
Cd 12.014274077377681 6.765567938735543 16.665556213423258
Cd 14.84162595176707 7.1581308230705645 11.673552578352675
Cd 12.460257202755889 15.997028007649886 12.825236631991798
Cd 13.31174813540834 12.484936169607561 16.41064884850472
Cd 9.375043453575206 12.419195036364076 7.632295806524215
Cd 15.120048114750457 11.584238156231718 8.223868937869273
Cd 12.464616813785481 12.495535236426798 7.182349305425834
Cd 12.815517130674847 13.022605998878163 13.483579741624364
Cd 10.798245461768813 15.102201575617176 7.327140295051401
Cd 15.82167058143704 9.269112110360963 9.914564983971475
Cd 11.48460818551279 8.29179482111332 11.246185248210628
Cd 12.668259474192974 10.079269589022797 9.110967702944395
