32
Energy = -11.9403322 eV
Cd 0.22081896624810532 15.314125371553141 17.477100977923698
Cd 18.98520702882776 12.421809554061996 17.786673166723986
Cd 0.9233138948702322 18.141634692873915 17.258130517018095
Cd 17.29408891179505 10.467382728905077 14.850228800707452
Cd 18.637931358144957 13.545651371646526 14.899091994174766
Cd 17.46279269984821 9.895475027883121 17.729140983292567
Cd 0.24162745750213557 16.545956348240892 14.62999814768507
Cd 0.5357921004927467 0.2071194153726663 14.577488473738514
Cd 17.456352351900314 17.74876142506831 18.273474598310067
Cd 18.464676561974187 1.0225582617939561 17.024356878731997
Cd 16.96863682732554 14.551325759301513 18.73560720766795
Cd 15.628077916774467 11.673136547323487 19.14967992019346
Cd 16.268996666982076 12.632039831945585 13.124081240443251
Cd 15.781342793701189 12.875838522150922 16.138369616907475
Cd 16.806608513987307 15.73903550506553 13.866549706168085
Cd 18.152186945585733 18.455292170284835 12.56744024487911
Cd 16.677890803361755 18.431521289557775 15.271126489643013
Cd 15.797211763234635 17.11609737068773 11.19408614926788
Cd 15.066700009265556 16.751320083360888 0.3940181104363551
Cd 14.558686081212304 2.228863946546024 14.871659543084434
Cd 14.581595303685662 14.002928037838293 1.3877298737445365
Cd 13.408976685933048 18.735096547623794 18.459293489604878
Cd 15.29200659282904 0.3059498159791585 12.680925156232515
Cd 14.282088299680042 14.784317391781482 12.764938990369458
Cd 13.115350813978417 17.503417949410093 12.622296851743572
Cd 15.601846730044706 0.9528053773246757 17.560744196365075
Cd 13.508397759569045 13.56723370419209 18.016456163401138
Cd 12.70934644843593 14.018434200058032 15.110051324249014
Cd 10.997726322551085 16.739158556645123 14.591426696604376
Cd 15.358602240256122 15.98775745847927 16.50362393662526
Cd 13.552446560656177 18.630045939507536 15.46188536058758
Cd 12.32314396555884 16.225041172337477 17.22151360774125
