38
Energy = -8.41117219 eV
Cd 15.565519615221701 11.109706495987563 0.6107347000726971
Cd 14.78134459163384 13.94611632138046 19.54309879545708
Cd 1.3931631396484982 13.830459934277721 20.913472800687096
Cd 14.972545722746986 18.168839914797754 16.319839267516038
Cd 16.70628163868843 12.721417171816038 17.15424560640221
Cd 2.625304439548577 1.0398100185811272 10.93055029656955
Cd 13.024531685917381 16.620988900277233 14.351462757804216
Cd 1.0736896514036194 15.089145991912435 17.819220645699072
Cd 16.676898747720653 5.466027291997883 20.14798185147678
Cd 17.6144713794709 2.2841471646074702 2.917142731678146
Cd 1.8418599278448144 18.830866761192013 11.43347730986753
Cd 16.89964411403184 3.950380741364816 16.9847393310852
Cd 21.614531512366753 17.80672413083609 16.41315920332598
Cd 16.293045339655677 2.3845832654322456 19.910208546275918
Cd 15.613602544295654 15.20867308926526 15.470719218351634
Cd 18.19802340587893 3.5338906712746048 0.13597190261275127
Cd 0.5320209607739579 21.795212302021877 6.327515876615357
Cd 19.324190004961892 4.932335165131659 2.740389416884571
Cd 2.502946352805 18.19782785640339 17.502708497881432
Cd 15.844103742422117 9.817734087847361 3.468759597053167
Cd 21.82098342217473 21.4376547662433 3.1111856023364908
Cd 13.27596803558859 11.501591648453386 2.713245834274149
Cd 16.016694522108708 10.96884257854419 19.66016926024325
Cd 1.0129679459216745 20.581212061834435 16.264345764306416
Cd 21.70118770850402 0.953799409510119 15.154486905265244
Cd 0.9510577026202629 21.27671850412112 13.059690771004675
Cd 20.58231394368842 2.1850466340341126 1.6733180278301998
Cd 1.9622016425181759 18.113297128658424 14.431759759562562
Cd 2.7733187317751278 0.8088812782470604 14.986113377688858
Cd 0.8995608276386723 2.115671217380424 4.109252388013235
Cd 0.583653643810343 17.01848891295239 20.239709233666982
Cd 13.26888043759763 15.78436165662721 17.42721450176135
Cd 20.02661448407831 1.2405173230490545 4.887591665918442
Cd 16.54534460723287 12.640262725360252 13.920451339178355
Cd 3.495742620009173 15.985160896890614 19.641272365722124
Cd 19.791240439254565 2.882776683169367 16.37625396160642
Cd 16.048458631800727 12.95239090897542 3.1082940841820412
Cd 19.213871230099354 3.578386914364828 19.312740606204517
