39
Energy = -15.97406459 eV
Cd 14.418163312645913 12.116506177387079 9.943585629974011
Cd 13.34328651342604 14.836441778857976 9.242001174388133
Cd 12.297990418424257 10.995683198017398 11.887327193997413
Cd 17.344195569144716 12.416116502916408 10.854787270611205
Cd 15.227649608591532 11.150756707278758 12.67670088489186
Cd 11.331658324217774 12.239234350639844 9.296196961599446
Cd 18.247800872688803 15.138922876316684 10.375313341421183
Cd 10.522414048451447 14.999452694568003 10.23678656504975
Cd 18.03296959805103 11.75911676797649 13.7708364896337
Cd 15.455937674502126 16.099350447392 10.925503647638138
Cd 11.523570848157142 19.0830134542488 14.169712216880365
Cd 10.742722005502959 16.49715813542069 12.733086786414713
Cd 13.74503725019913 17.487143133569123 12.93714981235819
Cd 16.1502801338743 14.197209208400224 13.228246937966125
Cd 13.295175714685387 9.349523494617733 14.22918786747448
Cd 10.3016198303201 13.106975571427917 12.647173985688973
Cd 19.496763757330257 16.40524482736388 12.6982570981439
Cd 16.721704623742347 17.173599118953558 13.671692899435445
Cd 13.234443778588266 14.28338234428157 12.496852182096614
Cd 19.069695806751373 14.309447760335916 14.734976042584297
Cd 9.872774928521311 17.012061128689115 15.590623466336806
Cd 11.291152103784617 11.467444826090162 15.072739700264972
Cd 10.221847287183568 14.1244892543281 15.587015781420728
Cd 14.052564649023555 12.935306762710308 15.127674537021884
Cd 14.341237416161205 17.249247589887784 18.81486706310148
Cd 12.90759670019087 15.658921238002984 15.17805461804287
Cd 17.41537675190446 12.75345328137259 16.746984233739518
Cd 15.861008186244048 15.232599982317684 15.984290473651406
Cd 15.852789559862675 10.505997256409628 15.585392781814118
Cd 12.136032355520962 12.69507360059679 17.870153914686437
Cd 19.044962641645306 17.248601191946307 15.682904155213901
Cd 14.800278578306491 18.088471549254994 15.794502594905872
Cd 13.025967023352347 9.911355551164549 17.111782342312928
Cd 18.83948991634844 15.096156293022677 18.026035485513095
Cd 15.170746607758385 11.396447294407096 18.443007147730118
Cd 12.126405544109357 18.404412728158974 17.053969523829664
Cd 11.696576811027022 15.62900637781557 18.081579159015163
Cd 17.09735253253908 17.59205947371781 17.895444474667347
Cd 14.715490001671592 14.32734535458622 18.570332842933475
