34
Energy = -12.42761794 eV
Cd 6.4850125504842895 9.724372551180782 8.96641983522913
Cd 14.063716391523176 11.19961984828706 7.949241640184483
Cd 9.121882153979083 8.236249963967786 14.16861524912114
Cd 10.963217910581204 13.249374712920796 12.670259513354242
Cd 12.728958709467788 16.688550394203375 12.091712738968528
Cd 11.831968287962424 8.958497785825172 7.477835057058144
Cd 10.738556842753452 11.912390020846974 15.710760714011519
Cd 13.666338341288148 10.93314319655198 11.002309106943795
Cd 7.520985723541856 8.94153282301656 11.702932211911014
Cd 9.910353137053892 10.58004168196828 10.317515389603843
Cd 9.303326883010843 7.777299769609698 9.108755070069371
Cd 14.448834085933425 9.472643414819716 13.717721025458298
Cd 8.181169285704796 15.01548995295193 12.725990676224127
Cd 13.265702548325995 13.996252137048007 6.892393353623118
Cd 14.813703822619006 7.230790421533999 11.8230592760057
Cd 7.1836955000830525 7.447503204028327 6.974441841561045
Cd 11.120498503986987 11.848117498695492 7.00204360526483
Cd 8.695773784219222 10.201536693279458 6.929418495680009
Cd 11.595345803999654 12.923553276997536 9.740613934547387
Cd 10.682571364353208 15.936373007660148 14.337153064834414
Cd 11.95957569483786 8.176629293071686 10.56854036688308
Cd 12.874250440572915 15.775279695614765 9.267662230884294
Cd 13.5980002187428 15.125010294008169 14.483444022078839
Cd 15.574807428649956 13.627454396567575 8.934311213481859
Cd 14.502734541705586 8.457726981948285 9.042568050526071
Cd 8.605200172514778 13.901694364452084 15.4560990072501
Cd 14.155462303989014 13.823236615911878 11.566015801716905
Cd 12.042891589677907 7.170360337095109 13.700841213875425
Cd 13.431674584723703 12.167510052968042 14.181102463714451
Cd 9.734256840083832 6.518111786857696 11.792268405319762
Cd 10.206127740089086 15.552697947133316 10.635490598618743
Cd 8.576546672816821 11.383892753896522 13.054183444471589
Cd 11.389188133740447 10.120255484181538 13.011225646729104
Cd 10.635989344411785 9.084649596813604 16.58566439586535
