39
Energy = -16.03463186 eV
Cd 11.33083562397786 12.998790187746149 10.72905624233138
Cd 13.978043379211092 14.154359813159674 10.903259648062598
Cd 16.943734530610026 14.621580204404554 11.142727568981334
Cd 17.65556470000772 17.475257814530593 11.07511302653393
Cd 15.787254353135229 11.809847190544449 10.540006699082417
Cd 12.617283945970135 14.430399762792293 13.694910575275497
Cd 19.17486822603901 15.284216242835168 13.073282972709665
Cd 13.416619411371224 11.620806149932445 12.934447110261955
Cd 14.844012716865526 16.661831306223398 12.35982875557377
Cd 18.466619860367363 12.457037445434953 12.716237214034136
Cd 16.45556522874288 19.087083755844002 13.472819284330127
Cd 16.20558113755771 10.555625555764284 13.164642080221146
Cd 15.601063593678484 13.783419038787022 13.865259708152722
Cd 19.53359076115976 18.624995393056775 13.058002142530931
Cd 10.030123260689281 16.193855320712142 13.414335444261614
Cd 10.399354432949783 11.38439930058343 13.134583272801265
Cd 8.893688201082869 13.823850195726315 12.243692568243535
Cd 12.509767720422852 17.695320602201473 13.923695903544957
Cd 15.98303673644162 18.589048661597243 16.71875627946991
Cd 18.755044108338236 19.225455290158358 15.927440148733547
Cd 16.94659449695498 16.38430686626076 14.778856497839584
Cd 20.488961981746105 16.779437946242123 15.29677263989881
Cd 14.03017861647145 20.040405898009954 14.821459204972946
Cd 11.324570076518812 11.058415846058777 15.855886528528437
Cd 14.659574167737361 11.07737272854091 15.648388523346727
Cd 10.529564823799829 16.62394616715981 16.40943501599776
Cd 10.041005996268598 13.76784177663897 15.352672471277485
Cd 14.29651623171621 15.888304238686828 15.776049026523342
Cd 17.872613381896212 11.569281613605382 15.545217425879546
Cd 13.185236879575335 10.25021540075246 18.060666761384258
Cd 18.980231353028582 16.836376897624167 17.941499893776342
Cd 13.03426839546795 18.314289142726885 17.079463228936422
Cd 16.017128057959297 13.444562010453803 17.13952858749781
Cd 12.91526378911376 13.46503307186873 16.82318242969238
Cd 18.699379980737717 14.356459837010842 16.10309592970811
Cd 12.291911166487267 15.852910748740562 18.656156061713705
Cd 13.710781651595719 11.589984858721094 20.624818244517222
Cd 16.194427073852314 16.2510963039126 18.56916588970557
Cd 14.46138529352475 14.233824758021544 19.686834336738357
