34
Energy = -11.33568546 eV
Cd 15.362101602199944 14.129169149696596 8.292452827241497
Cd 13.885696320822523 16.58549377436364 9.434983236486607
Cd 11.689138146297271 18.768615450413026 9.255354651831993
Cd 12.909915856521696 13.661936436759168 10.119673329861246
Cd 16.588458540230594 13.301233093257022 10.894181115407363
Cd 15.560831768527969 17.28402599724588 11.93400194033382
Cd 11.207174532030454 16.05802672104661 11.196453698716047
Cd 16.135743420608232 11.156296270139205 12.882529429018307
Cd 18.023867590606663 15.575001745167347 12.138525280863531
Cd 13.664471754005838 12.682202401638897 12.838722697867285
Cd 12.674726838780357 18.594577250542354 12.183752153190582
Cd 18.779884994561375 14.686555597000806 14.826515733062726
Cd 17.373642256952188 12.08852935895156 15.303385808988237
Cd 11.050026134508771 16.62845589904497 14.146479537834834
Cd 15.683509269118614 14.91416525248997 14.061064469345185
Cd 12.886469502511344 14.340949588618942 15.15154187512321
Cd 15.143994930517119 20.030084124904032 13.377791308573054
Cd 13.910660861961905 17.64184824697564 14.82540645726309
Cd 18.602778939878345 16.57016932930834 17.17915878685159
Cd 9.579130167597109 16.358481673780787 16.813777786122564
Cd 11.353715465590597 14.067329496619315 17.844138092096316
Cd 12.586999480215562 16.81417243772223 17.587563752312537
Cd 19.085722833062675 11.140494398322556 17.602291648347897
Cd 15.624032839731372 16.600910930297303 17.090977495082296
Cd 15.292423427311942 13.403858039026625 16.942489403178595
Cd 20.353521443023848 13.914639378351911 17.33458013600899
Cd 17.067887483720078 18.3457962976052 19.339101355218087
Cd 14.219643942025852 17.57404820173311 20.037067976606604
Cd 21.555455274984023 16.316413018931467 18.825614369717716
Cd 17.768413108680512 13.375552744173103 19.101247318821237
Cd 13.199688548143396 12.366493192436021 19.50923863048411
Cd 18.922942043850288 16.157191467881763 20.287121950575738
Cd 15.152139770284627 14.675442375597124 19.786567952852035
Cd 17.27875139161946 14.365401140440875 22.029808275198466
