35
Energy = -12.58377165 eV
Cd 15.435388624936563 16.725691839574573 8.63924703088666
Cd 15.283697451466281 10.779674351398953 9.637622520281258
Cd 15.645113550432919 13.801652816005712 9.126266567248795
Cd 12.975083324696078 12.543119403175636 10.512685014899331
Cd 12.75730481762493 15.432264146680106 9.272114229791864
Cd 16.780067982112985 18.113071285451714 10.832642770933438
Cd 10.521912097096939 14.270855225605903 10.86457753588135
Cd 17.91386110963259 13.035169036104113 10.875106264774695
Cd 14.252373541895441 10.853842751493959 12.71351628605483
Cd 14.975715127269082 18.874256515020182 13.052229776497835
Cd 17.924786176112153 15.767644888365046 12.232112021935874
Cd 15.50515255062879 13.95647424756127 12.71649547839491
Cd 14.01331792759396 16.42077352155653 11.74673522274586
Cd 17.201561779055535 11.29359319276309 13.196853179451553
Cd 13.2517434025958 8.097879159173612 13.77245204314941
Cd 12.582107126580286 13.587494367826125 13.420061286914493
Cd 12.306926898327475 17.619522367169747 13.932597838696141
Cd 10.133546719887672 15.57697910923947 13.52647947856624
Cd 9.350012302819717 12.726567938982617 14.552017378195433
Cd 14.55887144793134 15.444634934334236 15.17324187043767
Cd 16.046001105640407 12.599936941997518 15.541399572030505
Cd 11.767418092866478 10.871030701854462 14.740646318885709
Cd 14.427704840235009 10.073381145115349 15.923978223832616
Cd 17.91543292901224 15.974437302606077 15.185591369355679
Cd 15.938154989997567 18.188071294522622 15.680352426018201
Cd 12.551296359440082 17.177878186306987 16.89922344741022
Cd 13.169020425545517 13.05677920675901 16.67422936782921
Cd 10.58630978823147 14.812519404396209 16.46974127169773
Cd 18.656780279996664 13.552796171815105 16.72262963388591
Cd 15.434652781895698 16.647553174090042 18.12524352195597
Cd 12.338390768494477 10.324417880108149 18.31565751200541
Cd 15.928587284216066 13.7590925936741 18.354431459859832
Cd 13.220931989918821 17.875597774698992 19.91109439345389
Cd 12.280585655828387 15.00350150794405 19.080078625648426
Cd 13.715946754254677 12.507603620898047 19.92640706466205
