33
Energy = -12.58640938 eV
Cd 14.49601225797271 12.644670992898087 9.082783045770263
Cd 18.399872701997477 16.50730257407765 10.904113179464908
Cd 15.35439449702058 15.261720092056915 10.494817796640584
Cd 11.695172007473355 11.930486386046974 9.633065851077475
Cd 12.358758896127958 15.07559103980617 10.26181467292798
Cd 10.503307493652926 13.146351833231181 11.982987070884914
Cd 11.61225865431773 18.51221029982591 11.333852997873752
Cd 16.270478851397584 16.781653218537215 13.176151893760986
Cd 18.002417464174904 14.262036037133896 12.945745956507906
Cd 9.231578736746007 14.061306310100491 14.594279406007798
Cd 16.086566684539772 12.534715325921344 11.650688591737978
Cd 13.607727864983062 10.376426433103804 11.342432529065535
Cd 10.604335892651195 16.076011008270818 12.590176900218772
Cd 15.567862272693755 10.477498712508604 13.735134865507334
Cd 13.37796245692048 16.271258633590698 13.844458051363405
Cd 13.358249605132535 13.183268181538617 12.865723124685882
Cd 14.504036808383367 18.143316384846838 11.167364984270653
Cd 10.787755893491152 16.453215878247068 15.520331297598805
Cd 19.362836090655687 13.788825098639728 15.518202940945727
Cd 12.819642436167578 9.559107709324504 14.370013886144097
Cd 10.666882561102831 11.45338899141769 14.49722943858113
Cd 14.789586663811546 11.697851813985393 16.453633702548785
Cd 15.589806056033982 14.12581728758962 14.766317752727312
Cd 15.48483578638088 17.32232731789779 16.05247984944188
Cd 18.242533256117653 16.429233196225457 16.406304023602793
Cd 12.597029458087192 13.795536803575125 15.650009895494387
Cd 17.709128589707777 11.240810939290895 15.597676678508515
Cd 12.069376626194474 10.627113733945484 17.218387977046284
Cd 12.92674546230005 16.89925985413789 17.435457059791883
Cd 10.026310145844471 13.305065931836193 17.425067425762865
Cd 12.612974386748464 13.10455533619168 18.9330133786817
Cd 14.87565518647 14.678397530568983 17.776691039740946
Cd 17.52056674308906 13.386327602020728 17.886251224005118
