30
Energy = -11.13036987 eV
Cd 10.075060521259314 12.642463123463813 7.1049989646033875
Cd 12.346889426461745 10.646067510772975 7.289392519891867
Cd 9.482040646113909 9.53062597755896 7.072596149973443
Cd 12.528899164457952 13.253927331004595 8.876809799548777
Cd 8.208861474470392 14.400387472670538 8.588112035109052
Cd 15.259475259255453 10.317830867921886 8.279852950879393
Cd 13.181510465060208 8.117395069459471 8.748816634390165
Cd 7.270184042839726 12.227853340715576 10.253904112811748
Cd 10.327233872508016 7.482905465123063 9.240305736464583
Cd 15.184038326475461 12.725636622400183 10.103126393575282
Cd 10.445560476823601 11.250365905016363 10.01698829249053
Cd 10.723039460809682 15.58249965034215 9.528485234272225
Cd 13.393811729053773 10.25780809618505 10.88914884388219
Cd 9.767619103542707 8.74637860434443 12.000985519214854
Cd 7.940372241584465 9.37121915353058 9.547467366110329
Cd 12.764638508645035 14.511866242747882 11.571933163524923
Cd 7.015568472228757 9.883466604789653 12.345860967536188
Cd 12.364597464661568 7.1721972671611 11.614493988575965
Cd 9.785969620404765 13.96414022915502 11.866889471768285
Cd 17.112385767343085 14.044678945329984 12.30799331310115
Cd 11.31278930006947 11.464584678302655 12.785139817631139
Cd 14.46818935865305 12.368549707210233 12.985846666889383
Cd 7.608593686340734 12.622783070732028 13.220463066984413
Cd 14.385319616322876 8.69953546056029 13.228999935189426
Cd 9.110033060201852 10.291965527785102 14.63428482611342
Cd 11.570145994117746 8.465919387695905 14.484851811167488
Cd 12.344458246520734 14.111365669770922 14.548823876690497
Cd 9.478849696623568 13.665696348939113 15.240314398506904
Cd 11.164319711755146 11.64512954656646 16.588468686342
Cd 13.620899044297621 10.77611088164644 15.275999215661447
