38
Energy = -9.4167231 eV
Cd 22.217065036512977 0.6713607826345739 15.343527037828968
Cd 13.694357728462542 2.1107053382542773 24.121553015272774
Cd 1.8157074482296964 21.89639129786932 19.14556721834536
Cd 14.177350361002633 2.660650131967875 20.871210549920225
Cd 18.334551693986214 17.059748432566753 4.24065037974655
Cd 19.332383166458417 13.75707908895533 3.70002643461194
Cd 17.48437577098976 21.51802274338996 15.262224104293665
Cd 17.438802243650894 20.31970023125074 12.559883861342492
Cd 0.9040400739700641 23.080604089045362 0.9040502753266069
Cd 19.581372404051987 17.533461723368234 12.234410273276902
Cd 16.728963205459248 22.850247828161567 17.777404710846316
Cd 6.000972404765149 20.314698995511133 23.006456853276063
Cd 4.194464757922929 21.723001815718572 21.06337301127474
Cd 4.159900266287069 18.10908692005399 22.065297811984696
Cd 3.488550944380076 21.51575494688894 0.08782291653572426
Cd 23.93398831424003 23.000527492170555 17.221497437718405
Cd 1.3469732924315594 22.986427265265494 22.033942995734403
Cd 16.452958344635963 14.832881571645311 2.636059095754191
Cd 17.363296583012996 17.780584873524795 7.284381378478381
Cd 19.645601030164887 23.24751293294765 16.396576174834447
Cd 1.5126231607634717 20.029194125972566 21.582400126465366
Cd 22.021233532318988 21.700379601393823 15.346145928314472
Cd 18.409174366345578 18.74035003108862 15.304976898004936
Cd 0.8600649254256155 16.2989495122271 17.62586908751712
Cd 21.564734604601853 0.5034282334280696 18.400227941098905
Cd 18.713743858018592 1.3399007581897342 18.4051269977005
Cd 17.904925699555854 18.694530281963743 10.074088358510252
Cd 15.189210886363831 17.440933008580036 5.013889296459838
Cd 16.121679372026826 0.4139776092806409 20.138718617312886
Cd 1.8027870342766732 17.45710100933086 20.19898577893105
Cd 16.818655301912028 2.2224728592253666 22.6114983863582
Cd 20.07022166445316 16.193786590445136 14.903465977412006
Cd 0.010418770777150078 0.5372668992805419 19.91720177076396
Cd 17.01110560619718 14.859463833307025 5.904395844985413
Cd 23.131699847282377 16.831246967500412 15.337222972170032
Cd 17.006972043317038 3.526093152226789 19.853310088832103
Cd 16.475832117513818 2.820699677189668 1.5595214637027786
Cd 21.286908938266595 19.0730928224438 14.298345941023832
