35
Energy = -13.54209362 eV
Cd 11.050853302926846 12.153820893690042 9.553984203298716
Cd 12.68226146575587 14.68684527549276 9.292432059775988
Cd 16.14544621898275 13.572485948770794 10.632715634244823
Cd 13.911043324730922 11.779840392393192 9.412269858443484
Cd 15.305653514564924 16.141714939998167 9.379802770876546
Cd 9.851853628330606 11.299901396128623 12.07406560635683
Cd 12.153832346896634 16.57832794765397 11.610017894867788
Cd 13.39850353862359 13.754033958067444 12.208891005667988
Cd 15.844813476150248 10.613513959787362 11.287110044054268
Cd 14.942795367946333 17.968933103319127 11.718407440666512
Cd 8.095806852286342 8.905822232491554 12.691088714925934
Cd 17.03904604173637 12.615908453975537 13.412120882762169
Cd 10.270606412594326 14.297200107537167 11.784969175895288
Cd 12.832471114800317 10.667651937616569 12.243182621253338
Cd 12.513450362511296 19.267941723059852 12.946987796234032
Cd 15.11585925487181 10.31637990565079 14.15098105702522
Cd 16.059406523864574 17.43149863264368 15.334996639369605
Cd 16.065351982707835 15.495810429748897 12.961801441302786
Cd 15.369126751410393 19.952697700965103 13.895658751435503
Cd 13.295393673708473 15.911301940880303 14.391718239800824
Cd 11.375537156510035 12.512657762627132 14.33432364700057
Cd 16.737189185436684 14.699993274754634 16.0787120074179
Cd 10.766034809715341 17.719313139400906 14.8341407952148
Cd 14.390684928745486 13.097232892556992 14.892669106109466
Cd 17.858920720276082 10.166732065811253 15.387000021137979
Cd 13.397767962928615 18.692613602646123 15.905628356263977
Cd 9.623689932861335 15.08059826614859 14.58263547817536
Cd 14.451148139275688 13.632297462150493 17.847173791622858
Cd 11.554888716611472 11.10243213337454 17.042744014778258
Cd 11.572391306200059 14.29489034481629 16.808359763560432
Cd 19.17773603851915 12.92325170988812 15.618242358867253
Cd 14.449979885326277 10.532325740892098 17.061299557778565
Cd 13.49018085626575 16.406908180544836 17.75674896860047
Cd 16.76994342988911 8.363647642029564 17.739511565383282
Cd 17.051171702202033 11.974314828651236 17.73844865599416
