37
Energy = -10.83580623 eV
Cd 18.449610403189755 0.7834141052941044 16.448735503162734
Cd 22.41363691330194 1.3474355834936618 23.53560457017942
Cd 16.53960946322273 11.68288517356098 16.7878412804448
Cd 20.85809828800625 1.970474872746403 14.971110787319729
Cd 17.799613072352997 19.444473022533305 19.14642897862142
Cd 16.189251177242372 0.47412574121306983 18.239232679581058
Cd 18.28924330133908 22.352349562084573 18.717772683860655
Cd 18.94532896046993 1.2654209360121011 19.62474392081308
Cd 19.983527110399592 3.5149220951749016 1.0936218705624845
Cd 22.928586219767215 3.1644811898575336 1.8886253512576707
Cd 19.314315440445277 1.4512111100036127 22.700001118490704
Cd 3.7998472051390952 15.283748652178476 22.73660089973239
Cd 23.249195082643883 18.355567425083276 21.978455242041285
Cd 17.103502615982528 2.9819675921227486 0.5096740623793979
Cd 18.151617301911244 14.587776902667743 16.09970762937022
Cd 21.927571239818764 1.4092669598086394 20.68613851677543
Cd 20.73660355928924 20.130016571614142 21.514044606661727
Cd 20.33809234550473 20.407331656362924 17.398202247546102
Cd 20.941855393976766 22.86703062258692 22.50948413084816
Cd 17.335786677338174 16.649854921070567 18.25806935192111
Cd 1.6197971609561035 14.750400123232962 1.0325919242109807
Cd 22.440465670170465 15.77460820886772 20.167546473346103
Cd 21.425149590861018 22.674364528225713 19.26311382455615
Cd 20.87942589144609 22.94752603137109 15.990302448740275
Cd 1.8960136983230997 12.751666256594278 22.51199212310804
Cd 20.072381632071025 15.02100806836225 18.482991666323034
Cd 18.187998265253686 12.079436174998404 14.157269158165617
Cd 14.305692486131024 2.7575956096984533 23.546647463947306
Cd 20.470920577449608 18.028810779194586 19.304501841774883
Cd 17.434768525041083 13.725864238989228 19.173956561273773
Cd 23.001165757308378 19.86442859917081 19.26331905970692
Cd 16.47037735395413 1.5830099423429023 21.45425906723905
Cd 0.7803279827156263 15.669802359386328 22.145234852221986
Cd 13.844218808123747 1.333852232599822 19.667775256579183
Cd 15.484174747722347 13.694824481522645 14.595731451448094
Cd 21.512709678691163 1.559673095610084 17.835549506301508
Cd 11.930100288426791 2.3373999844151045 21.72349980865598
