32
Energy = -11.17347846 eV
Cd 17.11491397317674 18.860433720085762 17.243935655296113
Cd 15.529518596407945 19.50722718401639 0.1486448068305457
Cd 15.844596559768226 17.346273836668146 2.15738057612071
Cd 15.36283233144387 14.391902407795877 1.6915643010875672
Cd 0.2247701334868291 0.2921069584802166 18.70419329596609
Cd 0.6800230497321773 15.024647266173055 0.7635343357395316
Cd 18.465352209825802 18.22108140673896 0.694510638026656
Cd 15.117217662568414 13.633780330711563 18.58327751017006
Cd 18.262522085002434 15.593790459636732 2.688497003337729
Cd 14.038550904827986 18.709550281738355 17.23863050848273
Cd 18.009527735966884 13.405781820616765 0.021806308637725265
Cd 15.829643688514825 11.356688627729635 1.0083862780538444
Cd 14.542576192607866 1.8386490546371252 18.020399287865118
Cd 15.349791287087173 16.11580156910652 16.224497359239503
Cd 16.823688929303696 16.237525349103333 18.849684647952362
Cd 0.9624501736174608 17.120687399812795 18.511486676860468
Cd 12.914281474184135 12.701812586179438 13.359576179748386
Cd 13.622343556176935 13.612085074310075 16.071801753595224
Cd 17.531619557294654 1.9084576784784082 18.86408701120398
Cd 16.563922574458342 3.4143682296878115 16.31162372782849
Cd 15.396312868339782 0.9598117259405677 15.071541150246217
Cd 18.672731779358497 16.31338065231482 16.446025446037808
Cd 14.056970891625898 11.359040540651915 10.918571271679246
Cd 12.89249759738649 15.807897868809244 13.835797391067295
Cd 0.7234981123074506 18.749875068671518 15.986397737053672
Cd 14.887043230111495 18.074075597669545 13.931220064315191
Cd 18.761069199915656 1.481541314149562 15.884557149394523
Cd 15.278800358948072 14.406160351332437 12.409088713932135
Cd 17.962875144049644 19.008240566644762 14.057959049646426
Cd 17.006668608900604 11.873372978941479 10.393842007620941
Cd 17.34315856164335 16.122214420262157 13.85639754112499
Cd 18.442565166910715 14.1513623949232 11.87255997461769
