35
Energy = -11.62744507 eV
Cd 13.16349139384229 17.572490450018712 9.912185391464241
Cd 14.381134199445748 12.153065332472863 9.042229938513241
Cd 14.867592977627766 15.078017738548997 9.646095889477213
Cd 14.106594561367295 16.09408349009052 12.449024308835046
Cd 15.065840515275031 19.517028157355973 11.159541874657755
Cd 13.206115619868003 13.307404902815094 11.77342960460332
Cd 17.256306853838403 15.864642401730649 11.229360754867006
Cd 15.516281742825653 11.292203575141853 11.76012637035858
Cd 12.440414648234167 18.894101603686558 12.702363652506262
Cd 17.731383132743485 13.185066279517223 12.378866168576302
Cd 17.812345394813377 21.11186257641886 11.440015636046281
Cd 13.056829038427619 21.91275866066857 12.921666326833236
Cd 12.910786245122617 10.571988082077867 13.901390862211567
Cd 15.295450681957597 8.707873979580155 13.17693825830812
Cd 17.17993043684439 18.31485568287916 12.961814546266611
Cd 15.839539053104852 21.191205852631025 13.82985440519118
Cd 14.14037633795473 13.569377313902006 15.081540667856974
Cd 11.133863006638355 13.107464435471003 13.894583763036524
Cd 16.275323467798824 15.84244269278356 14.520662597417925
Cd 15.564629409366097 10.64269334963752 15.511502937694162
Cd 17.274948225544605 13.109097051561335 15.275731192826424
Cd 13.155800359600276 17.01774654309197 15.13087507089498
Cd 18.536106637682273 17.18445916364806 16.102601126187263
Cd 11.463761455167118 14.857565888141565 16.28684913174782
Cd 17.021662024309403 19.863537890410612 16.21774683118311
Cd 15.527937514941554 17.45421202678677 17.076104893010786
Cd 14.807973721641746 10.889290067043536 18.498929890108695
Cd 16.789491841124587 13.456059565978125 18.195050960085617
Cd 15.280883308868933 15.739606654550393 19.35076795897104
Cd 13.44465924795859 13.688554471336525 18.179435344072953
Cd 17.230250495827306 11.404200551202253 20.36261640155155
Cd 17.004636126469446 14.335777528283602 21.36724350470628
Cd 12.692401532212147 11.978276119431337 20.478114528791863
Cd 13.605434688093279 14.76984211610476 21.61702373146363
Cd 15.054279040350206 12.15560274189059 22.402170416565866
