38
Energy = -9.48513289 eV
Cd 21.51754582510577 8.085520300938825 19.48751519261732
Cd 25.023380335408568 22.549568354380177 12.816379890120828
Cd 23.27494279954193 19.412912900363853 24.294311663224324
Cd 13.491950659784813 22.853463189838592 20.465662635384394
Cd 24.350617550192254 13.366305488525535 23.59424007387985
Cd 1.5995120755110188 1.7222801264776166 22.401518747627737
Cd 22.69731630550246 24.338504273043768 14.06461219508445
Cd 19.141805994590605 22.40623439674416 21.55849839490051
Cd 18.23016991824617 23.50702545044333 18.68708727395417
Cd 25.623527088061334 18.53220153438335 26.064288489928305
Cd 1.6876078646571857 22.939607668911954 0.0378212772749381
Cd 1.8640320325691881 20.27452120037205 25.230778812660546
Cd 19.576006534107865 6.403112232042946 21.86380903745378
Cd 25.53512397254772 21.61951175357653 24.839838779072036
Cd 23.168262500618297 23.416803710512 23.714453636537044
Cd 17.19376504890355 1.101433350671494 0.6959105581840589
Cd 25.673375715989746 25.472532500230507 13.906331220906395
Cd 23.962238607438376 25.10908066278919 11.23336527502664
Cd 18.522589151713895 24.648136138431997 0.2334674247036002
Cd 21.467416914523035 21.012506611780505 22.80338119658753
Cd 16.36448340909445 21.6071740714313 20.584872301291313
Cd 14.251452480354084 23.699288715575218 23.26607015081039
Cd 1.8788462660140657 17.364877959075713 24.426707085509488
Cd 0.9917027118651964 14.528894703590414 23.645381288788208
Cd 25.20082052116612 17.139501337401164 23.27565899400842
Cd -0.30882615463521057 25.006534598431703 22.406881312787025
Cd 0.11227146452289187 12.344609763198934 25.737021223656825
Cd 16.719011310206618 24.557440626146487 21.34661131616998
Cd 15.453332893058228 25.33744558455442 25.46178057240217
Cd 1.6150042124996284 22.345710595602856 23.123194078305634
Cd 25.376675365120548 15.345815838741508 25.99836517072063
Cd 0.5484292559751222 25.477996234794578 1.3569859694962003
Cd 2.740386421777256 24.967377993454637 22.092524635032092
Cd 20.21500950408421 22.963769095186393 24.86701916072399
Cd 16.039657430963764 24.837904621777504 2.14503334415924
Cd 25.196939481860507 24.636310150061178 25.372841719545264
Cd 17.16665825539491 22.844093684062923 24.06836823796788
Cd 1.9318434358573988 25.734532173559618 24.937484408033182
