38
Energy = -10.86518847 eV
Cd 18.74957895351755 19.93290565175545 3.5903942062047465
Cd 17.248303186402005 19.955973336638962 22.134766599725964
Cd 18.55615359626582 20.765524380150325 6.313062914493947
Cd 17.75070522198772 2.024511992221114 16.38117234014546
Cd 18.845468716543333 18.437508418905097 14.5789274684392
Cd 17.815750841449013 0.8848584047549083 19.702637028771957
Cd 18.30966198157828 17.4146221706704 17.84103539308666
Cd 20.0364131867682 18.193491398988037 1.5126857793802944
Cd 19.236806160293618 20.573822183156814 17.221621740846473
Cd 19.443740730486333 19.39493140262275 19.84152522542577
Cd 0.6239086721907523 22.594248712127147 22.391169988617623
Cd 17.217582335763513 23.002860528489133 16.99295099203097
Cd 21.826697456649057 22.985717311577762 23.83800534629095
Cd 15.474248397416916 2.544607099578261 18.48699521713468
Cd 17.32147538385634 19.57752312118685 0.9397810134128123
Cd 22.08962293234197 16.915734185971814 23.88508109325813
Cd 19.649246595724357 21.493770668727464 1.1725555182564829
Cd 18.420439917820104 3.779262148818811 18.817397805495315
Cd 17.570548181392688 15.7818854644916 15.336406909337422
Cd 18.26347472322536 21.855730968560017 8.990040291448084
Cd 17.72087716572464 0.2458146684804568 13.974835932692775
Cd 0.3769807996644897 21.580095334296573 1.2410969442392634
Cd 19.830626041964656 21.55738022194878 22.13435220661889
Cd 0.06378562975525677 0.55627343092711 0.6520856738192783
Cd 22.116493916694104 19.89592063788088 23.78768513981377
Cd 23.229224515631014 21.98821770632944 13.949292960033773
Cd 21.41666584172695 19.918052429761868 15.205982633819008
Cd 0.996099521284623 11.985480381410868 22.55262276123373
Cd 17.765405675946283 22.029079071364393 19.800802084770552
Cd 24.018054102864824 14.772473298978909 23.358243296845043
Cd 15.056729930797779 0.5397749172597422 15.569286792018335
Cd 19.74623313091618 18.13962131977481 22.52572209635402
Cd 2.357332618544329 9.152466976124026 21.82663145407291
Cd 20.624368393721866 23.43126216377523 13.328727132991672
Cd 3.0747429667506263 14.434930247220235 23.322278953954896
Cd 18.19088040952944 22.31050765205561 11.802116430728752
Cd 3.8131882716671086 11.997929461886036 20.889060904116857
Cd 18.530072540717867 21.391449921251393 14.519913729744935
