30
Energy = -11.77091679 eV
Cd 8.437422868938913 11.147165008773833 7.93252558507185
Cd 10.115978063731742 12.567743451142436 15.875040416896542
Cd 13.837204316956047 12.657416520375856 9.38790990083121
Cd 11.03810653016474 11.443964169205136 12.80938722517652
Cd 11.144626644771595 14.698679259099798 13.145589769456175
Cd 9.453101423557367 7.686013519533854 12.775467504136387
Cd 12.276901184398563 10.905933704303768 7.485479485990021
Cd 15.203651745291817 8.473917979974424 10.211879250703094
Cd 8.351788051413582 13.335389957252874 13.61204958518584
Cd 10.580956736126923 9.292832151402884 14.965570079067266
Cd 7.813374838816838 14.096161028264483 8.353880076133366
Cd 8.974464394904667 14.827028568832537 11.074996843553615
Cd 13.006303503876305 13.462838003982476 15.260624623648184
Cd 10.445193592321505 15.7366765950958 8.50220201579598
Cd 13.015723323239277 8.08531806217097 8.140891769841499
Cd 10.527396631162716 13.221629446728548 6.919784926846035
Cd 12.652936391025127 15.346470146641256 10.34714919245684
Cd 13.544980301170064 6.017239090900235 10.449516128653029
Cd 10.799056128456495 7.183617820187187 10.222297060379962
Cd 10.771413524679849 12.52612540333333 10.063362958445218
Cd 15.511965973644102 11.084441622353848 11.375125428606971
Cd 12.533917280234627 7.802847118462137 12.802606575103077
Cd 9.198297463277635 9.819948787056163 10.512125965178702
Cd 10.078522898977926 8.652143153268328 7.654292656350758
Cd 13.836278223485103 10.341673213265278 13.751922403091337
Cd 8.182656727098308 10.394260592946127 13.28126273118509
Cd 7.260815424130055 12.238107841389997 10.822293524497917
Cd 12.379060312373676 10.054818639935066 10.59180931515165
Cd 12.528588006716019 10.845731124954897 16.500881113783162
Cd 13.681591106691231 13.236141630799134 12.354349500415037
