34
Energy = -11.63687797 eV
Cd 12.568466420889976 9.532576953729516 8.45448556255614
Cd 15.268016658901695 10.936607336554706 12.086283000301764
Cd 15.943288750244747 11.993669548761451 14.764112946748376
Cd 13.74526936067979 11.544098035297633 6.57833526510969
Cd 12.596112948931584 14.279581479124808 14.59092836131113
Cd 7.805054841833097 11.901622589487438 14.206570274109918
Cd 10.711701625297861 11.846643115181266 9.01039367424012
Cd 9.252276803637995 14.20599685782563 7.681873633079598
Cd 18.255996785025864 11.929189858669499 16.884121274701393
Cd 15.46722450099981 13.434798750186783 17.461277795861715
Cd 13.92938119152921 14.992027800988241 9.604562718374083
Cd 12.427283547803421 12.14303443461333 12.514043278122179
Cd 10.232058132608369 8.858868716333111 10.23133516688492
Cd 9.407647148155034 11.347551405964658 11.725085550826583
Cd 10.978300034993625 9.782788818516842 13.708989712881644
Cd 12.42905205279903 15.837615570749717 12.016665661961312
Cd 13.123570244531626 10.952179990459422 15.61937962107938
Cd 11.17394980681554 16.232299959553288 9.171061529981689
Cd 15.26384802132988 14.296674314784946 6.974677308891705
Cd 12.15113449799612 14.14399706886695 6.993504811667675
Cd 10.000376197360973 17.469413320039262 14.022275349272254
Cd 13.715554710503945 12.07536613097809 9.811388394799398
Cd 14.652707441607438 6.653919921931526 12.574173003704123
Cd 13.716711124032985 11.15483740413329 18.644815571319526
Cd 17.411275643799605 14.642892227764886 15.273406990668036
Cd 13.013286826870958 9.013130465225812 11.410610997098336
Cd 11.306855237497356 16.460708569145297 16.62659111833228
Cd 12.363551702946362 13.785009598400721 17.641315984261364
Cd 10.38213145146726 12.275318385673378 15.70578668252945
Cd 10.593186184070413 18.381772202077112 11.234695362043947
Cd 9.491404218128547 14.545665050091426 13.821001147886516
Cd 10.060478862908733 14.093530675209898 10.949383396825437
Cd 15.288452058862546 9.02244399458684 14.529490572860446
Cd 12.590163432375999 7.549937916530271 14.793146747145093
