39
Energy = -16.5312746 eV
Cd 14.861309055788265 13.65361918091953 9.008024376914706
Cd 12.181532722771449 15.425846497796549 9.656453141056422
Cd 11.956088392639721 12.588518881141802 9.418160563399637
Cd 17.29763284456791 15.063876200725844 9.726771092597353
Cd 14.36573670290904 11.58503959659284 11.059991431643969
Cd 12.92467715208258 17.692795480703904 11.353955169322473
Cd 16.61397023265989 13.397531257751554 12.198066563102117
Cd 14.89638762764032 16.718786328313925 9.328904913597594
Cd 10.785849347120834 17.25247862630413 13.29686145359856
Cd 17.50290085540172 12.713304539185948 15.032860182227708
Cd 11.02700495750494 10.978273822150369 11.592752054761691
Cd 13.325152560527675 8.945654529904195 12.095294622339647
Cd 10.718505897262723 14.155141324801903 12.063971618621823
Cd 15.902158606397494 17.417854860164514 12.067012019214925
Cd 18.810612616225274 15.769128575072871 12.05423399280287
Cd 13.035895665138375 12.38406948871829 13.681640187793096
Cd 13.611211248726251 17.884028407871433 14.300680425910157
Cd 13.963015712355759 14.767834295341675 12.157605352385117
Cd 15.633191509861927 10.820174740116068 13.764877358011223
Cd 9.917320303888776 12.107122550364982 14.359385516622078
Cd 15.662308125568996 15.28390128626886 14.547601958991628
Cd 17.821883729684327 17.904014009538688 14.172247450281171
Cd 11.096814252329402 9.405889505439864 14.130287032395541
Cd 9.26716924280564 14.92906575144423 14.66080341061164
Cd 13.859103837571494 8.79545626465616 15.03661618369245
Cd 18.524026550284216 14.09871536931508 17.49231910053632
Cd 12.551870470978587 15.060573132245178 14.917162667180138
Cd 9.497310788276543 17.670211398497646 15.921348395452759
Cd 10.645606264155758 13.580885657441081 16.961595122053883
Cd 19.31045137618675 15.211361181794652 14.835740447197374
Cd 14.601153853966093 13.010449013673579 16.22315826073111
Cd 14.328414656384604 16.915379768892283 17.07083991519325
Cd 12.210994967827451 11.094584666317612 16.408400567214066
Cd 14.90968955636207 9.898466442903027 17.513114040576678
Cd 16.92120198540587 11.780890220883514 18.238376237965657
Cd 11.483228374763755 16.526369944951842 17.679233130422244
Cd 15.77835418683136 14.747259094006422 18.515115384396207
Cd 17.325276352946037 16.771617449264944 16.79079107120348
Cd 12.932152962546883 14.050996204871153 18.72491313432808
