32
Energy = -9.67486571 eV
Cd 9.6601109306887 12.774259257662566 9.41154870356103
Cd 13.579949985286643 9.684296752473134 12.445088723143055
Cd 11.212840990902112 15.140882741964434 14.391900270896992
Cd 16.129680098427922 11.963817968999042 8.69490643547628
Cd 8.162768108452063 11.868064896001119 13.82953681967137
Cd 13.63961810028583 14.097268121775826 12.874753841537995
Cd 10.08757046483782 10.3784303547732 12.112940969867113
Cd 12.121747518601882 6.678383710275505 16.825416907636786
Cd 9.703905185814927 12.114724943622907 16.652454888238925
Cd 8.938529802618033 8.224774137081962 8.698604640141385
Cd 11.419701586372973 10.18549156226664 8.668372256721476
Cd 6.228046720667084 12.609180756376562 16.31430571602916
Cd 15.391230965633833 11.958250893956839 11.649001458316818
Cd 13.895003242127746 6.6766969723809115 11.659440514124665
Cd 15.1245709093853 17.27118335617407 8.696659650340544
Cd 11.181633763425836 7.872228965689298 10.835172347922224
Cd 17.091054702846822 15.06223031174262 9.66397895959558
Cd 11.591394976796131 7.506529946284641 13.861666581743439
Cd 14.35031265273892 8.225813216273764 15.304456491135687
Cd 14.06162835401804 14.552573357851736 9.946771418156727
Cd 11.658308162492288 11.925002769654572 14.159040494865279
Cd 18.03126709346896 10.413700623171776 11.590931240876495
Cd 11.646959573776696 9.700179564270382 16.314655136491258
Cd 5.7062603165961505 13.890674250068448 13.401441491349502
Cd 13.547397854497037 13.786195620044747 16.038364463241233
Cd 15.565519485759665 16.807675967166002 11.856592234746412
Cd 14.108777863887079 16.615279483870182 14.606957878380033
Cd 12.32608688918106 12.140842778840232 10.814930769406432
Cd 10.170952226625795 15.071280638004858 7.467387445879297
Cd 13.114349678552221 15.370401600447384 7.174135865405099
Cd 8.371966980528443 14.614933643230394 15.122140345352795
Cd 13.360761044079023 12.344629067969178 7.515893935587017
