35
Energy = -12.66853782 eV
Cd 14.639059836131514 16.266703599111047 8.317862581290107
Cd 11.933504921201264 17.180024008496762 9.50284794000016
Cd 15.576387224032922 13.669196344696516 9.56167842802922
Cd 12.611261562505907 14.06184996340139 9.366238356423025
Cd 14.400226456862045 18.86292531855296 9.988776337816207
Cd 18.330478391390756 12.84588406790085 10.43403878403641
Cd 11.08208362643617 15.257708918360036 11.651361892884898
Cd 16.01605652958382 16.536236129486426 11.087808121029473
Cd 13.19689093684407 17.432089386420103 12.447015727245864
Cd 17.939014584935094 13.940969194490016 13.31672072730799
Cd 14.031040626409563 14.432610703730433 12.251061154505456
Cd 11.763465655068732 14.334628986690637 14.54003052055423
Cd 18.924962958643977 15.834285580670839 11.015060309080125
Cd 13.478626383263004 18.249465802566185 15.25851180154363
Cd 15.839341514298452 11.818165615788962 12.088004452064197
Cd 8.700534421637183 15.732233187070017 13.404087725817368
Cd 13.318073218379205 11.803778477016747 13.811038246403735
Cd 19.490530156654625 16.467501993497738 13.94365959151634
Cd 16.01658172112782 16.214725416175895 14.048446327592567
Cd 16.448075069868946 12.04914826186837 15.072328372715166
Cd 18.314300123798812 16.2742542124474 16.6327167081564
Cd 15.413986197452527 16.97886511604476 17.003210400864255
Cd 10.752592020406667 17.333415889627286 14.91732596050297
Cd 14.40007575909568 14.412770228896063 15.855765931037391
Cd 12.818937940323313 10.358341643837509 16.304538811052453
Cd 14.947361981732477 12.062055823925434 17.647205293175666
Cd 13.609001306363055 15.474977875330016 18.89121135247794
Cd 12.682968679075245 8.714818873665308 18.89130123410266
Cd 17.73646007165813 13.443278515516402 17.40241667375196
Cd 11.060424394381043 12.672122976385948 17.216410835124112
Cd 11.130348467254487 15.607695848180956 17.34787249138679
Cd 16.875884937429607 15.632425440307479 19.338987252566305
Cd 17.26892551269402 11.337493600272795 19.74749426448181
Cd 15.082536339782829 13.452200834054432 20.42858957153985
Cd 12.590506754025542 11.675658446264496 19.688882102671162
