30
Energy = -10.36676169 eV
Cd 11.030642388143775 9.656847071031452 8.421851589741587
Cd 9.405377551791245 7.517732293770481 13.09975910582576
Cd 8.813218730679354 9.136365857571523 10.343967881775251
Cd 14.047499170212424 16.938947217034006 12.958863568248669
Cd 9.195822628139357 10.618770351851701 13.381047803359001
Cd 14.486040517783179 8.097760997455767 13.641663147578425
Cd 13.961234242684363 15.125892146236184 10.302311109060906
Cd 8.417463914219498 15.117375569852035 11.748284770248661
Cd 11.29628639764159 13.34511384219907 10.473714936522258
Cd 13.111454163255614 12.023477257726421 8.545630427153203
Cd 11.491812230881397 7.6185177870306555 10.930184504056058
Cd 8.710104186213409 14.3276182905402 8.84188363084458
Cd 13.062133816034436 7.302131443900523 8.321906350587785
Cd 11.64880510859961 9.160767004085983 14.37582397463163
Cd 8.549284190157264 12.034567000497525 10.812238923492814
Cd 11.494701341402372 15.37420203125976 12.592905875415056
Cd 10.35931764624389 12.430654248535923 7.23253655690757
Cd 11.620547670710346 12.393660051742389 13.636494795311501
Cd 7.122838859399029 12.858724816140432 13.56710384859159
Cd 13.963579683799288 9.40770309774408 16.383432745147612
Cd 12.159411356150738 10.536595474236634 11.300656159522061
Cd 6.8449346739445245 16.126723629025015 14.563643524314259
Cd 15.972483514693964 13.555896049315075 8.571002862835767
Cd 15.080984647048924 11.603619523663115 10.941528895782037
Cd 9.534640734526922 14.346806244876491 14.634945827988306
Cd 6.8844550343488375 6.942981867611925 11.286298855806416
Cd 14.529346226004632 13.93251780334874 13.071764469516511
Cd 14.679299599797158 8.357758606490528 10.750793627084834
Cd 14.438616899994022 11.192414176188823 13.990545273926736
Cd 14.873755906358275 9.703951279897478 8.063307989582919
