31
Energy = -11.24298134 eV
Cd 15.410763163840793 12.223750131141744 15.112162679303264
Cd 11.550977389029695 13.109278620034017 15.171048252128116
Cd 8.752183406968044 12.087519664654623 14.502636334304045
Cd 5.330507626707768 12.176019022133115 10.111395613550291
Cd 7.5479504939383135 14.317437735482933 12.760901068823888
Cd 13.28354637932251 10.767076137263512 16.52533415531054
Cd 9.922456095176216 13.464691707991438 8.118994387443127
Cd 8.409533713871944 11.03447585980823 9.323136712303727
Cd 11.225922975943453 6.6212505538931685 10.207340043342153
Cd 12.394872521172879 12.81440865831537 6.607384085422303
Cd 13.180104214013456 8.493923030176031 8.729405117694883
Cd 13.971527467759733 9.467976915684211 13.670073735740873
Cd 9.835397453551495 12.582529635071275 11.572831240078928
Cd 9.08930055650908 8.148097220135767 8.769886496603936
Cd 6.354013978749473 9.199491065653813 10.59836479496713
Cd 7.6167600604034496 14.05526825140024 9.783135550736693
Cd 13.959711735265927 7.302576516758678 11.488583480386444
Cd 12.381227490805678 12.901569522055775 9.74308292186618
Cd 15.695757486886555 12.93487394195868 12.295656797230189
Cd 14.666194392604964 10.71688993393799 7.559010721994275
Cd 11.269090337242025 7.685354609185615 13.035664786089816
Cd 15.217255515210802 13.590641041002929 6.446881810779184
Cd 12.683983435424329 12.116098290598456 12.637960323764945
Cd 8.82432469433178 9.153105487679737 12.34367820961568
Cd 10.923627994676844 10.080670550396757 14.683607529224588
Cd 6.50793719865917 11.302069794483446 12.777414154714817
Cd 15.313881063577174 13.096688058517246 9.413320355600234
Cd 11.378674083487656 10.065419424215587 10.82349817385148
Cd 9.618939571032216 15.40011845715645 14.702832465116238
Cd 14.766775694225306 10.287962524150009 10.794225476968494
Cd 10.958054650679065 10.40837160661321 7.6488412210687295
