31
Energy = -10.56068637 eV
Cd 14.954255298472537 12.548573698307507 8.679222933924217
Cd 12.349246596655801 12.166766258933578 10.384101781267976
Cd 10.951699078334341 16.633144289839933 9.737996140761435
Cd 13.640085590901359 15.032731053672622 9.7416215462424
Cd 9.463002031973662 12.52469061088713 9.876459294959785
Cd 17.40888961046567 11.66989597940755 10.402852184402011
Cd 16.7109568549225 14.909034772161526 9.696060388211093
Cd 10.196692266027727 14.698247461766472 11.903855595071272
Cd 12.515751802808827 10.717337030163131 13.336283669860862
Cd 16.79112845197252 13.759881555302192 12.47296473853222
Cd 13.763592110806462 13.613223071596407 12.545341886407174
Cd 14.731027152322563 10.3706855942398 10.968729727737811
Cd 13.326057014076731 17.385734532692567 11.56477106787343
Cd 8.447768541713788 12.3676294366891 12.816857200397598
Cd 15.770296554359634 16.485768643638472 13.148630719466052
Cd 16.002807554247834 11.167141631061204 13.62041169411976
Cd 13.332715947340962 17.73570481647646 14.49871257492851
Cd 11.889620322652856 15.176091143160718 14.289775033983382
Cd 9.893432033100687 10.934254130805563 14.961692594277448
Cd 17.921389826920404 15.044995184774754 14.973794236228004
Cd 14.996045903625856 13.749764256002992 15.411054927499757
Cd 12.117526894002086 12.630774604404627 15.877938837755215
Cd 14.298197973785403 10.620255718027327 15.94432840811796
Cd 13.5637748465007 17.88370623440783 17.39976584188558
Cd 16.020708099899778 16.22768979450112 17.0005491775755
Cd 9.906213063367925 15.042510490043094 16.64732736408595
Cd 17.65250716378819 13.345724790114451 17.487030076937103
Cd 12.857067684959507 14.970259591073722 17.692371389754623
Cd 15.70534407001087 11.108238403605686 18.53328458532086
Cd 18.128456672142953 15.956497245254047 19.562041576498267
Cd 15.22382609669973 14.053131085847818 19.354255914777383
