34
Energy = -12.70401289 eV
Cd 12.41722888420205 15.094889436293286 9.983542130783484
Cd 16.719953811915122 13.927588459446975 9.252398931543679
Cd 13.940424327110435 12.637057595863244 9.139553999065539
Cd 13.343806173491647 9.827807363673447 10.336001529088312
Cd 18.181161689062353 16.154074066994493 10.801222779889263
Cd 12.759508021231984 17.7932212536819 11.122355785778343
Cd 10.51873755449325 12.95531108137105 10.314326074638128
Cd 15.166189891339133 15.996574001718692 11.109262160910006
Cd 10.342603202740284 10.032483950176745 10.398142492153386
Cd 10.012330663441519 13.920082642645944 13.206376663324614
Cd 15.487869723466773 12.753914173764505 11.74738637834674
Cd 11.631464391652097 19.047587169801158 13.445942361946598
Cd 19.043960175707728 13.703010653857369 12.11013348609138
Cd 12.604558144925434 12.336712818547017 12.549771804485625
Cd 15.10107187794422 9.904803635412708 12.935050689248202
Cd 12.96456502122055 15.361978299455618 13.253742918909817
Cd 10.991443307838331 9.678656609913789 13.236880796408574
Cd 13.222199838626022 8.84952191513138 14.94761772598184
Cd 17.43143666965656 11.822548544794317 13.75761112712258
Cd 17.02576346190509 17.454746125219167 13.232917292057511
Cd 14.610550558139009 17.713927939281156 14.95487808577791
Cd 10.209350199234542 16.4904129739153 14.615260534093942
Cd 10.678019845567912 11.847589933930456 15.23960247970827
Cd 15.975357376259609 14.72551825661011 14.086580167638195
Cd 13.899857835537912 12.394618138907315 15.229719136452731
Cd 12.009484515757343 14.658719810036771 16.235670611879573
Cd 14.403440887351943 9.935269732678783 17.31457792809284
Cd 16.58248075139955 12.03762935540764 16.555849364465715
Cd 11.796816647264496 18.41939238363823 16.31001528016578
Cd 12.074867562187938 11.973270771219536 17.851653989646604
Cd 15.351998387184956 14.832750431630657 16.99096042132422
Cd 13.08605421613475 14.582277971758419 19.125144565098324
Cd 13.823082206833266 17.228004539649017 17.949815642015622
Cd 14.995258450422346 12.310944234820084 19.062930937112476
