37
Energy = -15.05312192 eV
Cd 14.712303733558818 9.038885256432408 7.867165288255835
Cd 12.225700732775541 9.854222098109574 10.275409401102639
Cd 10.480983955787867 12.703204984525932 10.844475354529209
Cd 11.00724689273521 14.282251266639435 8.336904917830879
Cd 8.77685309902197 6.594300832336903 11.613243372352514
Cd 15.716163791105357 10.956569569335475 12.830782457447661
Cd 11.795645464948814 7.348414558350461 11.901699715903847
Cd 15.141710491991448 8.381069683642842 10.93232336107654
Cd 7.277602262367561 12.118649399346708 9.709782030871303
Cd 13.299245511574071 14.79639843314967 12.713438433795499
Cd 11.243881175779412 9.993106098707617 15.193153980924034
Cd 15.340173560682738 13.461481282679378 14.4803880292325
Cd 12.668288077651766 11.565279203399637 7.860136340085365
Cd 9.735985474469311 7.5524164884108504 14.249248753147823
Cd 7.736384338574382 9.20236660504355 10.45432405493999
Cd 9.703766967887876 12.494043576314457 14.045369084348163
Cd 10.472276848303718 15.312663221735525 13.387278512874964
Cd 9.830126094436006 10.16230435119731 5.507980433727404
Cd 11.923052076513503 8.546633401409329 6.766853632810115
Cd 8.176993028551239 12.45710419665854 6.7397210017604685
Cd 12.629426398680792 11.68775387636651 12.567541402078144
Cd 12.216362749471571 13.528797450886234 15.310829992286738
Cd 9.7738387191832 10.678192015119635 8.71311028804887
Cd 9.953768245474008 16.136756027347417 10.605099339711803
Cd 13.325180171522168 13.705040745909185 10.06248624728786
Cd 10.154715655066347 7.670894488187096 9.134076904005465
Cd 6.77428386374754 8.141041746726701 13.249673913604612
Cd 14.94521889454339 11.270033983022364 9.94867092615713
Cd 6.710717982215563 11.21544245782851 12.568885648582748
Cd 13.937971980450238 11.076556131719485 15.593108208234094
Cd 8.055083782072966 14.867223946423193 8.654713779285904
Cd 13.752298103928268 8.800660762998863 13.594491721542813
Cd 13.128070747555743 6.872759758142921 9.100759940418314
Cd 9.99332563035392 10.04661887636238 12.231040602908203
Cd 8.136047834063008 10.131877948073647 15.031406407097165
Cd 10.908490453667804 13.005236096635162 5.658883798120867
Cd 8.02545603573005 14.028390007267172 11.950183550054104
