35
Energy = -11.09335433 eV
Cd 14.545137038655238 9.815022984662356 15.395099210918874
Cd 11.671169342507861 18.23977249954308 15.784104381183132
Cd 8.575987309263628 14.058744617544003 18.21625526417317
Cd 17.53324403248437 14.49940046402876 8.988672627714996
Cd 17.570347913112514 9.902711363188233 15.513750493242862
Cd 12.93264955109112 12.408514138515816 14.768198141791164
Cd 17.809224897248697 16.524136854227716 11.229521639350095
Cd 17.131918933085156 19.712244079348913 13.75686080659154
Cd 14.75187301537617 13.78434841820683 16.952049671451373
Cd 18.472021024974232 15.371341363571725 14.439049594726937
Cd 15.462491206212636 10.879856370963573 18.121355289271236
Cd 20.62104238369188 14.33009403851162 12.575816746985494
Cd 15.874255539607615 16.40592787068504 15.524644939728221
Cd 18.052334656416242 12.974287749034268 11.6174835555006
Cd 13.55162079835843 16.44477343787338 17.883111559373287
Cd 18.603428921601818 18.222355610473514 16.182233239482784
Cd 6.412448767784173 17.86858921524363 14.036832935999865
Cd 11.868158021864401 14.015162961107828 18.29594432181454
Cd 12.655842131431543 14.078458247465925 12.308815943309739
Cd 18.561259596107696 15.588081708873174 17.606062639361422
Cd 14.453100560421078 19.252468851218342 14.893982328798819
Cd 16.144587752377113 7.878119023410465 17.450184915613566
Cd 19.548937175204983 17.881698699933814 13.134875137449203
Cd 17.641771350175784 12.869531676284884 16.89690826133377
Cd 19.02987096232018 12.163207640517951 14.284696259276224
Cd 15.448808643141618 14.498531103408176 11.380129395649286
Cd 12.976524567290348 15.698346039962335 14.788260182123139
Cd 15.012291462472767 17.283373848841 12.675825414455968
Cd 13.834036111153278 19.42446532277077 17.828711899634285
Cd 10.451265733299884 11.901555173175542 16.68418278943816
Cd 3.6259154255598918 19.730020459380018 12.627535685225066
Cd 19.986529986130087 20.524667236331176 14.74077322857407
Cd 15.966031554648659 13.33943374149201 14.156306087954885
Cd 11.547308405468769 9.303311315156659 15.641364865981181
Cd 16.380654040649247 17.831534686236566 18.324489357711222
