33
Energy = -12.19829799 eV
Cd 16.460626999628584 13.18848343018997 9.607478104642293
Cd 11.089684552397719 13.689987348201958 9.659026816496166
Cd 13.912355995064908 14.639391969828425 10.014761202450845
Cd 14.181368393270622 17.22214228079864 11.313045972217207
Cd 18.528648923199246 14.465463799484741 11.299995493061113
Cd 9.404928670875968 15.669456237328008 11.029591314918834
Cd 12.52016481537598 11.440930815146052 10.967878242588373
Cd 15.3725428287936 10.784683423857354 10.983597208677784
Cd 16.893641599449506 16.6888680775529 12.288632807432288
Cd 11.28023967801732 17.795646195680543 11.664424563349042
Cd 12.689265486748766 14.178650169105184 12.800173040560198
Cd 18.109571706656258 9.53023423303381 11.47648613746784
Cd 19.106353166661023 12.047863761281487 12.801448970165966
Cd 9.767856470826871 13.708758028640977 13.205447545777714
Cd 11.945887773050632 11.312737337369162 13.868597194127632
Cd 15.651502045404932 13.66480265279521 12.793058566180909
Cd 17.621205484115386 13.308159127794534 15.154817326150338
Cd 10.567520626821727 15.108027648523947 15.842348292979084
Cd 16.073119225739152 16.237443337212518 15.03239639591585
Cd 9.566585739931936 12.111827763362145 15.679445269050477
Cd 14.253700402838245 11.241222431323548 15.653653134326637
Cd 18.80931100760396 15.88910576041693 16.660529049374478
Cd 12.691295102060577 16.871112570313468 14.135961753001073
Cd 13.736795314374708 14.265519708425302 15.554153705778132
Cd 16.454767526467144 10.760226039371615 13.85319533175197
Cd 14.335442377081037 18.61448310535791 15.850202600232436
Cd 11.937432166787607 12.276290726988815 17.386793186779048
Cd 11.314246737029293 18.01154314255832 16.699358163119044
Cd 16.109004114904547 14.032904576888312 17.60909395658609
Cd 15.120756634116269 16.82909482043098 18.116887936561156
Cd 12.450076758413859 15.473072833818522 18.17259706204773
Cd 14.869783561943812 11.49133512646309 18.565321385727565
Cd 12.987879522127509 13.264092928235423 20.073163678283557
