39
Energy = -15.82142315 eV
Cd 11.939085814116964 12.352581700186034 10.216195414648768
Cd 14.771249791554174 12.55251880529203 9.53897823893519
Cd 15.516082962119308 16.41356750181267 10.130803626664454
Cd 17.499357942897635 14.476789022403388 9.192532219527271
Cd 12.817950833026332 15.260846701224349 10.474788481205696
Cd 17.795672040360763 11.627836866209513 9.585794494642565
Cd 15.814674791981059 9.803217430768969 10.87775225281693
Cd 18.604162288891075 16.744815176864986 10.79444892299651
Cd 15.762178913991978 13.771551576528678 12.074080370480042
Cd 9.966247113885311 14.342517130441369 11.224465743710422
Cd 13.89517646973932 17.334692919549898 12.60339510190593
Cd 18.019461508652103 11.079343708656685 12.543361788364802
Cd 16.74262232019326 16.80745664580079 13.11957042936751
Cd 18.823248468058377 13.990046969172534 12.112523795679271
Cd 11.10455619064817 16.486077570573727 12.962128969955177
Cd 13.046843485181114 13.946767943217314 13.251869797008084
Cd 13.448059043719285 10.765497891284943 12.2561590136387
Cd 10.694457144969034 11.962987329848424 13.084856022055911
Cd 9.105471216790692 14.447310751679522 14.093179914783876
Cd 12.882629879794784 15.947481921157474 15.528224774560877
Cd 18.748271765969466 15.242642475358458 14.815073140510934
Cd 11.518046483699285 10.915218559929182 18.050278656386567
Cd 15.53026417288291 14.594682953257262 14.873986275300222
Cd 11.283413306594989 13.343527811064614 15.810465496111638
Cd 10.026205370286657 17.849512277922997 15.39512419540344
Cd 18.456643466274137 12.122266143565993 15.193864470274786
Cd 14.943529893613128 18.3398188358496 15.192840080030486
Cd 15.567189475174796 11.553951126700577 14.380667902697706
Cd 12.77802176076141 10.81107777545475 15.189955797937694
Cd 17.12299060500921 17.084831929414296 16.661837536641652
Cd 17.410028806251777 13.961495428601545 17.19617631110543
Cd 12.420058238734141 18.983579192434405 16.773978793427084
Cd 9.381552832042079 15.507312181353168 17.056351663791865
Cd 14.238275606364443 12.822437712980031 17.028989510408135
Cd 12.039556352298632 16.46970900974624 18.52979729360837
Cd 10.895703838582792 13.771640086646089 18.98151682326261
Cd 16.044467637525887 13.114504875393642 19.631578976867637
Cd 14.905269586587744 15.750800061333946 18.2297446806473
Cd 13.25202093039371 12.45778434993663 20.153361372257056
