39
Energy = -15.99719746 eV
Cd 15.946049781378894 14.774012646955763 10.81928804240802
Cd 13.809475276279102 13.00586449383356 9.625529595374676
Cd 11.38717829391655 16.86779063359653 11.203397659078504
Cd 14.357571924638085 17.10468883121849 11.629520612084539
Cd 17.05001126368913 12.154639945260278 10.251302885050151
Cd 11.179328948291502 14.408235592915263 9.479997916498323
Cd 18.618459306349642 9.720305147514093 9.215378672241576
Cd 14.842066784763741 11.025868552755398 11.846444099773548
Cd 15.537492900785479 18.80938582613318 13.826176100012272
Cd 10.116178184536112 13.041082896687765 11.897944583144124
Cd 12.772356215248335 19.483330309238383 12.424483393622195
Cd 18.215256632574306 13.252691540203873 12.9187389354576
Cd 17.67726996633615 9.623983048873113 12.187497227234962
Cd 10.695562472395627 15.36827876559143 13.910582648571175
Cd 12.361697400198038 11.45406717611283 13.308992132755286
Cd 19.51145513527778 10.865718516181998 14.315796677205565
Cd 13.201433304780505 14.322736554694725 12.423042852192742
Cd 15.4344232567465 13.241236384566145 13.998745402743905
Cd 13.566410884604108 16.505898795928786 14.563599455465024
Cd 14.875148782359275 10.32999497757244 14.916420672720472
Cd 17.423194845423808 8.876014425804911 15.140856950861021
Cd 17.43753007182524 17.29300992993524 16.018008312276365
Cd 9.772076969939238 12.312427426183692 14.779858429934418
Cd 12.319825262906901 10.780667370471141 16.28392678324773
Cd 10.368643119402945 18.386630021846823 13.730478411587795
Cd 15.71940869699178 19.601124696385604 16.6971671450839
Cd 17.475397287786162 12.259557926684444 16.1401875036372
Cd 12.830421393004276 13.724198691977781 15.547060142881012
Cd 10.17429641650602 14.48547146503867 16.968293608789804
Cd 19.069219962242908 14.721403372760355 15.543284655438125
Cd 16.740433922774812 16.000207902945174 13.419770832096654
Cd 9.915577254163615 11.672502942060577 17.7295616563561
Cd 14.878039116260938 12.238369285278118 17.503759833038536
Cd 13.978155391841527 17.44858806225052 17.599491878757675
Cd 12.842000956122634 19.467168404023738 15.422855996620223
Cd 12.78981886437682 14.947443871932412 18.478744858899958
Cd 15.469670242508535 15.06602815661936 16.48501163014428
Cd 11.097693633671707 17.187670480122673 16.440731637679917
Cd 12.475935412776456 12.103870467519288 19.24023570470824
