32
Energy = -10.79836312 eV
Cd 10.192448910764483 10.402881296649666 10.214047084919061
Cd 7.673740573331257 10.502738681863677 14.634033897889223
Cd 14.930356912884735 6.392742206843177 13.406599736243363
Cd 7.858347525441658 12.999463250155774 12.740444277986484
Cd 14.656704174587617 15.793113683935927 8.258790106630729
Cd 7.577114115600138 12.227703178539134 9.711971832774148
Cd 10.073242034426675 13.669175459004338 10.692583097135449
Cd 15.637300219918323 13.924157194485995 16.180214587634776
Cd 15.687279526089393 10.952425213543 15.412008107880819
Cd 16.552458338795525 8.968835289533201 13.4108331500171
Cd 10.22159295722127 10.717294853360764 13.144788498877086
Cd 14.918929656276237 8.089485951586726 10.78099579010615
Cd 12.94970386401609 12.29361629777448 15.518125875851501
Cd 12.009777047680581 6.393116665545158 13.89371674696511
Cd 10.50503723212167 9.818620837829858 7.19099560472534
Cd 13.187892470239053 15.387520003338148 14.807632676544094
Cd 11.719515411433152 15.59460740285657 8.996662543648384
Cd 15.20387438550808 13.586892168693696 13.174896007677223
Cd 11.74842008651666 15.639408708733917 12.227887429908726
Cd 7.6207914282629305 10.971939858394055 6.9079952433524365
Cd 9.757531582276718 17.303374134418 10.697610637711158
Cd 12.245681483979133 8.851978496310695 11.95711500918145
Cd 14.367722413319488 13.15891790552925 9.759841427522762
Cd 7.324288669474632 15.808619300350735 11.679159423058753
Cd 14.601937967906643 15.927638566585312 11.289471635074733
Cd 12.631219211692603 12.225439117948076 12.099641169578113
Cd 11.778788656008969 12.437778483295773 8.360339649941976
Cd 9.75011602245826 8.048013559745145 14.863201628225173
Cd 13.151118540489685 9.783814718507408 9.024062178352764
Cd 10.718522868764017 10.517630768326999 16.320509024848768
Cd 15.428306843120334 10.974211790480247 11.476210490664906
Cd 10.401902226700404 13.718508313142525 14.249278786379005
