34
Energy = -11.51410914 eV
Cd 18.35567460275701 13.727529690934137 7.8742283337972285
Cd 16.49828131844607 15.750440036156997 9.138920209444612
Cd 15.668359015626365 18.76977603441079 9.09400752527225
Cd 14.12704451555094 13.997479577604748 9.629157301089833
Cd 12.054103659416633 15.940338779291885 10.576296220362606
Cd 16.628291371661536 11.797678195267506 9.57226646066151
Cd 13.738965601534803 11.068544304107872 8.623902370110153
Cd 17.187895775056067 14.185545262682599 11.928894654395505
Cd 17.119968517634756 17.251106608835 11.711073858036606
Cd 14.106014617465524 17.903872489877006 11.590837816537354
Cd 13.982950126238428 14.442090579274788 12.69208570759138
Cd 17.906206632140023 11.268518254046167 12.24292542846017
Cd 14.035979740203315 11.496739573802744 11.568008439488521
Cd 11.194574105286934 15.422825004849036 13.436496898380673
Cd 9.121608535963137 12.9309950641944 13.1922540326904
Cd 15.698682177078584 16.39840905030052 14.257777687103767
Cd 14.025942630014914 19.030276140870882 14.385404287276199
Cd 11.9693988065466 12.021861627598348 13.563020042360778
Cd 9.543342385900676 17.86997195183844 14.66490169897487
Cd 15.66653768398592 12.080574600047258 14.051604028858957
Cd 8.798989477392327 14.997227730121372 15.452910998685175
Cd 12.276057000439792 17.104390379713713 15.739855380037875
Cd 16.50493167241577 14.16964017199779 16.141920460992807
Cd 13.335976105947916 14.139885300032441 15.889412279598146
Cd 11.815157298523893 11.314829566359508 16.43762671383024
Cd 14.862827229666824 10.59517703588759 16.427405239884745
Cd 10.33822704472594 13.731682967164742 17.605119128712005
Cd 17.437114560878765 11.950110990520063 18.16451342875537
Cd 17.92109063238274 14.914376978926995 18.861189020280847
Cd 12.302603185013329 15.864611817618611 18.42070818289149
Cd 14.913049537771547 14.600895417270644 18.85325108733547
Cd 10.76351824918151 11.258471090064615 19.328511012202572
Cd 13.736708225937386 11.82981395180617 19.093020431565446
Cd 15.727394236658249 9.537780051970417 19.153959909778653
