30
Energy = -11.04743424 eV
Cd 15.420418748473598 13.938588348275994 9.91689925771012
Cd 9.535735075586 12.70779986162899 10.442955054503967
Cd 12.610361068928503 12.847198026296518 10.493576310398625
Cd 10.235040949630658 15.659503296170687 10.523262392909167
Cd 13.237591595546203 10.176766886507448 11.608015757968316
Cd 16.06940615900961 11.133748879405985 11.405279104527912
Cd 17.95525045739625 13.399243446332017 11.306396150158436
Cd 10.194686360337181 9.8951196227937 11.522146652686382
Cd 13.2022235794135 15.694718201226959 11.202484039874234
Cd 16.430317871188016 16.041564499370452 11.942981471093304
Cd 7.216387742985565 11.023632149892642 11.796146771019531
Cd 8.897311029744207 14.523883663012885 12.885990216555266
Cd 19.055017814250185 14.982932228382033 13.675963369662522
Cd 11.81356105198751 13.152672695660826 13.35048910949217
Cd 22.118271494495392 15.225339315214834 13.33555564933867
Cd 11.265656948415856 16.613392578675494 13.309138060842717
Cd 14.30085064319128 17.39714178575972 13.462984486253614
Cd 14.664145479166855 13.502757450946637 13.188771104848286
Cd 17.50319379604886 12.310604011511659 14.145271542717762
Cd 14.939910416949381 10.513267647905431 14.179460422803622
Cd 16.37576839340573 15.375461761542962 14.930880118019141
Cd 9.061604348184245 11.763037269582185 14.04321525722571
Cd 9.708921142945515 14.968936309201363 15.679004436657257
Cd 11.674190417753092 10.122457667182378 14.322658914864093
Cd 13.059233722884347 15.244154079687231 15.271148081091093
Cd 13.199038386383046 12.127096229056066 16.00508342258017
Cd 16.15043036042435 11.940756826663826 16.7528213847742
Cd 11.606391358328198 14.103647269083108 17.763505269040692
Cd 10.176343798961993 11.713849809875798 16.763622426374685
Cd 15.033686078808058 14.611674473977612 17.485240054832417
