39
Energy = -16.08230577 eV
Cd 14.521012224005222 16.180228535983083 11.15809665563025
Cd 18.10675889261207 12.734744224485215 10.957608157827844
Cd 15.704676055796032 13.744347372872506 9.647222480026567
Cd 17.914843178980096 15.723721755624306 10.188971600865843
Cd 16.971080058906 17.811705772774726 12.03624563282787
Cd 11.542058858060475 16.307509162041686 10.743406327430286
Cd 10.16154546648069 13.715782202306324 11.297502758493524
Cd 12.858108726742257 13.64343572156743 9.951192519256267
Cd 12.713534234274384 18.37972280050756 12.43889287772165
Cd 15.183839214822575 19.704160548434455 13.38066335588211
Cd 16.071524662655825 15.075936505205547 13.490947961837144
Cd 12.06173864127297 11.284610262015008 11.6760619773511
Cd 19.063943506829688 15.767431987653062 13.063113160775078
Cd 15.144791368624373 12.481753944824053 12.335919128535254
Cd 12.878589933661498 14.573461462975665 13.316056790703357
Cd 9.478732203761613 16.023632505868044 12.98177474139092
Cd 14.013409262516445 16.93019021128093 14.937109085394772
Cd 13.216549878344193 11.574566645807725 14.457060876374303
Cd 10.978154268280804 17.774868848611217 14.815850214811979
Cd 10.097808532426004 12.329727002750555 13.858034284301135
Cd 13.584540377596339 14.163028728946204 16.22057315754226
Cd 10.644878491625654 14.83763235918732 15.539259045074216
Cd 19.92483164256543 13.653526259693658 16.103123749456987
Cd 15.98970281701827 12.44293993703875 15.37296691489679
Cd 18.479920598430542 12.788090584074903 13.779753903145304
Cd 16.411427774216126 15.343772317257827 16.41827802430154
Cd 16.931650335678096 18.25442869196765 15.270757962618399
Cd 13.491687193565326 10.251049904975927 17.168494576658127
Cd 11.014080412588516 11.988527730995148 16.60275313040763
Cd 14.416998689137195 17.796819939404973 17.851774195454418
Cd 12.444510808727312 12.346398753988696 19.145489700197547
Cd 19.30662189489739 16.67878160704642 15.869722473120406
Cd 16.413219064622705 10.341607797520657 17.49232199133068
Cd 11.456102039262749 17.00194866238822 17.632854388387287
Cd 13.228300212387554 15.196399316706037 19.091113473971447
Cd 16.18341580230637 15.94243904777678 19.437351494402513
Cd 18.845129868481227 15.289882244441317 18.492543434993138
Cd 18.450158816294348 12.278296186709586 18.377623254624147
Cd 15.440522120626802 12.983290585371675 18.741912671061407
