35
Energy = -12.82296625 eV
Cd 15.284234861411273 9.226045787507422 12.283928496610251
Cd 15.462848041018946 16.498320709092354 11.527712647325215
Cd 18.09196002518815 12.635548102537745 14.197681091425947
Cd 11.64820608931918 12.561968123051791 11.440478805319781
Cd 11.035610545284747 13.43697859457031 8.513166144099124
Cd 12.646304955118328 10.730603853808327 8.812165132426234
Cd 8.250036243940713 9.568826861862936 10.910387729303414
Cd 12.758923535047392 17.55622412934621 12.00177095222398
Cd 15.798909595801746 14.763292816211962 14.23641278163256
Cd 14.484289814260649 9.913820074106715 17.302691680645516
Cd 17.061073509500112 13.991788148983044 11.510057441485847
Cd 10.071700878855138 15.652751224668867 10.435312242125011
Cd 12.398659672230236 9.620628657265762 11.637343684980813
Cd 10.642066393153282 8.211202342012161 9.70000550109398
Cd 6.886980981840183 14.792747163023654 11.755028355900418
Cd 13.045600107928681 14.709831925087746 12.989364512727263
Cd 9.54482417193385 10.87979424011793 8.530314149656864
Cd 13.02611417880269 15.209953443623164 9.894113237430675
Cd 14.181006024023718 11.998842181717606 13.608295563164395
Cd 6.008410089081351 7.644486788067468 11.673220398532587
Cd 14.416299148655613 7.823500221584854 14.834467419620589
Cd 15.649502915597546 14.315047175190383 8.798764921837087
Cd 12.065970522323452 10.081639631449072 14.703506817343053
Cd 7.121855432376017 17.647083378319014 12.356606632127908
Cd 11.108110588855807 13.08754410935863 14.706897901063865
Cd 14.710241871177475 12.088466808820158 10.627355688016667
Cd 16.444786509622986 10.20146618847724 14.963073345712692
Cd 17.640570084614247 10.949078647214616 11.673692163431744
Cd 12.598320415486278 12.237111522188387 17.05316991562773
Cd 8.607465582583782 12.663803921962952 10.835700916027603
Cd 15.591304920992965 12.70655902114105 16.464698065885724
Cd 10.012221176307547 18.235088461458982 12.450920349072101
Cd 9.667740795129331 15.218864814846482 13.379373222864835
Cd 12.0814775254587 8.062243199497278 16.881608699569448
Cd 9.722994273716964 10.845469208466822 13.07733487032851
