32
Energy = -11.67090859 eV
Cd 11.992254316278077 10.032009018613918 13.0941130811328
Cd 13.648296948021452 9.706236112572977 10.495227723328735
Cd 16.76502316210971 12.868395235120753 10.96272785331971
Cd 18.11164976695014 15.062573338199615 12.673443408717265
Cd 12.172419918571466 15.850226937041619 8.779627329241144
Cd 10.790235389105543 8.82517796211947 10.478746430254182
Cd 16.386768802823983 15.562670794743465 15.153972279939904
Cd 10.792090549237603 9.239905451020531 17.18851291561244
Cd 12.884438076878824 15.341793372158982 14.628093463467348
Cd 14.848398673013248 14.89206969536136 12.448663463432561
Cd 9.037774605558432 10.716213854204128 11.970775639287588
Cd 9.520099391967884 10.530572891750145 14.881516519798723
Cd 11.846061986683432 15.440560636483161 11.786152485404727
Cd 9.467116832514773 16.336821627705287 10.164467868385666
Cd 14.580055112687342 11.883818594521431 12.85204752740764
Cd 12.87593785429575 8.249488737594346 15.375874337349861
Cd 14.915120028097522 8.34491305459338 13.150887743406576
Cd 9.836606299544279 14.088939630541581 7.8696632112147755
Cd 8.041238086446953 12.885253132181978 15.909805897505391
Cd 10.449670831503669 14.63504423065556 16.27338754276793
Cd 12.370410714952506 12.48505018542133 10.81657217700201
Cd 10.219658846848024 11.218017872981996 8.793524133298396
Cd 14.612096102483285 14.362046293582546 9.500153930635662
Cd 7.375943260965291 16.066167033154066 15.806950896786637
Cd 11.01831443417262 12.937206005846944 13.491336327245333
Cd 15.096951134020848 10.263897844326324 15.535463228613372
Cd 12.112119936678194 11.904628945502246 16.5265724590042
Cd 12.649855466767951 12.725238327587151 7.728791382800672
Cd 14.712072459572951 13.160527546749485 15.625842691696358
Cd 16.639787658760028 9.816088677229892 11.206262432738521
Cd 9.29734741830768 13.44126789241866 10.901074180210905
Cd 15.32950239877206 11.418295996798344 8.574060907881174
