37
Energy = -10.06918305 eV
Cd 1.6874417850668209 2.8127909875374706 21.396368489050857
Cd 0.7667532938991842 1.2210729352044751 18.651161604164578
Cd 19.21525671158461 -0.05432777720742872 17.93649364327918
Cd 20.20414881932267 12.340365046978409 1.6765825595183774
Cd 21.41815412880544 1.823976657819897 17.429144260147265
Cd 2.7122669359310003 3.9320997946072187 18.63884147493549
Cd 15.914249034989597 2.2420433386636263 15.679205766691029
Cd 19.270085898868153 9.952700242051137 -0.11769313646070989
Cd 15.58395637226556 20.962647364718492 21.042679632001747
Cd 5.580379767142522 3.548890025380883 0.7210378104192131
Cd 17.937262449534405 20.97488759306208 19.104699217288168
Cd 20.954909509037982 17.758348880853994 2.815143108629305
Cd 22.260269981126605 14.410693612603497 2.4869032529327777
Cd 4.74023348565701 4.078836348844173 21.10088481233587
Cd 16.163561499562896 -0.42777857588519014 17.077935913953574
Cd 20.581235015708284 23.099971471731557 15.083314741012963
Cd 18.147154199736576 17.492291259636428 1.623940183692843
Cd 17.02115189269836 18.51885828792659 22.4581647572748
Cd 19.698956193740354 12.789123281323837 21.94736951907545
Cd 3.772784251306553 1.1579927518049242 19.727864288783756
Cd 0.45428152935673993 16.846331394105192 3.4461817416486316
Cd 0.4662621930478958 0.8132628605791927 15.579226734379606
Cd 6.190025685124943 1.3390248130698355 21.966475502240954
Cd 19.01069744198906 15.548951955863757 20.90831251326286
Cd 7.8042764984633894 4.038554170033034 -1.4885795314361965
Cd 17.266991446997743 18.41748869026957 16.76496624782614
Cd 18.970630314995134 2.221876182618899 15.54096085422405
Cd 19.117698934976875 14.879675513682725 3.061301236687255
Cd 18.224666799104085 21.15037022638437 15.85059694489497
Cd 14.890060519085848 18.98700296888886 18.485280158458963
Cd -0.4494785904119937 22.37038867037836 13.32401874599988
Cd 13.895350134573649 21.874262111795346 18.694538112336183
Cd 0.2394928441101371 3.6998382401197065 16.680544755536207
Cd 18.339056991108095 18.056391540021412 19.511711604746704
Cd 13.975985334115702 18.387105867753096 21.53033294582896
Cd 20.176771898475224 15.54083988692092 0.275375793551381
Cd 16.020739645676155 16.25785506113675 20.57626263354004
