30
Energy = -11.33860805 eV
Cd 7.48008686819882 10.910034053993357 5.617782557815569
Cd 10.037464907618096 12.453370187267806 6.334828631447221
Cd 12.518674442428685 10.152164108733512 8.152210894367768
Cd 12.484489281878325 13.4183168585813 7.854078394860017
Cd 14.855017915610064 12.123552669397238 9.076910384078957
Cd 9.596282797951776 9.546024214643467 7.411443609483077
Cd 7.5499302618122535 11.504399608820965 8.55375191435551
Cd 11.028316667597272 7.526486535706282 9.039160311137705
Cd 9.974499285262347 15.150379869210306 7.686165204949151
Cd 10.422282776390528 11.946717967227876 9.694679825312479
Cd 13.833761945324628 6.645491079055018 9.177902155186185
Cd 8.41949868460472 8.685324572240807 10.08923677430986
Cd 15.199405702822242 9.23266863413827 9.472026703856997
Cd 7.841718758427927 14.195495078966967 9.702663661897004
Cd 11.434591506472536 9.670698816953335 11.237665758449927
Cd 10.67606093400523 15.025398757349706 10.668230149114713
Cd 12.018937642477017 6.559120194265742 11.819558552030752
Cd 6.588786645719941 8.460337192714675 12.426373237975376
Cd 9.64623021504495 8.050161846130912 13.054439444723837
Cd 13.10230436996988 13.478650483715962 11.04305875851267
Cd 7.788335045070417 11.318719973390825 11.552074258019896
Cd 14.120505957099835 10.842443180772637 12.074980636704389
Cd 14.823540658119718 7.882549649606232 12.097416880490751
Cd 8.564320921092584 14.333076568372315 12.633228024259086
Cd 10.939517132949206 12.300268019262342 12.871317120180509
Cd 12.781226813905777 8.55295633042756 14.107901711759421
Cd 7.516015014154463 9.355461825798866 15.04411723696867
Cd 13.173857520652465 11.49099070447771 14.84023578324972
Cd 8.205897005491988 12.141993066428764 14.516878433234579
Cd 10.472700313469106 10.1410059439724 15.243940982890498
