37
Energy = -15.10181889 eV
Cd 8.068551763791177 11.39140642109749 8.960638155481268
Cd 7.218327518510112 11.370475079228799 14.21546041317655
Cd 7.657666304830041 9.49402919464591 11.215291570930587
Cd 7.025139635515062 12.625147846212968 11.417046348707235
Cd 9.018599918431818 13.005450964206014 16.367046668948475
Cd 10.73490640185045 11.578618552690797 7.661049327979785
Cd 9.638207496881959 9.96737099536859 15.431168029701935
Cd 11.635593060530109 14.194988679581064 17.264048879587804
Cd 13.776012865591706 11.907572208094514 7.586789980864839
Cd 7.963436772865689 14.186534933897732 13.855161072747697
Cd 9.158218789316148 14.166491456449391 8.505979189959518
Cd 10.20586430789448 10.971096124648577 12.425366941818558
Cd 11.129332801103272 13.466627825540469 14.047078038482397
Cd 10.316539182183543 9.295127891975065 9.790438675263124
Cd 11.209362061363578 11.199781908767498 17.58071715559146
Cd 9.829872697533743 13.979351631912907 11.336992012749107
Cd 12.101460870887568 12.187792029533453 10.340459819838182
Cd 11.839351929759964 14.470968916090925 7.288297292224199
Cd 13.588222107071724 14.893816349854855 15.170990530790828
Cd 12.451320945252656 10.705631895629969 14.536550142180856
Cd 12.562347756337154 15.12600702984339 11.856454559032711
Cd 14.787477298201848 17.06908943152917 11.12872602931888
Cd 12.534824051641165 7.22097282243247 9.982261521104398
Cd 13.098162408565198 9.702310222560422 11.755599612453718
Cd 13.93397302938987 12.645140277715296 12.664205061114044
Cd 12.510233987516123 9.16610039314709 7.667377189878766
Cd 15.856206124501258 15.455897339185547 13.462474370392533
Cd 13.965452746377284 12.076357766033977 16.853118433064314
Cd 16.225942832549087 13.165827074826057 15.397930338637048
Cd 16.447815269298697 9.5280059848926 11.879748297363635
Cd 15.432947286825073 10.334597203571303 14.562239489465439
Cd 16.97370877470974 12.403016717551811 12.604910842563752
Cd 14.064505013899117 14.719746735669029 9.13873244769327
Cd 16.636633587872492 14.711676018847909 10.685943840812392
Cd 15.608032206345028 11.995481034299996 9.946379550374225
Cd 14.958256452299592 9.113887036374834 9.361529797830237
Cd 7.693587217685074 8.363699481271762 13.91189184705648
