37
Energy = -15.50814426 eV
Cd 13.088867754371792 7.689978516124448 13.11768383288856
Cd 11.007669908974895 9.870608492597672 5.191750395570891
Cd 9.196569682006738 11.765949140753698 10.930786612468252
Cd 7.219836994912857 13.293658681991534 13.145143820854885
Cd 16.236141648787342 12.05359330964304 11.003500650337296
Cd 8.6060459994246 8.45454610109071 7.466338870224729
Cd 9.374854763244583 15.12152250466122 10.619970437029087
Cd 14.902453290887298 10.56653316601782 8.88206271021665
Cd 10.492024717194525 9.847674195730718 16.477484942831484
Cd 13.227335780737624 8.659214438486007 7.314694073814529
Cd 10.87011992813632 13.3159069810765 8.623668714738091
Cd 12.324374376527171 15.15268927435975 10.94987564222841
Cd 12.713064839696125 11.636020779231778 6.79125671438217
Cd 10.47604052739394 13.638792816211414 12.968406881239478
Cd 10.94421108600103 9.91123349524368 12.526714298908788
Cd 6.88610055743789 10.246348883450704 12.552259469621267
Cd 12.272769348730032 11.942880745831825 14.557709506743546
Cd 12.504532666196306 11.91640621795845 10.973140593779673
Cd 13.185974914128465 8.616653307696021 10.392822638207676
Cd 10.902946344300563 10.091764227716716 9.117483940588436
Cd 14.43343028450661 13.419229420109703 13.231543691087932
Cd 8.98635284390056 11.516789664538543 14.615182460853733
Cd 9.09300082758306 11.40101333923536 6.820193210574732
Cd 5.447075651145093 12.083045848517685 10.749804867174213
Cd 14.041088607607282 13.46690419405455 8.665617684398528
Cd 8.60233894548997 8.513131213658326 14.147247262832712
Cd 14.622442044042353 10.297003499257414 12.808069699876167
Cd 7.697222359682268 13.228831369983435 8.650290976819957
Cd 6.8859878065640965 10.248180017268265 9.001996010870563
Cd 8.742709238227096 8.550437712587575 10.740174052640757
Cd 10.926903647804663 7.030895581425182 6.353279719634346
Cd 10.93572803365804 6.7895699370827085 9.278856276776596
Cd 10.463365859802327 6.5630501427946575 12.224087947383595
Cd 6.500672042109788 14.916279245249171 10.828727710567415
Cd 13.221826907208182 9.355772169493225 15.482374599063847
Cd 15.249281312023456 14.992697774664038 10.861779264086936
Cd 10.965508213372027 7.082066500389552 15.18489295003623
