39
Energy = -15.46490433 eV
Cd 16.116513846453987 17.00724731105133 11.054476312541658
Cd 11.961779644684244 15.321527621187895 12.493881927801892
Cd 15.098747114065974 11.921436325461608 11.29610326760065
Cd 14.173006409312432 14.574648211796218 10.388391666925472
Cd 13.28878936301353 17.392642295486468 10.442098805389627
Cd 18.74228857073636 16.605336349385485 12.207208739118647
Cd 16.828222825981204 14.134406363924585 12.233963210292462
Cd 8.64432606102694 18.136462681708608 12.445507616622097
Cd 16.623482345577163 18.353230328796467 13.867882128416257
Cd 11.57411446742913 18.308404795398303 12.623402337743846
Cd 8.444783275057784 15.398860210269484 13.69736830744438
Cd 14.294949043529195 19.407228025255552 12.551733749441722
Cd 19.5154777731148 14.29376069203312 13.831517502769723
Cd 12.289242848127708 12.435518430041393 11.852857401843272
Cd 17.239890460371992 11.168646200433777 13.160080431411155
Cd 14.09919934824753 13.18568913413005 14.38038943078991
Cd 14.438392988890591 9.9245841361996 13.367270278587704
Cd 16.59958445436274 14.439715569556613 15.412519235029388
Cd 20.532457357517846 17.344943698188743 17.697785996747676
Cd 11.41064955490405 10.47894877289648 13.931752008699545
Cd 9.892498470155823 17.53314966587807 15.30592203522262
Cd 14.684438341357147 15.992159005400044 13.64724491432216
Cd 16.09326512201867 11.503750704129358 16.08637605235554
Cd 10.262338025299835 13.171805370979335 14.083854885526781
Cd 19.033040413564308 11.856355258598066 15.295223327946816
Cd 13.418951569490538 10.161267822762063 16.13116809950461
Cd 19.469806180549902 14.427365001020505 17.10596159946426
Cd 13.10182102915249 18.371997073675757 15.288843899402481
Cd 18.60986403753241 16.866076223746806 15.362515037002497
Cd 11.043668284483873 19.64698657856441 17.174989636376296
Cd 12.105955750830644 15.457729223737342 15.593290040427775
Cd 14.126969813718382 11.776850754813498 18.535733396004858
Cd 15.480875178300774 17.153503915583602 16.573318880637867
Cd 16.545391949473967 11.157718291951287 20.014586418724697
Cd 14.114327665661824 14.654269348968501 17.51476866992319
Cd 16.761294294857933 14.086235500380068 18.713168459168003
Cd 11.872730861126222 12.650646626082466 16.560909931214862
Cd 18.779139032132242 11.634821971226257 18.23310200861394
Cd 17.590999246496107 16.967347527906796 18.746105371549998
