32
Energy = -12.24131479 eV
Cd 12.578891518440898 9.115545596897798 13.969069657752314
Cd 10.107696137160087 7.685984351772486 13.267084304022447
Cd 9.743305195730274 11.107354021923868 9.2217679590645
Cd 12.498758983882096 7.901849912996665 11.068014500013579
Cd 12.017454437652358 17.533151880958073 12.344517495232681
Cd 7.78904574781575 9.507097990826624 12.841531992591836
Cd 9.024619889412167 12.182942760491201 12.380572600598562
Cd 14.269366306956972 15.702261344949092 11.012222398422082
Cd 14.742897632799774 8.921687003274124 9.00268928631958
Cd 11.192300597803799 13.592079896835596 7.764418356345066
Cd 15.254341231537367 9.819540653983552 15.078951161051178
Cd 15.139330921285449 9.209634099626804 11.985749066351802
Cd 16.236757559339257 14.691264701683972 12.879709176122171
Cd 12.738201589358015 11.036287868770943 8.403452303341112
Cd 16.216524182384315 11.639018789455433 17.36033834878711
Cd 9.42107782655574 8.421685035493274 10.431439571514431
Cd 12.853661422549086 12.286716746024403 13.744971815892146
Cd 8.958336327520296 15.314003535656036 12.67780324379901
Cd 9.998021016936184 10.632265067897583 14.850472304361622
Cd 15.086782859525304 13.583020646154141 15.429466764906211
Cd 13.056378800666344 11.24057874239937 16.644209771547217
Cd 13.0469254999171 15.281282130864543 13.924862585426933
Cd 10.016521032434719 16.863639381528028 10.360079583782472
Cd 12.362870756578383 16.41308945854612 8.618628413730793
Cd 16.34356172228034 11.776168911087069 13.028889267323574
Cd 9.200120067375494 13.979868484690266 9.933726544524447
Cd 14.317984999379942 12.152910019607312 10.903604732132534
Cd 10.41881397694681 13.98038600488469 14.786495349594087
Cd 14.094769963450117 13.977276547169462 8.506861000009074
Cd 11.594716799074497 10.74534099696618 11.53115318260593
Cd 11.876459842457223 13.886503957470662 11.355530941951084
Cd 10.43546886223489 12.451527166557064 17.323680028322777
