41
Energy = -16.40099026 eV
Cd 11.972123860086377 14.647522153033592 9.214907381703672
Cd 13.33590993525972 17.2380949093269 11.08651607255881
Cd 13.541962821306363 11.80243990036516 10.343507826085292
Cd 15.84203940658495 13.527375704938073 10.137996480483109
Cd 15.870794113416217 16.53117219581728 9.883847768653713
Cd 9.590786145388012 13.850869187798672 11.14227779351643
Cd 10.267792604295403 16.804359907393522 10.517525515142166
Cd 12.877310106752306 14.335990791918187 12.078442221337177
Cd 11.13919005205287 18.602289516468684 12.760570690710898
Cd 13.281353806762969 9.723547927243812 12.426735518803099
Cd 10.84182016364086 11.250563344647459 11.954852906907082
Cd 17.86638946432655 15.570024164165197 11.801688381577748
Cd 17.75492363229699 12.462056850033123 12.217707267053164
Cd 18.926900514116916 10.915790333962068 14.503492826882972
Cd 10.961837353923434 13.413700553459336 14.239892529145237
Cd 13.183377553242053 20.539759827455995 13.998752165706204
Cd 9.594125889517624 15.990795547788174 13.454090573449896
Cd 15.509684246273501 14.705227973679113 13.382183644090619
Cd 13.107190742589498 16.614361226582968 14.117042833801971
Cd 13.94514880970172 9.262486662204319 15.282293507987687
Cd 18.841372652493824 14.449910902099674 14.41467900574925
Cd 15.193496138334822 18.66444221812005 14.955429152722518
Cd 17.5324498173584 17.09219347403509 14.59009726695884
Cd 14.563182367132091 14.897542092112973 16.180381123049557
Cd 16.139460167078884 10.16686682972306 13.174652883225766
Cd 10.899038004763469 19.617502977441816 15.663087416962464
Cd 9.1504632463312 17.3128505869666 16.110565283526768
Cd 16.79059929214236 9.316308223173476 16.171402471115517
Cd 13.777968987315552 12.26622051432727 14.11819726036739
Cd 16.434597619415428 12.594736061422568 15.399784236557814
Cd 17.553573795848624 14.950894347930594 17.145581820770357
Cd 13.041700441989803 18.236016194486368 17.20283029532353
Cd 16.086507291408182 17.4928277604591 17.53174600718383
Cd 13.80628170907162 16.2599262783018 19.143023932509013
Cd 12.505022011179294 12.708035942780604 16.82990747355603
Cd 19.182947076807675 10.234509935656467 17.602838104577327
Cd 19.96183346038488 12.94303148661482 16.687136554508815
Cd 11.59285285915247 15.562834012727514 16.578894073418628
Cd 14.870391833071663 13.614921984952309 19.15968770149833
Cd 14.713851401386226 10.967071611370415 17.637234868076938
Cd 17.37447307336523 12.28565235458215 18.581243630309295
