49
Energy = -21.10499702 eV
Cd 15.237874211601738 14.972031682873547 9.888173029540967
Cd 16.934523104036845 17.563446400171813 10.872222910002884
Cd 17.96523932959875 15.375916854240321 8.82539981408294
Cd 13.870261143848655 17.63634227731839 10.639172797998668
Cd 19.709944042049543 16.167507047246705 11.10955519988949
Cd 12.911173691738387 15.444332371278332 12.26926021807356
Cd 17.575713754694483 19.089196375077695 13.508710091608194
Cd 14.798098510434961 13.092797306009638 12.105509173797525
Cd 15.29978629322281 16.63614701787341 13.909161676647997
Cd 20.392772059149554 18.366832766674147 12.930525417800713
Cd 20.72912279834611 15.30771113273212 13.827466968379914
Cd 17.351320351469496 14.778637484745797 12.347766547606845
Cd 12.010636145022232 20.5253633878407 11.19847662326885
Cd 14.575423436694434 10.74135620364882 13.80627554652984
Cd 12.604596166584054 13.331533532148333 14.294566890688175
Cd 15.185929629341002 19.9326530493286 11.920746929042476
Cd 16.33666422573266 13.66769646020146 14.86010160719801
Cd 21.514534224099183 17.736799892994778 15.6267218447404
Cd 18.09841052572572 16.477291733203312 15.05106161819041
Cd 21.265660965894746 15.482446361821525 17.34181421785274
Cd 13.38818817959729 11.713516977738063 16.562679588082307
Cd 12.793924931591944 18.69398693613006 13.487601301433479
Cd 12.159142400788706 16.296202631999357 15.064213889498756
Cd 19.174830195486553 13.592098318094397 15.826801023480858
Cd 15.211418684083158 20.217669687777835 14.94957677742766
Cd 15.779846102424942 17.701903625253998 16.730636469398014
Cd 19.630675481313656 20.004180661412946 15.4763867797925
Cd 12.826909149021313 19.145656917505143 16.474302722591503
Cd 20.306056476734863 13.160770767285113 18.70829966664479
Cd 17.246270676693936 20.490002912209548 17.12969796807715
Cd 17.273104787799337 15.109820784916497 17.66334868213724
Cd 14.339491830029383 14.956588525344227 16.661349362359843
Cd 16.383613750276186 10.92588858188219 16.133056491755934
Cd 12.052725839806474 16.596376572386173 18.02137913083556
Cd 19.023277695505318 17.825099413192152 17.681063078222305
Cd 15.365411261651403 12.616604725050198 18.603006309661627
Cd 18.19637008187972 11.294546663714145 18.26354204033815
Cd 15.060451746193685 16.17876500721454 19.44052434678787
Cd 13.73755046159411 18.99148664468615 19.226872454780555
Cd 12.016767950540235 13.555295316350238 18.5138593040339
Cd 16.794429605323266 18.739470266578586 19.584265847755017
Cd 19.52947811962152 15.913758938303907 19.865198278248283
Cd 14.783590628543473 13.671139207031482 21.37565245262654
Cd 17.63291293161709 13.557493276834785 20.318903166621382
Cd 12.374008266392957 15.405150127814352 20.84618165410035
Cd 12.900925937017881 18.143061510295187 21.908992751649535
Cd 15.78072452689531 18.94640846272341 22.45628453138972
Cd 17.309504304769614 16.37974477849035 21.689658405801826
Cd 14.738729831253911 16.029288868087242 23.181992845256644
