42
Energy = -16.63055449 eV
Cd 17.097202686851613 17.34143522806233 10.434426152717274
Cd 17.0020243811813 14.499748032886796 11.33520902906841
Cd 14.326781677170626 16.24145593709533 11.668357880910555
Cd 11.824053726098445 14.78061474668415 12.278218138239874
Cd 14.240028345613776 13.109601842826587 11.488038426880241
Cd 14.438566868129406 18.81372721006333 9.922853374228586
Cd 10.110894434149971 17.066419044884487 13.29754406462789
Cd 16.596925960345274 11.510064542477174 12.220152673669883
Cd 19.306250252766482 15.875224855681703 12.691968875687918
Cd 16.90252602261638 20.240566326485663 11.081819467082981
Cd 15.879828578710708 18.123218114561325 13.433661624807351
Cd 15.855683464528123 15.296610626706036 14.161400863994022
Cd 12.234139037185749 18.5372397098507 11.90233746046969
Cd 18.82948298064835 18.779373220066166 13.099188783092885
Cd 16.770120233060062 21.366758502633004 13.881478024313964
Cd 12.65504226471302 12.47769670568079 13.941822740275564
Cd 14.134186701585755 20.76947335921602 12.595794425838761
Cd 19.20415374254942 12.69910562713323 13.031775628663318
Cd 12.077496300240474 9.857019699639409 15.089048710314849
Cd 10.34703236271588 14.656900687677096 14.986557893473798
Cd 18.610074376021142 14.403127283586805 15.35755713518873
Cd 15.685975214258695 12.49298368003453 14.925983778907248
Cd 13.239328534091156 18.475499046849663 14.713188674208446
Cd 18.70300449752642 20.11137455793182 15.860017563118662
Cd 15.029107117007312 9.572594020946301 15.730279848622944
Cd 18.062039866427217 10.305468472898763 14.689445818665677
Cd 11.616108610446725 16.81542033365795 16.520643128070724
Cd 13.629611639290552 14.489591741391246 16.005511347041548
Cd 15.702568123113203 19.847685642836282 16.34815215315024
Cd 14.744882700781623 17.16457247329409 17.07255636638609
Cd 11.044982732005115 12.453108221902665 16.727828132420882
Cd 17.697141812161956 17.280688739995497 15.742702849515489
Cd 14.92495611344207 12.38034550800657 17.897076773690195
Cd 17.924699176108675 12.346626302393318 17.449010863890713
Cd 12.819507763567998 10.222067760645857 18.055687493688037
Cd 11.79007111923206 16.208459156207965 19.34660806684416
Cd 16.952734686296214 15.120155524533674 17.75736429447165
Cd 17.509924022900698 9.459656554488845 17.512746185997642
Cd 14.567045975085566 15.133247666638932 19.426687460799037
Cd 10.979632619456694 10.52494976310555 20.489244828051874
Cd 12.263270206674811 13.133940327614837 19.311736758873767
Cd 15.03040229249098 8.375672419975519 18.877805459284787
