47
Energy = -20.29103611 eV
Cd 17.48934656532958 14.316663210144604 10.006712231766285
Cd 14.59055765363721 14.118565241355112 10.187391604584061
Cd 13.555152747134876 13.78573855996712 12.955454710966457
Cd 13.483191800147228 16.603479477334776 11.347013382440744
Cd 16.43831611609365 16.981021712925813 10.717991241778178
Cd 18.84379765186332 15.758171322016654 12.199905262339048
Cd 15.174148557766902 19.344455872544955 11.797156718281785
Cd 12.257761320011534 18.827627006271662 12.866873165906108
Cd 19.746392923827244 11.837899709821794 13.48570172718475
Cd 16.948142630015344 13.383550572742775 12.868118033708056
Cd 14.892840392316725 11.33844710588899 11.698003147083856
Cd 13.76241011734806 21.62105860942143 12.99444075627584
Cd 16.751457642284638 21.184888495812736 13.905719269071488
Cd 12.216534775438312 16.09891976643943 14.206376290767988
Cd 18.44533235122677 11.538813818611972 16.21665155619616
Cd 15.728951822699715 16.06267040429619 13.564417714309263
Cd 18.04086881407863 14.576211980777904 15.436103878710426
Cd 14.620338798250945 22.012675732444503 15.83502092779649
Cd 16.65503349305107 10.517519951663148 13.987514694730692
Cd 17.45560489626691 17.48245329216647 15.884960027547926
Cd 13.510389271421863 10.658784581821443 14.223583276528466
Cd 17.931660275017833 18.627943590706796 13.028193079613246
Cd 14.764718335912084 18.63958217657473 14.734865047080524
Cd 14.529527075237088 16.165640908385065 16.286713304141685
Cd 10.703726540594236 15.341138121778801 16.88433468438748
Cd 20.18979618779786 17.06764967493934 14.401621035969827
Cd 11.942654300373253 20.778499662195305 15.18329068272625
Cd 11.782343552379787 13.08169395100197 15.238893028531974
Cd 15.925250732818007 17.90828431647332 18.531006099704097
Cd 15.183257961417677 13.335700950976992 15.470102497489682
Cd 15.635773484647107 10.705892591141941 16.845814190108733
Cd 16.885766786154353 20.3863775937538 16.917729207922925
Cd 11.394472348054633 18.107355794467242 16.285194898869
Cd 13.028378031355357 13.84874446422502 17.875901454619754
Cd 16.15936638108413 14.38242967074827 18.021398015605207
Cd 13.77234375845525 19.58533387940672 17.469831507122887
Cd 12.928910488212411 16.864962084303585 18.79936042434614
Cd 19.621024678400836 13.679878742962355 17.90203145509262
Cd 21.00430197707763 16.172776836507314 16.993051884175834
Cd 12.65822743713171 10.803759843809212 17.07198198418312
Cd 18.560725458102652 16.526660962970325 18.664966451751017
Cd 17.451395720141473 11.748921703206285 19.145583327925298
Cd 13.544491662711508 14.60983939651915 20.742937407598987
Cd 16.168149225492062 16.02173034215264 20.77010349561023
Cd 15.998992328340911 13.019119443513052 21.490358486260728
Cd 14.293990981570607 11.649045536784147 19.482667357421363
Cd 18.644287037228416 14.201524421946297 20.687062459687315
