44
Energy = -19.33678774 eV
Cd 15.000425149270598 13.106948613556675 14.153974284268388
Cd 13.382090789100419 8.597850046981607 13.851826477583847
Cd 12.392494747878304 15.901667887225106 7.5405435586010325
Cd 13.132809760965399 11.43689853919176 12.335615699621192
Cd 8.44171030252268 8.089843560637268 11.11659205205062
Cd 10.671503112261592 13.249271488651333 12.749854117945068
Cd 10.827692527403308 10.197225855765618 7.085381655819919
Cd 12.258803537158443 13.778613248549092 15.413262309326488
Cd 14.50953873171861 13.79524534337815 7.975396658181278
Cd 10.11350732481888 10.918010323373673 10.871683873871621
Cd 9.276115064709433 14.187611292081305 15.671095695829758
Cd 16.772890056061566 11.590063302076128 11.991121246091089
Cd 13.47974378198714 11.01920945691603 15.776068029792892
Cd 8.147149408822528 9.413748229702618 8.427174693778815
Cd 15.480967633921674 8.580030242809558 8.316613897075083
Cd 11.504875608247566 8.232493072431838 11.621404924051587
Cd 10.557899983736178 7.675880599972303 8.809440666041361
Cd 15.676454972863098 11.361996999193941 9.259483682190618
Cd 11.856280104155806 8.411490996248249 16.36832460743658
Cd 8.984658104468942 8.837748408051338 16.264823764735286
Cd 9.800060408034618 15.157867224517767 8.484879914847546
Cd 9.645774304281577 7.235177347526254 13.87880881173117
Cd 13.49954872910099 16.22436659056426 10.163981979011774
Cd 11.947285842067808 13.267146605238809 10.042772744952732
Cd 9.125782140395003 12.247179073128489 8.323986546041217
Cd 11.603298481713624 13.09317318161776 6.707466181827401
Cd 13.880404320692433 11.031460410061065 6.7360536834137585
Cd 15.913138305765925 10.10476948627848 14.304310801140458
Cd 10.67696715890232 10.495335173933091 13.78411782694966
Cd 13.140119659880694 15.281390691733625 12.966255094716937
Cd 10.76767427296049 11.502014376039455 16.785632828608136
Cd 8.17617720668743 15.80430164305668 13.16992514561549
Cd 13.461144941079526 6.769049179829888 9.654889188435893
Cd 7.951534240011318 11.544840280001818 15.830579874481996
Cd 8.18593996814574 13.947898185781597 10.665027233842379
Cd 7.55635977058854 12.81010546308687 13.258211756204323
Cd 10.785198896906321 16.502143723975284 14.37588470692784
Cd 12.683154242095489 10.330189615015009 9.57429393396309
Cd 12.915848616767782 8.05072950847407 6.896023368962938
Cd 14.8667465149376 13.669865076434256 11.05831729914561
Cd 15.002231802015888 9.037432743051294 11.34062006347219
Cd 10.508183579951414 16.14551162291873 11.305988936083
Cd 7.054407949165314 10.946774695147871 10.83660385914463
Cd 7.635618583524996 9.669641233540812 13.505896963933798
