49
Energy = -21.44393308 eV
Cd 16.45890697578531 11.732934101348718 11.752055445186672
Cd 16.272241411858353 17.448047282813615 10.975412499421417
Cd 13.830398657880904 15.696994605754778 10.706773651772524
Cd 13.846671534337789 13.060068882634392 12.141855749644975
Cd 16.614857562338308 14.553206314009447 10.91353811474131
Cd 13.906905634804199 17.526907371939544 13.014847769590897
Cd 11.644236461390705 11.251374315240922 13.605547761144056
Cd 15.389920277223226 20.005090205333858 13.538377829364968
Cd 11.702167207640349 15.108199121519291 12.737716584796916
Cd 17.77920178168654 10.534566962932304 14.191399203640968
Cd 17.71855751341601 19.907579694221198 11.675325078064569
Cd 18.309867106211826 16.77216561510407 13.10251642171753
Cd 18.345073914571273 13.620258785000818 13.186488408737345
Cd 14.689664552989337 10.694454420588016 13.992380659671085
Cd 10.247737937767948 13.55882213759108 14.920501456237787
Cd 15.5858220863881 15.144080949749775 13.864333138158713
Cd 18.701294226291406 10.058437777338995 17.04742977472062
Cd 9.712316830028358 16.663908406134034 14.481428171222685
Cd 16.194344636920093 21.296750961046353 16.18831987574101
Cd 11.541045190296565 18.88640667815911 14.008974233992289
Cd 13.772770919195022 13.126807256060845 15.395660750667327
Cd 20.46747361206337 19.978826659911096 12.619546735932722
Cd 20.001039231702975 12.306726798277017 15.667109715306449
Cd 20.76914946503669 17.91615689966044 14.687228635552382
Cd 17.732288117484757 15.984077159817758 16.061043786607094
Cd 15.027739741263007 21.51505339014017 18.907010009096837
Cd 15.346252569922923 17.724498013493292 15.800284980493903
Cd 20.46671772240856 15.030294750757994 14.601094562984693
Cd 13.385684619079228 20.177549626697672 15.997710228623204
Cd 12.973315602683018 15.957920080617928 15.533984752394465
Cd 16.75448508405499 13.09066128410141 15.835557585052909
Cd 18.139967639123142 19.484405477490334 14.946192537974174
Cd 11.188305488022419 18.148355627518082 16.97421243859326
Cd 11.76810258958217 13.357731767698708 17.5672817207545
Cd 9.760902356695798 15.481527234172427 17.23052955721163
Cd 16.632987751811182 18.866079497563515 18.320741403535724
Cd 15.2027967670435 15.073429320946682 17.46798402833477
Cd 15.726951714957336 9.623401873249145 16.565474360180588
Cd 16.834700632136908 11.65038906134618 18.68630552766965
Cd 20.737233639139337 15.936532335581548 17.424025583753522
Cd 19.491023137824666 18.606701407473434 17.44247970243139
Cd 12.467733093742961 16.005588134381664 18.74953192327383
Cd 13.938394761117255 11.517072752370245 18.13512666774001
Cd 18.97281311730543 13.633019287584258 18.215804657444213
Cd 13.558754972825623 18.803986279364565 18.765182004067768
Cd 15.202720899605756 16.709166136701242 20.099258158238854
Cd 16.694092718265892 14.121135871501147 20.301245087509038
Cd 18.18155360496296 16.43934471790535 19.186994630510064
Cd 13.780548779406574 13.681038557446106 20.237908288786425
