49
Energy = -21.58195421 eV
Cd 11.915354330197204 14.7795138814628 9.46596737159493
Cd 11.513054505173669 13.611156724184589 12.076486424208317
Cd 14.742106953303002 15.453867808673367 9.355982162111058
Cd 12.691397382312706 17.726941971444123 9.439062247281907
Cd 17.269290177158428 16.124152091934732 10.557858350678732
Cd 10.548469239198907 19.221838869332096 10.89075877016011
Cd 13.677396270767852 11.561549311531161 12.276739499227721
Cd 13.503842332243964 16.035382564048582 12.391037644138988
Cd 10.551137947817615 16.532632153787013 12.126906632356475
Cd 15.153628161253115 18.298290654627085 11.212517427789027
Cd 15.80213203165401 13.832739559421077 11.931705646389322
Cd 15.59480072559849 19.823695342033005 13.878754464821757
Cd 12.681965527935688 19.00198171154326 12.93629841052353
Cd 18.33739770776112 15.285555122871614 13.133133318385621
Cd 17.835604693895647 18.326422308213264 12.585899049195563
Cd 16.418217247796512 11.16640904704484 13.509455953842133
Cd 13.717918110600591 14.092262863648177 14.51433726303852
Cd 11.427555005964267 11.976104583079419 14.53593847150029
Cd 10.037929795734835 15.037935976331323 14.534216648946204
Cd 15.666712570818426 16.661155626668428 14.207406185085778
Cd 13.217855818632014 19.717981094404514 15.689896746940736
Cd 20.340587602349473 13.682037568557808 14.536180184734492
Cd 13.995004024653632 10.27631751555343 15.004774229621972
Cd 18.947262946194755 11.2226170449589 15.110590058064956
Cd 20.054103527077718 17.43436771269337 14.335239901049759
Cd 16.84313327503323 10.346678870222389 16.90399787968197
Cd 21.488757113953028 15.675633957412833 16.31898901695057
Cd 18.274210921415047 19.73625279682279 15.420432018294061
Cd 11.887832516799463 10.89275080543539 17.30010691053068
Cd 17.86874438353051 16.313635173044624 16.302152240893033
Cd 14.621185729669916 12.69836476313427 16.912760237070295
Cd 14.325201149475797 8.927299428252507 17.665049015330137
Cd 16.737833371379715 13.74652615017586 15.110804519793268
Cd 20.57917747751613 18.637987557204664 17.08798456678791
Cd 15.000446638323345 15.63131586952813 17.124896070090013
Cd 11.331494365882621 13.984429046219072 16.861760890140076
Cd 18.95375633740672 13.410553821899756 17.359615952812113
Cd 15.818640660450775 18.60876612482215 16.766903736264776
Cd 13.120560141160679 18.87989582656912 18.539648400017512
Cd 16.267049389317823 12.23834981310594 19.362035063356966
Cd 18.181372644432408 18.833997620148526 18.825734849217675
Cd 12.557485964949421 16.778272509280164 15.482809350930504
Cd 15.624753252652942 17.580031453444477 19.62376503298751
Cd 13.790201621265602 10.59298640329223 20.007873277063695
Cd 12.664862890132136 13.184581695110209 19.390956087672155
Cd 14.641947149221725 14.941485217411037 20.541862626680288
Cd 17.324984840615496 15.03423665811071 19.28448200327278
Cd 19.965922349920714 16.2106658769979 18.791669090147114
Cd 12.358091154080087 16.10076342898592 18.644938077005296
