48
Energy = -19.20504159 eV
Cd 15.755857487444596 16.459953817184086 10.413849303061221
Cd 15.472277258428479 10.9915706380643 11.903812490327471
Cd 15.845299015293504 13.568765827250477 10.483894381310716
Cd 17.85487444596847 12.879353632104513 12.548968969941187
Cd 12.946319277759505 15.626655784469092 10.985818147681073
Cd 14.11433025165348 18.19899865949413 12.162666990306903
Cd 15.284748187438275 8.5657339070989 13.474168676356062
Cd 13.053111931811234 12.696740054264785 11.478040049981965
Cd 14.859895424690842 20.81474191115388 13.317442699763225
Cd 11.235197146211087 17.280393275281856 12.785052208642275
Cd 12.10842779004385 14.599197124398236 13.792407971847979
Cd 15.984484774458767 12.07383725871518 14.773725140222853
Cd 12.357472829256118 19.741650729387164 14.365429645697661
Cd 15.14623924854271 14.656320577670263 13.493675194559385
Cd 16.973113608714797 17.11473813955575 13.054079547914508
Cd 12.9778946358828 11.461627745126274 14.135725804239373
Cd 14.45898461208744 17.10261164881763 15.069857061573991
Cd 8.937213567609014 15.225007285243283 14.985729140368308
Cd 20.582969648025134 20.86939666697249 13.442910929686692
Cd 18.98637441055546 14.955674797442128 14.236414714220109
Cd 17.678660278437512 20.277255139870185 13.4001147254017
Cd 19.960459659466327 17.857443121406902 13.910680496540762
Cd 21.92305526245445 15.559087719197258 15.191170047711033
Cd 10.06414538478026 18.00144621571008 15.373272536405683
Cd 12.728426101086166 8.386795899184227 14.979373724601984
Cd 19.472120416391245 16.329077145649144 17.029210223285734
Cd 16.620118125156353 15.005296968451464 16.242760878994265
Cd 17.32290827331626 18.3609322192345 15.774126006638927
Cd 13.892345109926543 13.71047103004341 16.397508247035365
Cd 15.994052892033645 9.294637994926529 16.249982915821413
Cd 19.98304546947527 19.899056852371405 16.216365206467916
Cd 10.847652425210633 12.948604617183886 15.965045520100778
Cd 12.542923877352766 18.512063570491478 17.165409887028304
Cd 11.930512314916005 10.425432524714768 17.001947372332868
Cd 16.889126137359156 17.332311933902776 18.45349148298282
Cd 17.20153027449431 11.973574086738328 17.46281979729713
Cd 15.201014179676312 13.45300862998145 19.298021892871635
Cd 14.934055377611077 20.18698874522804 16.38429820651628
Cd 20.489545594309902 18.906074538190083 18.882936404030602
Cd 14.442504711725164 10.742120848710769 18.403406471833677
Cd 11.548990685643956 15.709685620436655 16.915803355281092
Cd 17.49395796991838 20.628053072781164 17.999768271824863
Cd 14.234437390093063 16.29119033263271 18.194349665172254
Cd 18.160108177997554 14.266633054621146 18.973664966173978
Cd 17.92403505917399 19.158505730462622 20.653192688864785
Cd 15.566238064523358 15.86758329069733 20.854225329380295
Cd 19.58586649346998 16.492801229075 20.32040671814018
Cd 17.657516519875227 16.765336166162335 22.62741567131044
