44
Energy = -18.54234677 eV
Cd 11.694704520619814 8.143179089392342 7.1257383480322
Cd 8.246762605870993 8.077557675694377 9.038501877377092
Cd 9.148959498654513 9.850151164709917 6.762572833301721
Cd 12.553137704281557 13.78731043488551 6.2162221427573625
Cd 14.903338654845559 12.037235639476888 6.867397353012939
Cd 11.849707549674383 15.388975684630987 8.505360668641035
Cd 11.858188539673279 11.057502503302029 7.062130400788379
Cd 8.98196365934324 15.659523710242711 9.193663235932693
Cd 11.24743777836653 6.656676986960337 9.501736399103116
Cd 7.191229706125816 13.229049953655906 10.058632719526873
Cd 10.43107946994397 10.04734090395742 9.97238281188914
Cd 6.896397908156405 10.794431260003003 8.430454529047482
Cd 14.304795562657066 9.218877995498698 8.102185592940709
Cd 13.638019082046785 16.586458423737565 10.611947425472358
Cd 9.908337594013629 12.779007658154681 8.59683629793954
Cd 8.79880634835685 6.120118396026092 11.12944792491227
Cd 10.629259805084358 17.039185584470093 11.463431558444523
Cd 14.501320315465016 14.04595194372627 9.218713440662345
Cd 16.148655055058814 11.134400768435121 9.448047950569375
Cd 15.727693992153323 15.717023933083674 12.61831185756613
Cd 11.228585820457724 13.915654072807651 11.166795906088707
Cd 12.937598359750417 11.644244138172832 10.024460357848776
Cd 7.836421859378345 15.600960880222013 11.946389155327848
Cd 13.74068584141792 13.310106913726901 12.70945488103703
Cd 11.952164291523076 6.07924994793101 12.347264820063927
Cd 13.1098117874021 8.748168724113137 10.953252875877304
Cd 12.838662573745285 16.474587116236332 13.50408382231915
Cd 15.148335772730123 10.46732101677425 12.428723762433515
Cd 16.488161581455298 13.058007649043025 11.60460858450707
Cd 11.36930744799389 11.403966959060238 12.80544294331213
Cd 9.416037829446482 5.367364784128515 13.973625317203789
Cd 13.467260555985723 8.550128954514424 14.056213322206924
Cd 7.666164853404489 10.278472545576307 11.335369549639221
Cd 10.146677597397401 15.097217961361721 13.871374123033863
Cd 8.614285445433458 12.7222512223955 12.747692883073757
Cd 10.457226095881994 8.678699205126264 12.675111736182723
Cd 11.702990572203994 6.530554866982253 15.514681427270272
Cd 12.597160282327506 14.114776692390949 15.411116930182608
Cd 10.068969881083946 12.532411412639632 15.480637665817186
Cd 8.938149576909828 7.660322164671669 15.898093944181163
Cd 13.718566001489695 11.369691888043896 15.200279938220897
Cd 11.168818964674228 9.717383123332125 15.585821640255508
Cd 8.147487511023899 10.373053332903906 14.717214381187736
Cd 7.546921510778288 7.901692082091724 13.084822029099936
