47
Energy = -20.09011595 eV
Cd 14.59246822542793 14.74135865006046 10.189398132525133
Cd 15.84779675064757 17.463363804761393 9.949959852664078
Cd 17.472954830045094 15.294158922152548 11.640291661391377
Cd 16.633565795781582 12.652578217844946 10.387565604043735
Cd 18.361216640052934 18.148804286495245 11.353918586203223
Cd 16.960450360917672 10.331447250270733 12.117266243047542
Cd 11.710220729051791 14.81480612051096 11.392471148849593
Cd 13.021379843131507 17.449420969938526 10.7926513453486
Cd 14.783296653192375 16.077041073714103 13.104485318994119
Cd 18.850952217605087 14.735418207679643 14.20467794606141
Cd 18.865837168249183 20.308368875257376 13.225164936312039
Cd 13.696517187263547 12.656756156061553 12.153907428006761
Cd 19.2416339521284 12.428329353356128 12.153498929674472
Cd 12.592081147329626 19.43777946099914 12.874767421270763
Cd 16.08722763527174 13.399020137169579 13.810016111108002
Cd 15.733609940164424 19.457578370795215 12.459082254285157
Cd 17.102969663266755 21.11073840565732 15.499548073388729
Cd 9.951016345046535 13.145217066422571 13.09222350389786
Cd 17.20092436615234 17.515327800004684 14.311088489726805
Cd 14.112577917328172 18.05298088139669 15.347151214306392
Cd 11.855603224848823 11.355912720294128 14.43428088437324
Cd 11.710106712710123 16.67946685458755 13.799370777840457
Cd 14.632070651346757 10.372284360375232 13.9611205201406
Cd 13.173634295749785 14.167570319778324 14.870854476651564
Cd 9.70863589193182 14.939241033716671 15.40470216509103
Cd 16.18703170457244 9.375390414784938 16.229642267813876
Cd 14.29588498397223 21.13865554414497 14.598432836499024
Cd 15.210532371158237 12.568506573033805 16.490031803815718
Cd 18.190213030979603 11.268279629663564 14.867214386711737
Cd 13.231885984060371 10.35896911549177 16.93419174440043
Cd 11.413900704088032 12.834635916823023 17.08465050290455
Cd 19.05486990785512 16.371718482854856 16.729230069570644
Cd 14.589637275176619 20.40336388449231 17.419572489427352
Cd 12.022160202229747 16.39354016695918 16.83672645281445
Cd 19.534997906428302 19.184610313991517 15.840379607448796
Cd 15.38615054618204 10.144305736142206 19.112740398189388
Cd 15.706326816469943 15.509342097226824 16.046649200346366
Cd 9.740422328480898 15.066152504427231 18.44434485532796
Cd 16.924707369757233 18.460407070155757 17.299590874408892
Cd 16.264807089359685 13.026671906884967 19.412163148362627
Cd 18.086264288781752 13.630804876086977 16.95975679196043
Cd 11.116525827629633 13.80393073057369 20.709049228064305
Cd 18.04241945112139 10.84999243388785 17.92719891233598
Cd 14.304016866469686 17.524970767821817 18.502070478486914
Cd 13.067932033025732 11.887424483279473 19.583810544835153
Cd 13.84880750056138 14.56564881737725 18.408756358431408
Cd 16.902500597493294 15.918452165088421 19.055076953134257
