42
Energy = -17.41358538 eV
Cd 11.835470733494802 15.660550091797594 12.081679867017531
Cd 17.09945607601543 13.037364950305086 11.560385327138253
Cd 14.299679424076803 13.924326891480373 12.395020040516544
Cd 15.391675335697578 11.116257687053817 13.460697523389863
Cd 14.025009238603232 20.13400345907019 13.518603130012622
Cd 16.735784211900576 15.797704436233822 12.548419169586214
Cd 14.204950240313508 17.4592738710281 12.007979254941059
Cd 10.30461867457192 13.553131606540644 13.563071781939023
Cd 12.551159889417422 11.651235972466687 13.670213734325069
Cd 18.37704710957646 11.251616357014669 13.471605638063146
Cd 15.817372134153159 13.96706019244647 15.102759048005922
Cd 12.047396278300445 18.086457694001652 14.223943590489846
Cd 18.059718861872017 17.087665467559603 15.318781817494228
Cd 17.21072101571221 11.35645327881029 16.181180359398518
Cd 16.7829793206869 18.742356134188853 12.88042429533971
Cd 12.906979931709477 14.93290445131804 15.01843650569554
Cd 9.62883236388936 16.40799044223671 14.299339571294013
Cd 18.745203098057587 14.211571546707505 14.216637716649108
Cd 21.388917222267853 17.356686866001574 13.759830098809957
Cd 19.368576882037175 19.57969037124002 14.002251550129385
Cd 15.093604465011836 16.93685260339617 15.054517809488097
Cd 20.64526951429925 15.512622129799206 16.122450521967284
Cd 13.677949274798943 19.17513175459635 16.58121623146081
Cd 16.32485253467195 20.531956988339147 15.288854425246065
Cd 13.650300076675556 14.301120992293066 17.860827759301294
Cd 11.419174288367628 12.496441651411844 16.541408985250143
Cd 18.936879464714476 18.84998282680224 19.18780777087413
Cd 14.191821634257142 11.517333587043591 16.33613590193691
Cd 16.39111992721673 15.624031293287475 17.459126447748982
Cd 9.646097917155652 14.792714672813833 16.78868174676991
Cd 20.777837489417994 18.44089797809922 16.6234395768403
Cd 18.838378860124116 20.73342750433762 16.837375098826715
Cd 18.635988144561143 13.625790541910575 17.36874347331615
Cd 11.709100647592203 16.866601631758986 17.22195309521228
Cd 16.375679700213077 18.633741859036963 17.68421414572274
Cd 19.721300701748525 16.00131590713082 19.016985416875112
Cd 16.788227313868706 17.155994350099505 20.41372154818129
Cd 15.807434055039359 12.364861442136611 18.75412760971814
Cd 22.126833311280315 18.98602169809315 19.392009136985823
Cd 14.018685017847346 17.11014226353899 19.0369179549693
Cd 17.58676743945897 14.205815676355265 20.2016966160772
Cd 14.787639046371533 14.755387747264047 20.879017574043214
