49
Energy = -21.61076222 eV
Cd 15.805878070145702 16.267487533664053 8.03755484992281
Cd 14.045122183490548 13.8560174310869 7.123962119984746
Cd 16.581013325424443 14.13871181799892 9.978280061851814
Cd 13.26685353733035 16.586805298409555 9.890867314242652
Cd 18.432200853874214 12.931645069953712 12.020310604630849
Cd 13.560780157428367 13.436555869315645 10.117305231328386
Cd 16.02143213062612 17.991333914629802 10.427328769892345
Cd 12.053965700432048 18.25222498387809 12.060910722632933
Cd 11.151775873792126 14.75912443346535 11.151988157736666
Cd 14.673418914487254 9.813922969805168 13.395112027541277
Cd 15.064731782237967 15.605922362833681 12.211174780395636
Cd 17.535114710788008 10.560013672737247 13.46303135364916
Cd 15.572506182565549 11.573521715186878 11.242649468430756
Cd 10.19695660811126 16.345448191476564 13.527145692052905
Cd 18.916969715596824 14.309550050268676 14.53885369135609
Cd 16.849125900928122 18.732762679222837 13.140132138806537
Cd 18.14410454864454 15.94156474342939 11.878765807476162
Cd 14.308406240787239 20.132989845254997 13.217134373465118
Cd 12.86067572084869 14.503857919617221 13.929617723881876
Cd 9.942369829828076 13.153906431491192 13.323774455576176
Cd 12.550900102567631 11.797639089030435 12.466902002283152
Cd 15.638975965488237 13.219545279662585 13.898391628641823
Cd 17.85243292404678 18.93495114545219 15.955880477396898
Cd 13.69702807238743 17.337320928548923 14.384954430897665
Cd 19.5632178444608 17.470796285022267 13.893840083570717
Cd 12.29696288152957 9.816316435636166 14.924758388980145
Cd 18.517844484648332 11.69357083956148 15.959043990051567
Cd 10.301900327679029 11.748687360366455 15.82227553246582
Cd 19.04178642869576 13.842432482246265 17.912672557618947
Cd 12.930917795310416 19.834474868542394 15.904603224822688
Cd 10.45025854305401 14.707523103747945 16.13039046071998
Cd 16.38453611403771 16.189578729110725 14.955073890316653
Cd 10.845489433417363 17.67119084638208 16.063239470135994
Cd 15.818707440445028 10.283531257572742 16.13090632235859
Cd 11.551280753100084 9.464361081198444 17.795529723342074
Cd 13.721209495819256 15.57990057096287 16.71767414009695
Cd 16.151178391185727 13.886859865366862 16.735919463186065
Cd 13.557900380039223 12.502795598851849 15.973414953231618
Cd 19.723553528280824 16.378659058675325 16.580835877641093
Cd 15.296376592842183 18.81645329989621 17.387759490926566
Cd 11.418479871258715 15.58855409264717 18.92228053845344
Cd 14.151901925335746 10.775475392472883 18.59575165161317
Cd 17.342882232011604 16.785407350213028 18.168372667408025
Cd 16.860182978467865 14.45316403793045 19.955130205723712
Cd 17.029258526648693 11.580728156475836 18.794782832998305
Cd 12.500406804733382 18.253956479622616 18.492326186584982
Cd 11.561470178000107 12.64767015370322 18.380900939079755
Cd 14.076986882806311 13.727435403283073 19.341063019831374
Cd 14.728394661421625 16.663477421180648 19.625250051856682
