42
Energy = -17.68624296 eV
Cd 13.217227635580894 16.542294283708685 9.780373119989617
Cd 15.427984702722194 11.012570925016963 10.691559894948746
Cd 14.254570380007312 13.696133684868641 9.832460319221571
Cd 14.879124994711125 18.437715210185978 11.485591227073616
Cd 16.38408743096136 13.918687810240801 11.948306927396501
Cd 16.22598926536062 16.093840672607705 9.897601148920511
Cd 12.365162393199919 11.40725494518313 9.866027337697812
Cd 9.720326501331067 12.860739567029702 10.792809965804734
Cd 12.078238137981954 17.503124527042 12.457294540687025
Cd 13.005794031866653 8.981233810233268 11.725272495319206
Cd 17.138793625260952 11.188784753030285 13.213627612988073
Cd 17.58823618777651 17.49168548303484 12.172477499894066
Cd 10.097307453012206 16.01922163567833 14.365743360822973
Cd 12.532504569578432 14.107114709591592 12.333657025796832
Cd 14.639524071298586 16.008000454338273 13.304241526915263
Cd 13.675689411411454 20.153556353279086 13.47025477996489
Cd 11.098780564182023 10.984100641527508 12.6740616266005
Cd 10.465915174442417 15.653302795589715 10.4760891245848
Cd 18.28532973925546 15.658143246757493 14.255151268848065
Cd 15.742221257533553 8.5868286987742 12.630510176139126
Cd 14.032079437317982 11.789332888892865 13.479251915366017
Cd 16.430378833958624 18.286781183268022 14.871518972832815
Cd 13.17216743377155 9.07149710690584 14.764869283857466
Cd 12.372285488302156 17.395383373932553 15.555635376319279
Cd 12.85185464572056 13.913445197187515 15.284813761158667
Cd 16.162724066092018 13.533896059139932 14.848562048060103
Cd 9.886341632652897 13.159301670601877 14.204015823776922
Cd 10.84452899492573 10.691526032030835 15.686242973832558
Cd 18.397345937982898 11.167736758419974 16.026333853231044
Cd 17.92944379680103 16.423667690430776 17.279390269999595
Cd 16.140072796337716 9.328995384480157 15.529104911828227
Cd 13.245247655999169 18.153617964509674 18.65452035963006
Cd 14.113234089048772 19.750551877411592 16.305329164998245
Cd 19.298040798244802 13.923360807092955 16.37768136543122
Cd 14.932817117312519 15.865711925849748 16.202149856137225
Cd 11.47110048452744 12.58613902870532 17.72699518958498
Cd 16.243889598790524 18.64810427333953 18.108449023840905
Cd 14.240475275800149 11.38831669193086 16.63028072741781
Cd 12.331358413874153 15.441978779072091 18.002845419403574
Cd 16.713915129182322 13.267677974686531 17.87367219923615
Cd 14.073275002936256 13.09911378352084 19.099571106880077
Cd 15.361976958375088 15.876890456301679 19.183016532993303
