48
Energy = -21.36621258 eV
Cd 16.01375698811912 16.57864792811482 10.685777861109548
Cd 15.223040596859034 19.225173716656826 11.918506241782703
Cd 16.93376683034924 13.893777925127031 12.141176159093376
Cd 14.320677065921277 14.097445410167046 10.750453508110331
Cd 18.914761548055434 17.00516828560853 9.001891601775691
Cd 11.496865928477993 14.588770035723057 11.686678505319236
Cd 18.59498080449492 11.770205965817073 13.235462246667229
Cd 18.006757584323392 19.10663242424203 12.846729514667858
Cd 13.022915570393305 19.246609006803318 13.923080373402788
Cd 15.679007455121724 11.55873308062165 14.017345190037025
Cd 15.90930418682051 16.91454364520241 14.149176991483866
Cd 13.116175686245764 11.98154801194436 12.453336682547905
Cd 13.332757866433191 16.952024522354222 11.91478590662519
Cd 11.258685831910025 13.799544830246674 14.54801416186244
Cd 16.96140530622736 14.16012521090778 15.49026099140259
Cd 18.62150002868015 16.312679505120034 12.028140345006834
Cd 18.011360232069944 10.879795393615757 15.93181964561248
Cd 15.871677599490928 20.008422494416113 14.813405059598503
Cd 18.934624450313258 19.756008139822764 15.65396177705609
Cd 12.898199624035065 11.395710042928984 15.380673444501237
Cd 14.313744216953966 14.463831539674329 14.041490404796209
Cd 19.763314519222362 14.390601551605899 13.953295393938296
Cd 11.110710132217514 16.775039580106636 13.840662326749593
Cd 20.24393979782748 17.459304686906165 14.195686712570678
Cd 15.350157404496658 10.724789637971517 16.998887928974742
Cd 19.794939121515153 13.051240670367203 16.698048933322532
Cd 17.98472177717134 16.79506403230789 16.169285646361903
Cd 13.52716041960116 16.61553039073616 15.984665858188052
Cd 21.6721240019739 18.72362483261973 16.78166733872435
Cd 10.936496216794708 13.038286978575034 17.384074433542384
Cd 13.81273084953643 19.85655284235624 16.940964433460696
Cd 16.779580658620098 19.421673414438242 17.623370434102778
Cd 15.726220056631453 16.257658492766183 17.8886424180454
Cd 10.432794773314146 15.96974137394082 16.74541821335754
Cd 11.055315946507074 18.84622859002746 16.06729554170129
Cd 12.937538886829344 11.22266116620744 18.554860334528875
Cd 20.870573009569714 15.781494280051765 16.61022655725053
Cd 14.458179228050977 13.75137741001305 17.024716619020868
Cd 19.388863563473794 18.216272020013044 18.635644046626837
Cd 18.977720549219367 15.170845035868368 18.83006546266642
Cd 17.266749491344353 12.588969624478668 18.372724949361796
Cd 14.343110522697849 16.182379060303113 20.803859805501126
Cd 12.152414988416295 18.0291286994591 18.73050708377618
Cd 14.835157367768074 18.828033078732755 19.654512170868372
Cd 16.7517687864399 14.397229801359558 20.562708457869334
Cd 17.28864359519116 17.372340180607264 20.530746619446006
Cd 12.42385679799617 15.142513267658408 18.87720769176628
Cd 14.122517681099206 13.139287730229421 20.37135352064099
