45
Energy = -19.16343724 eV
Cd 17.133436364345332 12.648320950820233 11.20114562740642
Cd 10.437847389231967 17.19295301556578 12.264246058757315
Cd 14.722598378245001 11.166477088738123 11.935141394427934
Cd 15.73829143580974 19.468810755162078 12.06748362407864
Cd 18.278206352629592 15.279530533409709 10.915073492606135
Cd 15.68258490452988 16.596181458336204 11.57573617000295
Cd 14.104641971169015 19.92261943805767 14.420312855160716
Cd 12.035839553301022 14.758597825187646 12.29607628100975
Cd 14.379222039658885 10.819595901458188 14.904711815527284
Cd 12.970697874173139 18.372511356272852 11.320689533533265
Cd 20.651773026778248 15.698024884937494 12.808063919344846
Cd 17.13777070676073 10.719380790449224 13.721090500991416
Cd 18.035473840910836 14.200840034930547 14.242379161378619
Cd 18.310974227891784 17.622120941887836 12.966230159958968
Cd 19.96222062662545 12.635827889616078 12.322145114721549
Cd 11.935035268551744 11.800449894713816 12.581246368789133
Cd 15.114154524302203 14.124040034934863 13.003559324664257
Cd 10.744993370342083 15.950203695979813 15.138619934479324
Cd 13.701611695781292 16.863983111296584 14.008162051953324
Cd 20.010144181903765 16.263897608419374 15.635227423377408
Cd 21.71562180738239 13.641014668796585 14.653518576131281
Cd 11.211722070858167 19.033073368768296 14.493056113679629
Cd 15.76542085652145 13.586386272509747 15.997071782698871
Cd 12.734100595885945 20.121531969187433 16.98817416302806
Cd 19.43329514879387 11.591072982659187 15.240647955802793
Cd 12.912468957408581 13.791366952698342 15.083486308107434
Cd 10.924840370915064 17.821263745189867 17.396960774100343
Cd 17.160442522486868 19.85587039320061 14.664900528345155
Cd 10.025506737117276 11.45111439507656 14.747457235664852
Cd 14.97772398474536 10.968332057668325 17.81168307940559
Cd 16.408404365404095 16.527266590117367 15.177673420281238
Cd 10.115271938773235 13.546795737900267 16.815500281672325
Cd 13.83088853559138 16.14609404803095 16.862986131322415
Cd 18.986304997192367 18.799636459874755 16.69811439471197
Cd 15.535410513982853 18.82573946925296 17.00769073678531
Cd 12.107129845306313 11.010756210815574 16.851394687005353
Cd 17.784427263458138 11.821324609617532 17.80112095482742
Cd 18.03657070882584 15.78402510429609 17.813699606676003
Cd 20.062409175200997 13.677668484888084 17.275249696575667
Cd 13.076561664658808 13.468778254130024 18.228247857584336
Cd 13.723937329549067 15.60290821027845 20.311617563646575
Cd 16.19291137513703 17.23136359300486 19.541301731477457
Cd 10.928089862944638 15.413421264558636 19.052230434254795
Cd 13.375629018998039 18.3274395254224 19.191729621227147
Cd 15.97754379550256 13.941539597465674 19.0572967284011
