48
Energy = -19.85703965 eV
Cd 14.365858565454294 18.46482144692836 10.580533709369893
Cd 14.597113673545497 13.53522876266799 7.845869808211691
Cd 10.990898053251879 17.48207794060568 8.626143173497926
Cd 13.663630342562854 16.21722678448332 8.696872795718837
Cd 11.692833498101184 20.044020245850703 10.189064936320747
Cd 15.717146035204795 12.185145326133773 10.387544143724785
Cd 10.909004241204643 15.5738414988739 10.99334051996861
Cd 15.738488251285196 15.336492714548402 10.71886379840779
Cd 8.725546747868128 19.34532804297253 9.600307245095498
Cd 13.072722363899572 13.629752887660164 10.869724717094538
Cd 13.452637203994248 16.287501142850004 12.697431891543937
Cd 9.695823476636477 18.23466610911516 12.21255457100779
Cd 15.479947637418928 19.282278770145943 13.23801615627592
Cd 12.461177779291221 19.199841872113822 13.076547165378486
Cd 16.61663888945968 16.480788842074503 13.408683541730674
Cd 16.476715416991006 11.168868481291508 13.099363482347385
Cd 12.089959853939318 13.717000624334712 14.029117199364029
Cd 15.14129960582995 13.880885894372605 13.893709856230172
Cd 17.850828409011175 13.74363533226388 12.07122306069749
Cd 16.706105408610878 12.055971368449836 15.990995001129539
Cd 14.570475353000989 9.927834352833848 15.163175235424625
Cd 18.920318175331637 15.068692120960547 14.636117384238407
Cd 13.518799104544502 11.383801730983347 12.806424889021057
Cd 10.928939602421723 17.861075230077592 15.433463906612156
Cd 16.527222534103092 15.03076756413387 16.527730874770526
Cd 19.234159130844848 12.069468609015747 14.104514439209632
Cd 9.741616293310507 15.590970081449905 13.701900039391504
Cd 13.394955468145534 19.50606826357811 15.88524254994809
Cd 19.627474024229393 10.188076853610237 16.26115777261561
Cd 14.684355669779123 10.681089665720428 18.080422545377594
Cd 11.974777379802362 11.247659545616854 15.944028210906517
Cd 13.542714095697479 16.17004322090439 15.673121979197687
Cd 16.066807598875982 18.013480763430422 15.898605787884819
Cd 19.602393131677122 16.604191345705818 17.088047241873667
Cd 14.144290946271985 18.018663333149856 18.401349932610554
Cd 17.15249964164868 12.507660814776528 19.164621288316454
Cd 14.041307611135421 13.385810748831712 16.699059238202622
Cd 19.533308073691973 13.371879168301936 17.098080934256696
Cd 19.998995665084433 10.934482679582507 19.249612157656316
Cd 10.59778748460048 14.888421041864595 16.459386405510724
Cd 17.443977900856957 9.580218484475651 18.15863399845219
Cd 10.925962118701811 12.698446803346414 18.43000166549936
Cd 17.157076107292884 17.47171509170348 18.60768674350319
Cd 12.596777074911186 15.513074249415292 18.61033661133529
Cd 15.503140667015666 15.036976822388523 19.503681963798794
Cd 18.63917832431599 15.096824545062786 19.57784751592916
Cd 20.80800585052874 13.405370025386294 20.67345079453168
Cd 13.581150427055281 12.784703664393035 19.839232029246503
