45
Energy = -19.64215124 eV
Cd 16.363686481762517 16.818114143809787 10.049029710286439
Cd 13.481633435974267 16.650705443403737 10.206420763557901
Cd 17.85017782174528 18.30645643040403 12.004326603837614
Cd 15.253487938377225 14.095874415298168 10.75702236094751
Cd 12.089604593338313 17.51150627856909 12.776175294742224
Cd 17.561252862560682 15.313321476819235 12.49230966342303
Cd 14.81795455603845 15.948316067704333 13.58734829394714
Cd 12.4131265106369 14.519718984359086 11.89167886802959
Cd 17.023934865616923 12.264681155645478 12.320000980970104
Cd 10.032607099915005 15.14657804632766 13.452933620311375
Cd 19.411875803124854 19.499694563829678 14.07623289193661
Cd 14.709301324483873 18.80064624770785 11.95602553557226
Cd 14.0287417567185 12.338867752238725 13.039352665629357
Cd 15.577539529565925 10.049958446210747 14.096671333872802
Cd 8.825414292859804 15.168658118743119 16.042756251034287
Cd 18.347668418506014 10.873346444571947 14.556455519940377
Cd 20.17812186199686 17.569827380473587 16.049742384845494
Cd 17.14647077612312 17.12969576824692 15.137209363308104
Cd 18.844679073723082 13.900691548644637 14.662876970037495
Cd 16.37079343810812 20.286320241756883 13.90659824964849
Cd 15.875110735012953 13.559329138321234 15.182998157256048
Cd 11.382768983579922 17.290931986059686 15.581300251585747
Cd 17.909615081638123 18.067644105982687 18.17675469973854
Cd 12.627184871908005 14.280045687091263 14.951051560261655
Cd 14.067930836090204 18.62755475353104 15.072100503320785
Cd 10.683202754639684 15.948309000723787 18.153973814239855
Cd 16.45496321996834 11.000740346141171 16.93865675008821
Cd 20.881144650992372 14.793103309409025 16.666927083351013
Cd 15.477660456619276 22.489260270363932 15.929583901767982
Cd 14.605417812122251 15.855563163253363 16.71342513529114
Cd 17.90316621531924 20.492284649465155 16.48598944223349
Cd 20.55165994829695 16.77626818941736 18.943797599832642
Cd 13.468041676018847 11.28280859015678 15.917983220764016
Cd 17.445168162243633 15.070362774249991 17.337571039284885
Cd 12.936176192245377 18.038190061213182 18.1036278705135
Cd 15.27128441562973 19.774029193802043 17.68482617279891
Cd 19.279041420661404 12.147462636914168 17.09965005629991
Cd 11.818880225431663 13.258685273930244 17.5678366351681
Cd 20.1695464351253 13.829903216223514 19.418718322637595
Cd 14.703371870779245 13.070990834288652 18.265843016243604
Cd 15.45038116592348 17.183867583048475 19.546612356520143
Cd 18.05680104769812 15.821344388644958 20.366580933790413
Cd 15.511545685047984 14.368822985680007 20.942611590319792
Cd 17.4160048685092 12.70799642157352 19.479608619097668
Cd 13.03835353767972 15.384017196107903 19.72329865207359
