44
Energy = -18.38548053 eV
Cd 10.931231762088304 13.289495270424776 7.235944007134571
Cd 12.678591320124989 10.87860845541185 7.599736378317954
Cd 13.995314335356586 13.66817493585152 7.496750211484436
Cd 15.877799765933913 11.39830688641306 8.461148972459567
Cd 9.950872378291184 10.797197777725328 8.941062101354769
Cd 9.779528924809334 15.667029093612342 8.584637552038723
Cd 14.692192509649704 8.60395944300925 8.704717137790213
Cd 7.959320999909978 13.220500197799224 8.63610435898505
Cd 12.77475056915719 15.947757343246252 9.204624046556923
Cd 8.903753775649204 8.545150756651953 11.018867331259855
Cd 14.900523575689911 14.08534289634299 10.389279857933504
Cd 11.779164422617248 8.551705541349918 9.747321510026332
Cd 7.062843119981367 10.62037392906763 10.030294791843618
Cd 11.576613231590203 13.355818280691217 10.283550117651334
Cd 17.026626244738363 12.03397174485775 11.126511952216331
Cd 13.584198622167014 11.295401756644978 10.395947683270997
Cd 9.129689195505852 12.374375675167936 11.576304489449832
Cd 13.994791232450899 7.119136569344313 11.291926564507364
Cd 10.699711478876296 16.626434660045415 11.331609693167051
Cd 16.53510812818166 9.05561698137796 11.091426110172016
Cd 7.98149875904193 15.14705307658012 11.060316745310072
Cd 5.721239302109541 13.014957777207249 11.201171706861652
Cd 11.21791977516598 10.504555143222388 12.195387521166387
Cd 13.966561666736919 9.725074765838645 12.769740470700826
Cd 11.05504667790568 6.956329426595656 12.320260182016042
Cd 8.791813557490718 16.4501337218735 13.665871422093506
Cd 16.348970767222543 7.375670820162716 13.66092306125839
Cd 13.463802773721659 15.764879109172181 12.40762180754378
Cd 10.988956973503646 13.852212063177063 13.162359079309457
Cd 13.569964996863908 12.594334912267758 13.131878790258938
Cd 16.30963146846953 13.938704276078749 13.32698434932055
Cd 7.177151501381463 13.681952576876254 13.807366070281763
Cd 16.601603909700177 10.849100824569177 13.848251319007868
Cd 7.186941022045998 10.44643288081907 13.058786428382998
Cd 13.09551489021172 7.2154448067585175 14.391389428084427
Cd 11.667125264831174 16.280423940067745 14.872089515426504
Cd 9.50840448675835 8.689913137478229 14.118747508053582
Cd 12.016575443532894 10.121414254027648 15.208323365454088
Cd 14.914148833805305 9.18258160752299 15.74438250260961
Cd 9.291499428298696 14.503449268656217 15.86265885392435
Cd 14.305934040112685 14.988681014791542 15.285792221049139
Cd 9.366032958767187 11.626465613608312 14.861377660829655
Cd 14.861557363447222 12.113941277791822 16.120189389800206
Cd 11.996810559136438 13.079267522851517 16.007697746666306
