41
Energy = -16.18431694 eV
Cd 13.885404844136765 15.541697903601122 10.88297897553047
Cd 16.59170243648226 14.519505438770054 9.58901857790241
Cd 18.93213542168854 15.60636172984312 11.566368614790248
Cd 18.365681826077278 12.653070280975498 11.330289469516668
Cd 15.07933848267547 12.851823995890081 11.51317804142
Cd 11.344513114963764 14.42841665434449 11.918897435316861
Cd 10.435710963421775 17.207311825913646 12.753095178745436
Cd 16.48173946380972 17.244010655375938 10.784538006390475
Cd 14.619068006682317 17.576163061432666 13.093095201047536
Cd 14.060622433346875 14.75684528676 14.173692827567331
Cd 14.449778804004856 10.010974358109493 11.539211868310641
Cd 12.312962881899654 19.450994431556673 12.685306540543039
Cd 18.12301439768421 11.016358134009561 13.70549052720713
Cd 16.924013335307798 14.109840694959649 13.731361036642763
Cd 20.356371146199017 15.928741717506368 14.208801980310179
Cd 12.297407962339179 11.855945994873743 12.893953039845732
Cd 17.60238314242637 17.212243814096098 13.767210487530713
Cd 16.07719971559459 8.84502002548361 13.636796098386592
Cd 15.117987562333392 11.802267363434902 14.563459311656711
Cd 11.2020398879914 15.458511401170394 14.98210005828508
Cd 10.212634071527965 19.193308962244025 15.019735488849712
Cd 15.409893398887299 15.085089683479513 16.887361436459795
Cd 19.43594930918898 11.34950415124903 17.117891222826692
Cd 20.079065585832904 13.006739051911062 14.705842513350861
Cd 14.403025625226665 20.13659361681941 14.764077397179468
Cd 11.0783475685727 14.538277415950086 17.823996347719596
Cd 14.441839577183165 7.966110163748405 15.955996113154097
Cd 16.759258353474184 17.697727414715608 16.496181567809177
Cd 12.402397391978777 20.11766595348025 17.00263262200175
Cd 12.212637674086933 12.654705559650433 15.736090968091547
Cd 13.59329511802785 17.246916029575406 15.943788832116333
Cd 17.286052717937007 9.44358901045263 16.295551434984848
Cd 14.015936422678243 10.572482077870774 17.141840710291195
Cd 13.48948628777633 16.202328373227385 18.946798353766397
Cd 15.622816492123443 20.281120465966755 17.423176508153848
Cd 18.338992037039453 14.79435394344156 16.436348385025187
Cd 10.877534105594318 17.462296678847398 17.350822689753393
Cd 16.569276335010308 12.325069639034346 17.39017372820288
Cd 14.186876413087711 18.96634666019827 19.63268015246555
Cd 11.235395409060757 19.309217182288183 19.80158438984784
Cd 13.713298618220193 13.197537539322958 18.431670202585735
