42
Energy = -16.60295897 eV
Cd 14.959658785305383 15.699292244890671 8.774963958187747
Cd 16.771031053188764 17.94540071813136 10.293738621708194
Cd 17.028412132430624 14.900427199414903 10.826045946431568
Cd 19.61862130634893 17.22886953963863 10.974838319685219
Cd 15.371419007874108 19.770384753475575 12.309831043731029
Cd 14.044864865969293 14.594251438735194 11.743693517553881
Cd 19.436590610344197 14.651685160190013 12.53942893279134
Cd 13.77890431852296 17.65146088792096 10.902954146977564
Cd 16.244965728736833 20.993933621863633 14.813548809315224
Cd 16.344774651272207 16.83465636141602 13.212130306511561
Cd 18.38095159617884 19.388788654747756 12.734040748575861
Cd 16.225430946764277 13.401176321087759 13.332943614978063
Cd 18.382254406143943 14.546681836639282 15.312674642842774
Cd 12.743593293881982 16.65810723520598 13.519075838491034
Cd 14.225527043897598 18.751853472737547 14.93631293863517
Cd 12.326687731168278 10.002987783635666 14.44960694328326
Cd 11.316644118871043 11.740426652125741 16.77146035780322
Cd 19.60410874856735 17.141452704255922 14.33158755251914
Cd 12.285289071838891 12.516035810840279 12.871660428756982
Cd 15.281791363231967 9.62817321558634 14.87212505114792
Cd 13.92196300362154 14.60023260821961 18.21465738231113
Cd 16.852806674433662 20.87958455804663 17.67352819166763
Cd 11.893784386619942 14.424229689087898 15.237691888804614
Cd 16.91379810275641 13.794606372999418 17.90586459882797
Cd 17.300456468587726 11.712827494840557 15.651418802406411
Cd 13.301102312591222 9.550316911486355 17.415515714968684
Cd 19.012428121216605 19.85872671168922 15.641550366752085
Cd 14.26187637235564 12.527038252267998 15.658420678559608
Cd 10.7566796871514 14.386815541588373 18.069801591772848
Cd 15.122718110799926 15.366805363387158 15.484923603815467
Cd 16.578669153688683 9.396755362311096 17.684591336691586
Cd 14.34693571695328 19.18564843536689 17.944284319572574
Cd 12.56409109404261 17.017476807830377 16.808618653025235
Cd 14.786055879605831 11.85803525508952 18.778625526544513
Cd 16.93458750039071 17.665620688824184 15.999261104138585
Cd 12.07271535763798 16.19220474525061 20.063640220434827
Cd 15.000909211899241 9.330137329159536 20.312094709697952
Cd 18.90459502742786 18.70453515310181 18.471018623506758
Cd 16.650752987699917 19.255836900595686 20.314616675492356
Cd 19.04416653113912 15.872401633484673 17.967934103049352
Cd 15.986337183471612 16.669301835990524 18.735506713547924
Cd 13.924860913455559 18.208627314927625 20.947584052569926
