42
Energy = -16.74088763 eV
Cd 12.59180390506175 17.718392451821508 10.125705421284357
Cd 14.33591490216873 10.243495569621585 10.565001333135335
Cd 15.42544926611254 17.397506622736728 10.171120631484499
Cd 18.136721133149294 17.63925385958864 11.23576908242557
Cd 14.363502221615134 13.025717370134661 11.46115370546203
Cd 11.023540114892283 17.246548779915788 12.471432958271368
Cd 19.11058695736855 12.937970639786592 12.138130222463891
Cd 13.194473725059384 18.681411854425253 14.093896074089026
Cd 16.98263613444497 10.829529903544154 12.021769352188594
Cd 15.757360357535072 18.933778436433474 12.767342151226812
Cd 16.700831004750412 14.866226736379502 11.604837653024006
Cd 14.461630670775431 10.090189291253983 13.604192863700863
Cd 10.031307997263715 14.83634981003084 13.846132349514459
Cd 19.597683307211575 15.78483241340111 12.899745232441903
Cd 11.706464465167956 10.108561276487595 14.591682718725597
Cd 12.633895456282874 13.413985860534398 13.794732851629355
Cd 13.941038173417173 15.911307504668885 12.72821121446055
Cd 18.81571629171075 14.111954488447052 15.252330355948311
Cd 13.529774226413059 15.663166298837158 15.764321493871803
Cd 18.56198709666312 18.931659189276143 13.85518104255866
Cd 15.963983149140601 13.0177957423383 14.097904483897631
Cd 16.270097162614764 10.242658421516767 16.01693552104841
Cd 18.682166946070478 11.159013373231641 14.531316545611721
Cd 18.62629215256468 15.943560152097241 18.13938131018639
Cd 10.622062214232711 14.653328668180277 16.78099940970583
Cd 19.609707368220302 17.034660948170607 15.721086488460438
Cd 9.7865102730207 12.15375584538245 15.277493702822433
Cd 16.466279618250667 16.12716175042052 14.39688783581291
Cd 16.104943474577688 18.851089326389367 15.697248022962308
Cd 10.872084688210382 17.316870589055213 15.448207563690875
Cd 16.006506280047223 14.30133155466127 16.73958673290877
Cd 18.403542920781003 12.095254813137428 17.396956175735944
Cd 13.344393828003094 18.467960981234146 17.07574023787479
Cd 13.732746056738938 11.960820179480992 16.14898052327158
Cd 15.423220822236424 12.012099657192712 18.621323245692075
Cd 15.696633341540284 17.019083556729292 18.030831121497076
Cd 17.084342961322303 16.681310721113867 20.791725004168025
Cd 9.181704507761737 19.33770312445055 16.836740446265544
Cd 17.68029601941508 13.69011965184217 19.830715982380262
Cd 11.627190351028782 20.641189080546294 18.184525760692136
Cd 14.838930696167886 14.665183293522064 20.415954026639316
Cd 12.780573309651878 13.96273576064264 18.53329669943107
