48
Energy = -20.79237813 eV
Cd 17.830522156283195 14.75658519904387 8.046442310415792
Cd 11.750671227373086 17.316478750321924 11.425514434748797
Cd 12.770630764896312 12.858016824156797 10.753836100152402
Cd 17.653143741040335 16.26712414261932 10.751664999081562
Cd 13.639826304278488 15.230334075321702 12.531523923559368
Cd 15.533662979793148 14.134691046051215 10.165082317571489
Cd 14.544663827422989 16.90659883521683 10.17349815265663
Cd 14.138665547925795 18.882546804118387 12.530836562669126
Cd 16.396554651184665 19.19229647700121 10.637602984589403
Cd 17.396974681621614 13.891534634204195 12.715469955556774
Cd 10.364556034593495 14.474282157540479 11.063396886580863
Cd 19.360218194936454 16.05090532219479 13.246752931633877
Cd 9.804248208232359 16.064781889258448 13.500476436589107
Cd 15.00376984634368 13.63772106621575 14.560223822076635
Cd 15.278561007617254 11.728042015683094 11.977960128685199
Cd 16.897588995297337 15.87878201329338 15.241715065714668
Cd 20.399099727980015 15.4912752196775 15.93385445955063
Cd 12.341001982164206 11.54141862273729 13.35666214450987
Cd 17.64326600899434 10.987299975356315 13.629486009861527
Cd 11.47088664933447 18.50657585448601 14.202322748055773
Cd 11.772927624637013 14.169526975880881 14.81478328718148
Cd 16.847223618096077 13.409337233192115 16.916451156372425
Cd 10.4321347855227 16.679205407492624 16.34924309785997
Cd 19.09533429684016 18.209918691676073 15.496228131783138
Cd 14.820586263481113 10.532108813803996 14.83642265397783
Cd 18.330302530602157 18.84144113805681 12.738555018305556
Cd 16.162818969336033 18.923950917233245 14.890586893430571
Cd 19.30266677362377 12.89149442536194 15.16967518232274
Cd 11.918295955742483 19.261819484237584 17.194907799128252
Cd 13.825260997814249 16.71047807095576 15.174754809965897
Cd 12.012239001339037 11.506228652637935 16.265592869608845
Cd 13.973039910242225 14.360908630767499 17.261021198073333
Cd 14.658587953667086 11.203571671851918 17.69119721041449
Cd 19.567345546186356 13.995464776612328 18.316071758754315
Cd 17.620400603719762 19.614762316659398 17.69904955111896
Cd 13.60852304914697 20.40934285617796 15.045114727700552
Cd 14.743700609282236 20.043090385082024 17.792502692829
Cd 10.795884288446073 14.1900104982293 17.822163878446233
Cd 18.631992119089315 16.86058148908862 18.12368630849661
Cd 12.47624144707252 16.807888430209964 18.602713087699872
Cd 12.149564843950046 11.947117893301131 19.195678369221376
Cd 17.489671721000665 10.394290474122954 16.542236527347914
Cd 15.404020758869821 17.038131371369907 17.726775573105293
Cd 16.819120875139703 15.043159045926632 19.568175100254905
Cd 14.85653254326382 13.020906814384873 20.18032920950503
Cd 16.98372954115914 10.982662372964915 19.713811928865894
Cd 12.43503420641246 14.668881826562997 20.529250116915012
Cd 19.694634541518518 11.1327563241767 18.545027399569264
