49
Energy = -19.93543595 eV
Cd 19.233224204071284 15.823641141117028 9.959985204899816
Cd 14.983203384245725 16.556992387251768 11.12215499058203
Cd 19.792907390855046 13.420848759170012 11.609918838686914
Cd 21.586931315200342 15.923346269996035 12.029999879150587
Cd 17.122519603756682 14.649398613056217 12.24379912657291
Cd 8.651428733951319 16.40823191624485 11.336116234362231
Cd 12.14022238418233 15.78979875844624 11.030195802506661
Cd 19.937452634062215 18.672628999997443 12.717241560054525
Cd 17.57270527788592 17.947315145804822 11.228422251581964
Cd 18.939091817035695 11.097180771843746 13.28103741830113
Cd 14.317236793827217 13.669631916336677 11.935622947599063
Cd 13.015470143161526 18.075450453471486 13.093743828640594
Cd 22.84196374123712 15.050286801216293 14.907693267482495
Cd 10.677527003832033 16.103519792355893 13.636420314874872
Cd 22.335920983519912 17.94755131717686 14.292181417997325
Cd 19.200795379182754 15.946212759145432 13.979346088676666
Cd 13.920164458702118 15.380220517185862 14.385837038771799
Cd 11.345214898105281 13.333281394225562 12.654631318144911
Cd 13.904999871399566 18.814408842555913 15.828680438785502
Cd 16.16321082362815 12.08066472639101 13.722142414624622
Cd 13.294017607774478 11.730609739932653 14.180467822188898
Cd 18.64577830396457 20.98591696569753 14.023051796866511
Cd 20.686599671286537 13.161911692462194 14.562729981718038
Cd 16.12139939201084 17.802500234544397 13.84229157197195
Cd 19.808732558030115 14.841233192473775 16.910889978091333
Cd 14.536381996003893 16.07607944182011 17.19412085321238
Cd 21.91029221913114 16.928006471645826 17.16714495477862
Cd 16.718147903205296 15.170692653034816 15.319196015971718
Cd 11.668091051352697 13.934827343609642 15.878379958198288
Cd 12.20911071911591 10.855097609150556 16.803866651138858
Cd 11.381342315460747 16.937351017838388 16.313994613887598
Cd 11.939040267570155 18.940953469715016 18.26568348503572
Cd 18.08671677444982 12.474029368626928 16.03232602907876
Cd 19.547193653873677 18.29592412506877 15.86540341008981
Cd 16.87410742786086 19.703073156948122 16.048639195301995
Cd 14.93001513600601 12.902969422208487 16.51358755177244
Cd 11.87545696003512 12.981470941476637 18.85812719130726
Cd 15.497556571693531 18.930442580022255 18.52072983089185
Cd 17.492669176736865 13.950612629018988 18.640678853864316
Cd 17.647093026101114 16.989581876217432 17.717445968993825
Cd 13.646609437690033 21.09923720642295 19.437694833081967
Cd 12.217157311368648 15.88738087379542 19.129662801331044
Cd 14.759936420671991 13.278177504976187 19.42458639543293
Cd 15.723296629217918 16.157475614986126 19.981981407927687
Cd 13.511671207436239 18.194260398040253 20.73351963441231
Cd 13.908539485153844 13.055510272336772 22.293684891520524
Cd 12.349697961048793 15.686822175087535 22.33278153514626
Cd 15.392496438827841 15.754144772755994 22.988275009313686
Cd 13.683690762710794 18.348125194725675 23.76891662280539
