47
Energy = -19.05073265 eV
Cd 17.020774926211125 14.878325038220025 10.161640076719571
Cd 9.500068825404211 15.506283526341077 9.817017704881742
Cd 15.83593748376935 11.983512087614876 11.593580529679528
Cd 14.369300430022225 16.126978434221982 9.477651525322297
Cd 14.730426552319402 13.10829426581899 9.05250418354372
Cd 12.180687940904628 14.07007986604025 10.363043661185849
Cd 15.304780933488022 17.544300865020602 12.099601962203286
Cd 18.719721405338696 13.06046742172438 12.018782394177483
Cd 14.415693106090771 14.661459898988236 12.529286834399333
Cd 9.312162765318472 16.420381690432826 12.69720209460841
Cd 13.29407101111845 19.8595923308791 11.765118937466786
Cd 11.941360809215746 17.304905191636298 10.754108560579942
Cd 17.369886058411478 15.581983967570585 13.16985164397835
Cd 10.798325168081801 19.13124004016274 13.162319090527516
Cd 13.067052654724076 11.871284946550505 12.745266224276433
Cd 10.477434300770414 13.584583864775569 12.901569889826423
Cd 18.10402359715925 10.182896193390349 12.662761244741146
Cd 15.881964440654675 9.975377251333693 14.467321963252685
Cd 12.420906407449271 16.46196478964229 13.83472003479454
Cd 15.929274861190262 13.048060797314445 14.76191701602785
Cd 8.217650130442069 12.868515717643865 15.23338342327724
Cd 14.042774272514997 18.966724004053667 14.63325109503308
Cd 19.466711759950233 16.768246938555514 15.397162366245032
Cd 17.994993452363296 11.195323740885463 16.443358645790088
Cd 14.999531587762633 15.929945211449494 15.615662047079956
Cd 16.959956665389054 18.202142120596477 14.630406540291013
Cd 9.966166121293302 15.218281807138958 15.617963540535289
Cd 15.8111318920622 19.69114470242147 17.064888912150675
Cd 10.157436995177523 18.181131970599203 15.882482350706464
Cd 10.521354806461654 11.04865844162819 14.806524383525595
Cd 12.785204691773998 17.590283671848503 17.091902962909213
Cd 20.240982568977884 11.128771912991201 14.411107782925574
Cd 13.28433243994002 10.788981316154905 15.637941571787438
Cd 12.757664678489173 13.787984815872386 15.254859234562593
Cd 19.108670090650342 13.8529939598882 14.958631945585418
Cd 11.823635369726995 14.821794978149809 17.909349244947094
Cd 17.21667322515817 16.957693404198707 17.620089724731958
Cd 16.742656642131752 11.639178625061836 19.439555330270284
Cd 13.504362286748345 19.65188889427451 19.186770576871737
Cd 19.68337525405027 15.07963972888567 17.820291032112348
Cd 21.030091075305574 12.31844271716932 17.077466001480683
Cd 16.818829221558868 13.97933566495042 17.4586170144556
Cd 14.092688715238594 12.720179073478192 18.050520392363993
Cd 15.405811761902184 9.899437497952649 17.48892835540519
Cd 19.428204545161424 12.683429166166801 19.578504793076203
Cd 14.50936965199211 15.711557229778077 18.808028861213266
Cd 15.999200459871691 18.199634260264375 20.09040033821175
