41
Energy = -16.70186031 eV
Cd 11.571740075341577 17.495764392556584 18.656595662531526
Cd 14.436807593038566 17.83971509651815 18.853306153606088
Cd 16.398627640019175 15.922497276398529 19.768895751859507
Cd 15.916092422763708 19.9518825089084 17.440016635165474
Cd 13.800721987490775 21.410347344377715 15.838492996550686
Cd 10.91126477688306 16.554605905644483 15.874114070210183
Cd 13.343768324618598 15.233391700791849 17.16925046904812
Cd 15.440151675273464 13.333709070262703 18.2496090782246
Cd 18.186213712824227 19.332743335057565 15.518328515754867
Cd 16.371996961492396 15.47422804966136 16.039459652839206
Cd 18.175479627841337 17.409240062640933 17.644872614877926
Cd 11.089596890199637 13.734255811754739 15.17718743345716
Cd 15.493141162157322 10.202880063120023 18.246835830342786
Cd 15.690358756266859 20.070271445545234 14.046851804418235
Cd 14.411207560446957 17.653416738213885 15.616313933591528
Cd 13.779629788934287 12.49564948626065 15.9386771839146
Cd 16.98095718835682 17.33245690779441 13.601257195935851
Cd 18.017194982517868 11.566893874427997 17.815694010892596
Cd 11.777878156829177 19.459983493539962 16.486363366934125
Cd 18.395808875950102 14.453269784610987 18.047527820109458
Cd 12.877462786675899 10.948099164722048 10.454907151166196
Cd 15.324130468380492 11.055840350060867 8.834326486528608
Cd 16.11474392926286 10.128555766007473 11.702801873512337
Cd 13.882479283586466 13.777432243324974 9.777988931770432
Cd 12.703105341733304 16.15004224599614 11.251454781914786
Cd 11.673763899603092 13.430485560431887 12.094043136695518
Cd 10.710601177675443 10.530867756916745 12.395764090846587
Cd 13.634055465895273 9.515678061126968 13.139045363998173
Cd 16.712173989598444 12.963839958151079 10.733873111235603
Cd 14.434043174829775 12.554436274623024 12.998614717322834
Cd 18.498723187247982 11.42039698301387 12.82316806127969
Cd 10.190803168217576 15.851606661208846 13.032890353634771
Cd 13.945696202486547 9.27550281199095 16.022010715357407
Cd 14.623635744358916 18.416909681440995 11.903562894493994
Cd 13.882041202719536 15.25365791989801 14.019031831643515
Cd 11.445826770668136 10.759094363489536 15.190679440430118
Cd 15.758183220461994 15.800206909407578 11.133178937231866
Cd 16.44455184993898 10.981356898837692 15.139661390444944
Cd 12.14468552235918 18.10846867922041 13.578244466558289
Cd 18.894226758951856 12.943711805767224 15.36904236419135
Cd 16.961265949587514 14.251444809760748 13.420896972962657
