48
Energy = -20.10329945 eV
Cd 14.671874025054269 14.896202362489722 8.188399605968034
Cd 16.717837914952312 14.186083316755552 10.102103311455735
Cd 9.270747605403894 15.417572939415518 10.483182332331644
Cd 13.95125055173584 18.7079465036595 10.920317524830518
Cd 16.249606228651054 16.76926859090214 11.346652366056663
Cd 12.114335129664216 15.251917511642853 9.44571009724767
Cd 14.225406690303057 13.437332863503523 11.51521896012664
Cd 11.034782653375489 18.030638519710813 10.527467403493887
Cd 11.229407075871697 13.750062559558122 12.250422905225822
Cd 18.95216545417871 12.829722207389782 11.079745483970159
Cd 13.168329502565244 16.153288520974055 12.238742005866271
Cd 16.35414321025798 11.898423213774127 13.080452424929335
Cd 18.64300543045957 17.661611896314323 13.092891716564788
Cd 20.04437553215469 11.968867055456693 13.574245077296542
Cd 19.895264089586195 14.979702192842645 12.96347434667797
Cd 13.138828206061751 11.754639553170662 13.679913272974593
Cd 9.105899990456276 17.33476557473497 12.827454599649316
Cd 15.137218782443185 10.245105085636583 15.333404433359238
Cd 16.744422642731138 14.821519958669418 13.59833823646219
Cd 10.64900491524771 12.873797933321711 15.057211306499422
Cd 16.289279896977686 19.5965777164262 12.513271431410177
Cd 19.12593421451292 20.687243197975675 12.163779007870154
Cd 13.915548732437824 14.508748860733446 14.81734073292165
Cd 10.953837136886149 15.827516585370901 14.51000776864069
Cd 18.999794359379255 15.614855980142119 15.899767955216111
Cd 18.4966160105529 18.69268003842607 15.88563532900232
Cd 11.968746144690064 15.825776030475335 17.26043570884899
Cd 13.131300448704788 12.005716456609395 16.734134047726336
Cd 13.419312841622052 17.583160185315414 14.76485964007834
Cd 18.070575364632873 10.498519247800127 15.162893792259585
Cd 16.02284111462489 16.429872842696824 16.021941659413507
Cd 15.60988151983349 19.5132256270988 15.336570786537465
Cd 10.538112724326263 13.09203395063568 17.959573616876128
Cd 16.348806166481932 13.108162922201966 16.06807633446069
Cd 19.606962379138114 12.75872644910184 16.421563230542183
Cd 14.006456167904771 18.12941342069011 17.64917436391917
Cd 16.599425209054186 19.633441767195112 18.09926018272252
Cd 15.03225134523577 10.153351378284091 18.33109647675672
Cd 17.94382501788343 10.87800196670558 18.224189723152715
Cd 14.61044822013503 14.555836029335495 17.95959128323673
Cd 11.471682609226791 14.421269989787803 20.357226588930637
Cd 15.731404623035965 17.39266584812477 20.17580404724336
Cd 12.697345438741984 17.073696292639745 20.12539247847682
Cd 13.098012069251206 12.04446053531863 19.828515528176155
Cd 18.080176910057368 17.071016564070828 18.42303088092098
Cd 17.864300887996535 14.198578901789931 18.51697898722282
Cd 14.503563362405895 14.768381067603865 21.023443340032077
Cd 16.068541510728497 12.471489845134105 19.963985724032423
