41
Energy = -16.59408929 eV
Cd 13.423008303947334 15.24774730008477 10.901641288262072
Cd 14.768169614700872 17.585844003022043 12.073454292497663
Cd 16.392496433757174 15.392614739042942 10.499304710530893
Cd 15.194556982221036 12.955355249056147 12.036735036898806
Cd 11.930893062253503 15.248342662391094 13.581544730597365
Cd 10.280879620112014 17.829214921934117 13.596405245987956
Cd 18.770113031310107 16.96669179346243 11.180336310951345
Cd 17.90972078342525 12.672450304358014 10.667184838106046
Cd 18.705176156098265 11.096472141840326 13.165047997515327
Cd 13.665402986391234 10.37001989129713 13.107064878599745
Cd 16.139826127788023 15.425113846610962 13.707764653000863
Cd 16.270823018473692 10.11964619107476 11.530743059697924
Cd 12.483178640884264 19.430224535063616 12.402692069912982
Cd 13.841507703253527 17.018279802310833 15.118840949417258
Cd 18.980707027982824 14.09566264674555 13.074121920638103
Cd 19.056806471878783 16.797484842825476 14.123389827035737
Cd 17.344894473897618 19.110004198681924 12.712904196353122
Cd 10.695856844078348 11.728124333500057 14.277712093320348
Cd 12.171578271615953 12.745361122715499 11.948382865061896
Cd 16.340626016906192 9.697973261769793 14.526498544955247
Cd 14.933168717432812 20.054638252275836 14.211703156273133
Cd 12.987619268932816 10.771599195114923 16.01225651788507
Cd 17.31109073120012 12.707333895157412 15.285838083204741
Cd 10.913725129444737 16.787609559784208 16.3047840704182
Cd 16.88203205872365 18.013959810767243 15.674077467004398
Cd 14.47989405528418 7.981236273132776 16.582022566906762
Cd 18.885827210914577 15.167192837940169 16.58682782875728
Cd 11.503309933056013 13.819775137152732 16.286187826887158
Cd 14.257639352047107 13.45066078143963 14.871958284083107
Cd 12.15404496360727 19.641659397135108 15.415583778172305
Cd 15.659531099721338 15.401527438182802 16.773897700705874
Cd 14.573643648322193 19.76994488524267 17.216683601895628
Cd 13.010631757608122 15.770568047271489 18.1453479474527
Cd 17.156882631301567 13.165645625125444 18.248528555852875
Cd 16.530131122732598 18.113143060274204 18.65405538752451
Cd 15.840272295474302 10.737119107247027 17.321027843740005
Cd 13.743187113465835 18.0877343100525 19.771966173301337
Cd 11.420886804881446 19.18356675545592 18.232789748259286
Cd 17.936539071763015 15.756819871692185 19.48299399792647
Cd 13.939074460189044 12.918926774769394 18.10050611300948
Cd 15.164461428024014 14.816525622101445 20.239008266502577
