48
Energy = -21.12156068 eV
Cd 11.644809172944342 13.251929667384173 11.086737511086156
Cd 14.27352931820469 14.46071340279051 10.065157061502143
Cd 14.399508252400095 17.32762714272738 9.205036946767546
Cd 11.464316865582399 15.983159986058357 9.597095541726398
Cd 12.105440010242111 18.841043230581825 10.176079001671859
Cd 15.363532690389288 14.521591306518852 13.48539870488754
Cd 14.205381440589196 11.974668203355177 11.736505064655109
Cd 16.908938543190548 13.382156518219022 10.937529746107609
Cd 16.702955634063354 11.115516874879424 12.979140782372875
Cd 16.578428828626063 16.396504480150625 11.131006768830705
Cd 14.774785246018173 18.524157946975574 12.06018351259824
Cd 13.025295568445488 15.989597434926912 12.464658504832789
Cd 9.460327887276941 12.612752438432054 13.215720006970853
Cd 9.36185202132678 15.081805524629392 11.630121240591377
Cd 14.161126037242381 11.107702871294261 14.651850829733664
Cd 12.378797721871056 13.481011398754971 14.11016733661403
Cd 19.33359346996919 12.578272518332966 12.361239142953234
Cd 16.63888002002963 17.646850082776293 14.171226193542138
Cd 12.351377745089723 19.89547369920802 12.961504194042499
Cd 16.697053578866022 9.659803032321408 15.817703148766144
Cd 14.320361701821545 19.38370451493538 15.110685477890792
Cd 18.420305239728403 15.280930316236397 13.30389670804677
Cd 21.31312361486667 12.059903909110217 14.44693292734329
Cd 10.497131103356983 17.571990291310648 12.541010720489815
Cd 9.503461478906914 11.401853703010977 15.79552162394386
Cd 19.365433793763557 17.104066171185806 15.565347544425359
Cd 17.271444426637842 13.121634120051512 15.203402185948342
Cd 10.117379397781626 15.454997096934363 14.764087047722915
Cd 16.34631347586532 15.76708190257153 16.39824349385991
Cd 11.471383221905649 13.774297962805944 17.037325937216906
Cd 13.581406747858106 16.27597761821493 15.320421113816542
Cd 15.833408970876272 18.841998306184003 17.571923258634243
Cd 19.171679792360585 9.947074955416786 14.192378161785067
Cd 20.3276566668689 14.415052059005562 15.798944979311928
Cd 11.221616768509643 18.36537934890119 15.307296574373133
Cd 14.204636110572304 9.932022753166077 17.40091577464136
Cd 18.762598323835782 18.613236266451654 17.914334321049605
Cd 14.45078035839372 13.481062647036145 16.48515127844414
Cd 11.55271582272009 10.879756212877359 17.847819054219944
Cd 10.845439710786266 16.52324063953572 17.65107084443956
Cd 12.924075117406131 18.64342837096786 17.722688971123578
Cd 19.321628298432902 11.579670600134435 16.806126994865657
Cd 16.967440970617112 16.6740499426402 19.364467934133543
Cd 13.41936275787684 12.455302490210189 19.4797816424029
Cd 13.857205002402047 15.910667465298316 18.48439207469283
Cd 18.375129767204534 14.287176587873212 18.142576868602276
Cd 16.440916580599332 11.854244998930223 18.07977453263047
Cd 15.79669528308706 14.078521546094162 19.93008127110003
