43
Energy = -16.92177384 eV
Cd 11.087958080551411 13.053567739873042 20.205767991292554
Cd 9.060927758157042 12.691375082492325 17.906104834392025
Cd 9.171275253101653 15.366015582017598 19.26143804520323
Cd 12.015147791159228 9.322267117488718 15.747704765899071
Cd 11.898517340394733 11.343386536256768 17.88327308985157
Cd 14.078940805332412 13.468648340925133 20.31733404683445
Cd 10.779602065381612 12.922512104282347 15.448932499226057
Cd 14.582665341486395 10.187855751064138 16.934616875686537
Cd 11.20490562887668 10.677094617637673 13.322954339452815
Cd 12.204545504561185 15.926104005435356 19.71541041993776
Cd 13.232921673637815 14.120446815584776 17.359014176841526
Cd 10.80803444134323 15.875878068847756 16.795185982435207
Cd 15.946252461873216 12.37089499162798 18.221937792332284
Cd 13.674162939108989 12.974972885433917 14.656281925148308
Cd 14.339442786805883 10.021975401888778 13.87313747813676
Cd 10.427273138598421 15.882121629065571 13.93997483056024
Cd 13.302693584193047 10.97844841678266 11.15250791430022
Cd 11.483830431289281 13.45269149125722 12.418742666491884
Cd 16.720383663706297 11.757453765979921 15.235220870707025
Cd 14.854318649899119 19.160791474696463 15.513763531775782
Cd 16.39146166174888 17.316885967668934 17.702630711314605
Cd 19.070243186422665 18.214608484237637 12.334499235014128
Cd 16.79718077072411 18.74708639918725 10.546917384541555
Cd 16.354745396082613 20.36348978850712 13.033366989214825
Cd 17.408603099516753 12.9939235104881 10.050518853131965
Cd 17.520246581844493 15.581607596732471 11.753454708935154
Cd 20.063517373492054 18.449444244647456 15.180992355733034
Cd 15.071086470778257 16.26463439940993 10.083438839698122
Cd 20.155572979241406 15.369753560966059 13.311382961981446
Cd 15.197905256550863 13.758274571550288 8.297923517152878
Cd 17.84987395094259 20.40109356583344 15.701998335580273
Cd 17.234740125530152 17.206315164553033 14.738780715566731
Cd 14.859655098338544 17.736011410246654 12.803749542501741
Cd 19.9613428708572 15.541235906233558 16.23555319790511
Cd 16.07062844231636 14.623875985989162 14.302648916751677
Cd 16.397914930103934 11.105070528551764 12.090414802964101
Cd 12.613394255501822 16.176147043819572 11.896140250054053
Cd 14.746748596302178 13.666850009434691 11.819014974786361
Cd 12.55954535244101 13.79405569000534 9.551124502914062
Cd 18.591387174011526 12.893571331028985 13.146539299188998
Cd 13.565535403922658 16.180807625593253 14.992756967158492
Cd 13.463889969756153 17.62890647230872 17.678388206220685
Cd 17.354659703343785 14.605526913596272 17.012138644412534
