41
Energy = -15.5969882 eV
Cd 15.029521685026433 16.707159668930647 9.866046408923864
Cd 16.198013631202564 11.865703024028917 10.844814223881796
Cd 13.85801117323008 12.44630843330409 9.163787868450147
Cd 12.939176171021357 15.158760523813612 8.511711438769773
Cd 16.728160644153515 14.737971123790347 11.328627839454358
Cd 10.244081109470013 15.589332090064604 9.689407240251516
Cd 13.358551776098345 18.269995704260655 11.77650684020194
Cd 18.347573229180874 10.248040545025788 12.134878353862796
Cd 10.493994457437987 17.675245821536457 11.834069336374576
Cd 13.678026400604065 15.252078667841605 12.286690666206391
Cd 18.250786578788738 15.023758089383879 13.770394569289433
Cd 19.86076362991715 12.659086305278459 13.177448065977506
Cd 15.369391994767112 13.158817519421373 13.673253578976354
Cd 12.644227846008821 9.374951394384091 12.565050961159628
Cd 10.626737839210923 14.600720517529998 12.463592645839107
Cd 12.68204007512079 12.394542211797601 11.901649599505667
Cd 13.69888589527781 19.820445347313704 14.174807111803144
Cd 15.48948747445626 10.078938494502168 13.336068403657642
Cd 17.81927354198169 17.142376411922747 15.797453396001977
Cd 9.702869249838768 19.023249313744532 14.36798959468222
Cd 10.542420824878683 13.530300786888594 15.232442654528207
Cd 16.032822967661772 19.44525240232292 15.84170470116089
Cd 13.657299628990513 14.497073002083642 15.828376578952783
Cd 17.66454772989964 11.530731831746746 15.025645902900703
Cd 11.84075099714685 19.31704914182854 16.45550877998402
Cd 14.830746645252551 9.796122286890348 16.226834327330504
Cd 14.983107965520373 16.87174653223759 14.46461090622017
Cd 12.80470228643857 11.624517657220466 14.829149536260498
Cd 11.442079913508586 16.467786501777965 14.962871315092741
Cd 19.747984351678625 12.468401796119936 16.955864198068838
Cd 19.506297760750694 15.364568152494112 17.417454915303825
Cd 16.584632922454254 14.388526044070677 16.363119695276705
Cd 15.719288887675138 18.045922126141182 18.39083079178796
Cd 12.988740007539102 16.77913320398889 17.786452100500348
Cd 13.357517274025447 19.822646083955657 18.97681336653219
Cd 16.47932406571823 11.670772459041395 17.82065475667153
Cd 17.084156111215112 15.722816800928783 19.343299922572115
Cd 13.420207453618767 12.087498424391589 17.748633468184483
Cd 12.324438405136194 14.341867426026264 19.406375910631343
Cd 18.27524662860178 12.940252573963749 19.758636420845324
Cd 15.188058757589936 13.553479546100283 19.994417596019446
