46
Energy = -21.5423138 eV
Cd 12.330504803657401 13.068793560783318 16.114015625379395
Cd 11.924756966269735 5.8194385530310875 9.841659756475224
Cd 10.62975950798172 16.753793839868848 9.888902205930549
Cd 13.0996806996602 10.220526585038561 16.100969641898782
Cd 10.06508683686415 13.00376936034782 6.461542374402078
Cd 15.477306765010784 13.825916277339022 11.873466585085803
Cd 13.829338762309172 7.081853900639891 11.849871273997252
Cd 14.691988150856268 10.660837305989903 8.136478432316698
Cd 10.340340679692389 14.610234594425235 14.428402171667713
Cd 16.744452983521118 11.9334791271957 9.856669841521475
Cd 11.274117889180468 11.291097604351089 9.085352071592252
Cd 9.340810204138077 7.913784455043509 13.593162412549136
Cd 9.13391458637884 6.869223221363625 10.676464441256435
Cd 13.525408594971076 8.126155228663489 8.938455244821794
Cd 14.643308557491379 9.326265573629552 13.58707147917617
Cd 7.927231770748589 13.215683166724858 13.617841677058
Cd 6.865845449776492 13.427242821131642 10.70699142395568
Cd 12.474428385620834 9.596928497326566 6.44189366103843
Cd 7.9434968168945375 10.321103507526502 14.416993559341206
Cd 7.0858541075462504 8.730069855293195 11.871599389992777
Cd 14.439662210272685 13.539564599792602 8.958755057706371
Cd 11.418050956684617 16.778038273751783 12.71664509663374
Cd 13.230576127708222 14.629970045835792 13.612344605430767
Cd 8.733491596245507 15.473302490486379 11.89507260867793
Cd 10.64075796467365 7.8754859835244755 8.133710890359215
Cd 11.175692873064596 13.424549140543686 11.292351858644155
Cd 5.81001746422922 10.63781389384011 9.874935053247967
Cd 10.250435569897572 9.453083825286514 16.104105417708368
Cd 11.148368468931054 5.771300573901996 12.673405679063688
Cd 13.423738323163489 15.695306265749467 10.701930862629265
Cd 9.48238699578766 12.301613846149433 16.11759382787058
Cd 9.025839290365983 14.453100819427144 8.975807960541093
Cd 11.905590267343182 14.709712680959708 8.161844488450498
Cd 5.779802101662094 11.409338313143165 12.707253018793146
Cd 9.1357975217332 11.175102256594252 11.286422846152684
Cd 12.234116543695174 7.9252838633239975 14.396918039020465
Cd 12.972301827708295 12.503688028546652 6.453404648059656
Cd 8.11201187699065 9.039649366313128 8.95481709600038
Cd 16.78662502776146 11.139887330315648 12.682538382158247
Cd 14.629388364367498 12.214794670615918 14.408882417732787
Cd 11.286809805620432 11.268628049488719 13.475097183935143
Cd 7.856770404679713 11.92518920648004 8.158630242786854
Cd 11.385062237367487 9.13546393911904 11.268094486581012
Cd 9.565841105130161 10.095188394585444 6.449857376055826
Cd 15.692411645310111 9.137555913084352 10.671013461654175
Cd 13.425050672818223 11.38484332002395 11.274055179308334
