43
Energy = -18.62545415 eV
Cd 14.223241969431394 10.333486813985761 10.941849393317357
Cd 14.035159408106185 16.459283796011984 11.343513002356167
Cd 11.671351510040632 14.67429976079708 10.923352431857333
Cd 16.759051032400624 17.416768331364416 11.385000184672895
Cd 14.348828530336661 13.458119799072497 10.789142089243082
Cd 17.105083700172035 14.535602419632319 10.59745776239044
Cd 10.525217217720138 14.141686726434415 13.592110963497042
Cd 11.835461971926708 11.7784572740768 12.037402932063598
Cd 19.091693752378532 13.355838751143933 12.471403010646474
Cd 16.69439692205143 11.711105963154733 11.86864801705432
Cd 19.119395972557783 16.281941364495534 12.956887218617748
Cd 16.233717746512554 15.141725657754536 13.699611707613677
Cd 15.676362059728513 20.651234875735497 15.247376383090788
Cd 11.256596486191237 17.278678168605687 12.322228200113422
Cd 14.179487560673852 18.731825604782955 13.366322871633825
Cd 13.248825276756785 15.54174764315477 14.31350751261458
Cd 11.71389401606799 11.846699756050267 15.053294306628876
Cd 18.147742453053773 19.598062391711604 16.740530908332964
Cd 20.354055639787465 14.203353386592447 14.988085616076079
Cd 17.45162316177494 18.665736670335637 13.923621712199152
Cd 14.426035101322098 12.648901332995075 13.81823082802222
Cd 9.728403111520599 16.674712684688213 14.99218704470286
Cd 11.392277632729227 19.00786714360929 14.729536525028063
Cd 19.370735746094695 17.11269041881995 15.773839631917077
Cd 15.40506557228516 17.192101816794708 15.771734915418017
Cd 11.030111592531398 14.628962351950051 16.618224628485404
Cd 15.58299252071033 19.509684524539427 18.219464846100582
Cd 17.344172974082888 12.449517394793238 14.829833247222629
Cd 20.669561836400483 15.415333579590715 17.772693345020237
Cd 13.17395878646261 20.16176700157509 16.698742105078235
Cd 17.215785503297084 15.027689003378237 16.64934912484209
Cd 11.770502302650314 12.198787426150425 17.991500169463425
Cd 14.193926622372958 10.917659908316175 16.47556366098081
Cd 18.26273798338117 17.491001841081037 18.861797786438228
Cd 14.437542993323106 14.043421367413977 16.588529248872202
Cd 12.64261056364307 17.157918832854218 17.131253706575507
Cd 19.46655889659487 12.668665549525148 17.458984362339415
Cd 16.722352809304752 11.690062798177332 17.674556210679423
Cd 15.22568112712206 16.712793764207106 18.851619340992713
Cd 12.962406533745467 14.734225656590619 19.182304572516287
Cd 15.952001702938889 13.957848839536169 19.57006537958698
Cd 18.714204734750794 14.672138964680792 19.83841261990274
Cd 14.192346754035947 11.673752432810634 19.493390264765132
