41
Energy = -16.35927627 eV
Cd 13.331248769264844 12.611273533836654 8.799461224005992
Cd 14.024575656655413 17.159008926072996 8.94717560010163
Cd 16.447772594565787 16.30342449108664 10.606535202528262
Cd 12.00494627283139 15.134396694784476 8.215761799537566
Cd 16.076411050538837 13.358373440394573 9.610118205344847
Cd 17.89279107667831 11.360772901010781 10.751428966427106
Cd 11.279320191642661 16.231088640628876 10.878215256292217
Cd 12.740975863049446 11.831454174874546 11.51121520564754
Cd 13.778337862173412 18.003020091560252 11.842668877224817
Cd 14.088247622857116 14.711823602590043 11.683503048242825
Cd 16.735084024301777 14.165028658068417 12.877587726271614
Cd 13.77434858035979 19.991312031903405 14.050782339869539
Cd 15.379086193059107 11.236481938741512 12.69729338971622
Cd 11.478160183688837 14.098931060382881 13.071858457693553
Cd 18.14164983497961 11.610692600847209 13.724015692105786
Cd 11.5703982729044 17.05652430206679 13.785197235315104
Cd 14.6497789130658 16.105832754631525 14.341247842400339
Cd 16.431284893918065 18.559812286184744 13.137567923251542
Cd 18.660357238223554 16.643018675514714 12.545029597470908
Cd 18.558438592497936 11.49963607735576 16.57262410638426
Cd 15.396408175398566 18.87677335353082 16.207699606386143
Cd 15.76219648028282 10.796045955865653 15.768150540803214
Cd 18.88397585433332 14.237552534362441 15.070765701140184
Cd 12.451108896226486 18.202872480517673 16.270461374096417
Cd 12.37804030955688 14.631112120500417 15.867640438172817
Cd 12.98518006765287 11.89253579588538 14.630298025744997
Cd 17.502875656504862 16.840373902477335 15.448011738491221
Cd 18.35522441684729 12.125958699161352 19.318755253293457
Cd 14.559451837133857 16.10354130634252 17.549450857350646
Cd 17.874458079784468 15.031479177335466 18.031721747168547
Cd 15.697810372868883 13.795003232267392 15.826695827640329
Cd 12.048557989708403 17.859582625345357 19.232337694192495
Cd 10.452298973174603 15.802479761823845 17.90619250389332
Cd 15.536590041699288 13.262796524890538 18.864710312329642
Cd 13.417296962590953 11.425886667174488 17.55799031105785
Cd 17.145411054178783 17.882425725986494 18.34064604560476
Cd 12.589382894503617 13.97376734179735 18.91197931460534
Cd 17.400604577568508 16.74856145451353 21.07172917369523
Cd 17.45197241448997 13.91834656325716 21.428345992756896
Cd 14.75897785150218 17.9747223086496 20.146741360657856
Cd 14.47568672566732 15.1129989047099 21.067111804016992
