44
Energy = -19.49628015 eV
Cd 10.389137361673185 12.231724553720849 6.570298714251288
Cd 12.706076604876191 10.493035791525127 7.21320604749983
Cd 9.835269241382754 9.430987258677568 7.50789680764226
Cd 13.100146664985775 13.44948373031705 7.110243073232839
Cd 7.823032906291522 12.010090512457893 7.875817593679391
Cd 10.373127674321506 14.655174057405732 8.194280570455883
Cd 12.382089011035053 7.648760254377573 7.776596739829978
Cd 15.397284988890492 11.63527585799217 7.775957027712022
Cd 12.264972047912561 9.830057778312952 10.50543407756895
Cd 14.873927241518576 8.874560307110515 8.91426019595955
Cd 13.110975464786016 15.79893411639676 8.819094539030873
Cd 6.538850341889391 11.880924139484243 10.483289040239029
Cd 10.120417712255817 7.27132477605729 9.689518904616168
Cd 15.546622272852838 14.163000772827647 9.382501026455802
Cd 8.074089303060854 9.418578006160773 9.935663202987577
Cd 10.126022140467487 11.778297797720935 10.044062687276565
Cd 8.325257894694236 14.239054653435927 10.413170686025815
Cd 12.931321779638385 12.661869383940525 10.245679893155971
Cd 12.991347726446095 6.6825192917506815 10.518033699474127
Cd 14.903425653276086 8.435506339133504 11.954646522349234
Cd 15.673487278955692 11.18787841597224 10.718533837553696
Cd 13.901999358826505 16.28707298571928 11.588052975595266
Cd 8.934102210797661 15.420586614508629 13.150215993325652
Cd 11.146028989322721 15.127549626736126 11.164554368399893
Cd 12.240202831226222 7.074181342757204 13.365974178430006
Cd 15.692414921312643 13.838991854251837 12.333831654167565
Cd 6.9003938809662015 13.321334509227455 13.060845584228726
Cd 12.176817644801012 10.415587316002034 13.40883920109588
Cd 7.557471136500556 10.351862860328396 12.83437858300757
Cd 9.900221235432303 8.607743383375785 12.355604113826224
Cd 9.960517919645282 12.33954243007391 12.943099405942903
Cd 12.740570054281976 13.274818645029395 13.13505977129367
Cd 14.372342387753637 15.840902069753687 14.387123218573459
Cd 15.341705600793103 10.928787933054782 13.645216964268226
Cd 11.487955408071704 16.341221529131218 14.246792957582334
Cd 14.416367069605252 8.38728846144427 14.921090512107213
Cd 9.65785542433135 14.259425052876542 15.742516768077303
Cd 15.3298430221883 13.260582503597647 15.365991175118294
Cd 7.798192379289756 11.946824822296218 15.521769928706822
Cd 11.736811139830863 8.506200224524429 16.08131652675873
Cd 12.56608538442078 13.968192976368591 16.221423302893037
Cd 9.06931518122272 9.26834721928923 15.260383432653414
Cd 13.751096384314087 10.94395007136218 16.374361140669766
Cd 10.825928246916423 11.503086896572915 16.234492479341434
