46
Energy = -20.15901125 eV
Cd 12.956166140632956 11.26296154831306 12.33961526960342
Cd 15.429130377279385 12.922971548362218 13.51111195220869
Cd 15.526159458322828 8.267311297239752 10.785200191623856
Cd 13.750248978458918 7.013803467599234 12.694532721247656
Cd 15.429230463526704 9.603231020910583 13.51096023906895
Cd 12.780236308595974 9.81803329638818 9.56027482921537
Cd 15.765168391208727 11.263074396724983 10.86240681742501
Cd 13.2111180381219 6.885282924625717 9.147495847476717
Cd 15.455387176288685 9.575023423671746 8.148922477923188
Cd 15.525931416870275 14.259366960918113 10.785712680293706
Cd 13.75009604805588 15.512760933535615 12.69499313286196
Cd 12.781672224538596 12.708994667039141 9.560171083083643
Cd 15.458105496726406 12.950618711864747 8.150295339872768
Cd 11.263182675871223 16.682879994413884 11.185456243574047
Cd 11.263208212458244 14.26191314742712 7.221002839400661
Cd 8.522876386037819 11.261116794679364 6.257258777969269
Cd 9.315403334704365 6.884593123341212 9.147223765154864
Cd 11.263190262922246 11.263133440160248 6.970323210094547
Cd 11.263114128625347 8.264373134363138 7.220996349253064
Cd 14.003513026079784 11.2652078322187 6.2572757180295335
Cd 11.26313770696351 5.843430638844306 11.1855069018865
Cd 13.210932597460463 15.641717611272862 9.147189377250701
Cd 11.263392500822487 6.311800035396403 14.295529612724797
Cd 9.744678184812939 9.817320628980907 9.560164553649997
Cd 11.26294342103949 8.889267373498312 12.016976902902003
Cd 8.776236600983555 7.013581427194356 12.695020297271473
Cd 7.068278900267505 9.575712733383893 8.150255492941703
Cd 7.097192866601441 9.603378726566161 13.511099610514627
Cd 7.0004113677222115 8.266983809973688 10.785705790974484
Cd 7.070962531905463 12.951271653059926 8.148873080509208
Cd 11.26315199179796 11.263187155280153 15.667162043764662
Cd 8.776061412741111 15.512515533851344 12.694493664968677
Cd 9.701154813655782 13.718443341176776 15.026924768374558
Cd 14.342197831995236 11.263078412382086 15.804876699408025
Cd 12.825190879518939 13.718585913839634 15.0272552013361
Cd 8.184102851274371 11.263267741776401 15.804850694568792
Cd 12.82513100392648 8.807895781088318 15.026963241267223
Cd 9.570155204946309 11.263373179846173 12.339612286247453
Cd 9.315192481466731 15.641026788694493 9.147462051970837
Cd 9.746099267795998 12.708278572408865 9.560267939898068
Cd 9.701138218042741 8.807780116343478 15.027253575919135
Cd 7.000161880283457 14.259028112298786 10.78514677130978
Cd 6.761166627989981 11.263277908633027 10.86236600805529
Cd 7.097051469173538 12.923110155089402 13.510921662865117
Cd 11.262915199275097 16.21452908356759 14.295502527461514
Cd 11.263390781755849 13.637072762209263 12.016956686806008
