40
Energy = -15.93968294 eV
Cd 13.808045045376156 11.137787613478944 10.140049231658157
Cd 16.4201158907579 12.650409850675743 10.71106442177694
Cd 13.959545344370431 14.418449897125456 11.249862250753276
Cd 15.850651652592207 15.172038197213944 9.018986247710414
Cd 13.16011779183445 17.418338416820554 11.805764572034294
Cd 11.40994644994234 12.58928941712611 10.909208642107975
Cd 17.903107017148898 16.572712409899 10.61232155791093
Cd 18.10767227133619 11.127787580522314 12.630127832131146
Cd 10.992784626564246 15.505850927666986 11.176961250421286
Cd 15.769146746968836 16.30738760121385 12.96971359598368
Cd 18.25340185859238 14.103359065446758 12.644522140177441
Cd 13.651674866053806 18.43681829857506 14.57543471929072
Cd 18.832053670952583 16.816595942240184 13.537428480939202
Cd 12.707072231514445 11.762444684395868 13.622918858903056
Cd 17.057225677918616 9.125384981207386 14.577980271023396
Cd 10.4884815741917 13.740493749396789 13.700587144936588
Cd 15.009346746551742 10.157154435531975 12.625091274812739
Cd 17.081980854617644 20.623617600381788 17.010919572535816
Cd 13.425091931120772 14.921452479695875 14.464538844110898
Cd 11.066804152886055 16.77489893040526 13.99485745789697
Cd 16.529420498030017 19.14278184878736 14.164913436774569
Cd 15.661476101638083 13.11892267446111 13.9151463378941
Cd 13.933465730562522 14.690711121875601 17.371384694911924
Cd 18.584997001134905 14.690840057374984 15.838869803087862
Cd 11.799419606740566 12.739325510129664 16.353483411859262
Cd 12.173286657456384 17.07599629232124 16.85414360600416
Cd 18.92406469357373 18.392617006794406 15.898065204479249
Cd 14.655908922488548 10.719020227413901 15.666145291068977
Cd 16.036693340579827 16.38820659908919 16.00944684261815
Cd 11.117435547021172 14.807245285949405 18.546072404681496
Cd 18.519344614183648 11.659243544901578 15.559882057292103
Cd 14.36316800673891 21.10757968222273 15.937160287857143
Cd 9.572442818955505 15.242187240729503 16.099339681271683
Cd 14.519372833286464 18.679991221976064 17.907413427989358
Cd 17.539181877802598 17.997972288160355 18.404213273883148
Cd 14.979447674721694 13.22226125594406 20.04960582202058
Cd 15.953615109950555 15.857573585781465 19.370769225866923
Cd 13.625131428026389 11.190574177953378 18.33773298450257
Cd 12.052575158843396 12.804183801379684 20.4044626648445
Cd 16.307590202491674 12.912798723251806 17.135715399495467
