43
Energy = -18.40027398 eV
Cd 13.375741247389817 15.21167660828601 10.762480679967995
Cd 14.3141078056801 18.1136307547208 11.175694707660272
Cd 15.547273323018345 13.133125853817498 10.731279000180647
Cd 12.192752541661127 19.877907634737777 12.75783726296776
Cd 15.219626999841823 20.462104254092864 12.823392939235898
Cd 11.867083833919155 16.924286009206234 12.678546674236008
Cd 16.34809619847013 15.933735567124165 11.27142922449962
Cd 12.777794427910194 12.31547293529573 11.455687187607346
Cd 17.377987008219716 18.69938899671102 11.734415336219051
Cd 17.95678624983085 11.247113667691238 14.757773130093575
Cd 15.285386299473714 9.876637611116555 15.843309350729106
Cd 12.973035404463516 8.10281239135556 15.07195308165175
Cd 15.17931519596974 11.754021094040054 13.361605808058915
Cd 11.368489728089369 14.120200200041555 13.31315036545096
Cd 12.316497956290247 11.254257371225961 14.247566911194358
Cd 17.5461508715307 13.717801384214583 13.038753065211234
Cd 17.31687546821744 19.714165896222685 14.914561799097047
Cd 19.65035292083347 18.398313004934813 13.61263059266648
Cd 19.915028882649327 15.48132988805951 13.07071958492742
Cd 14.144701464859665 17.794947658046233 14.530307327721173
Cd 11.681453539823409 20.479850778923915 15.545632348158431
Cd 14.41385569432396 14.751251531619628 13.752193442620612
Cd 20.821432366675925 15.213878940441123 15.913412854683255
Cd 17.74060536814582 14.531417940293816 16.056080557912296
Cd 14.629373660602537 20.65682539357678 15.765652494733738
Cd 12.544259770000247 10.664295408389114 17.118302412748285
Cd 18.826701258992884 17.463618071653194 16.49916365920039
Cd 12.828620210931852 18.68794681282215 17.624554571056485
Cd 11.542462982007423 16.698443795628773 15.726265610048877
Cd 16.74658541500265 16.573861428408886 14.197440156534707
Cd 15.19682606506577 12.976313614944841 16.12367801911539
Cd 14.780887722851517 15.854063241908179 16.648210639264285
Cd 19.85739505762112 12.45152418869932 16.900987810235243
Cd 17.603945925122776 10.475105737918243 17.670500017803747
Cd 16.013363220403686 18.690102866990955 17.49716572801974
Cd 14.962850837238873 11.396112312824972 18.843085409421352
Cd 12.315120393570545 13.850038418831943 16.137687270375825
Cd 17.20758274571425 16.244749716430185 18.723219786553077
Cd 12.119724671209433 15.874179978541031 18.687108578638068
Cd 17.501995482432747 13.244713513667062 18.79789844427314
Cd 14.840472081207075 14.46414642730485 19.513346985028345
Cd 12.338388582999405 12.874165346446116 19.044595694110697
Cd 14.485301864996947 17.42275449805034 19.73301222534585
