48
Energy = -21.05100927 eV
Cd 13.70550447033307 17.760972428717015 11.08186624755648
Cd 16.391320951775825 11.586603167818541 10.31994372469587
Cd 16.46182774396372 16.990107007499 10.661273660554388
Cd 17.190192409061282 14.335361104606969 9.4311862571658
Cd 14.543482410604149 11.822280724577551 12.613970586840797
Cd 14.500083684804453 14.497740123987127 10.715323464690732
Cd 13.907952124812741 19.766344371509387 13.396089983974303
Cd 11.80681332056831 15.314051742107857 11.206869654935886
Cd 11.736272926027961 12.641971644204613 13.36390572793822
Cd 18.958067851895436 15.616777201766444 11.693212069159351
Cd 19.143389478779238 12.66471715380996 10.989290451656865
Cd 11.640049367366137 17.597895232302562 13.289669853247087
Cd 19.829636471883248 13.50588289068457 13.81017336381244
Cd 16.435711694517178 14.30983821043398 13.063386262044933
Cd 13.390756971259574 10.384226288123903 14.940658931675948
Cd 19.798584940422845 16.509307462521065 14.399788214137297
Cd 18.140344937080467 18.467701300380103 12.59843748393743
Cd 9.409936025593387 13.237105498756156 15.33537058044673
Cd 10.481694808712088 16.31909396475199 15.875094665338787
Cd 9.756427050823955 15.161865160685071 13.183522189566496
Cd 15.632914280885824 17.151260884180022 13.754822710629679
Cd 13.502260406400264 15.150496145263357 13.908320152875048
Cd 17.67970035456514 11.335110224984685 13.231135440095116
Cd 17.23617606827739 15.358660256802985 15.759075133758785
Cd 20.217159765841977 14.359533382175208 16.793296102466105
Cd 16.285778700956044 9.875575036948472 15.354894513871427
Cd 20.25647954592395 17.208310547261217 17.354691390559676
Cd 14.430904772047766 15.88802090617678 16.801197412501143
Cd 16.58678626407312 20.743525080016983 14.017788503380597
Cd 10.294208477811244 14.466180570215643 18.72198424083921
Cd 18.737140648500763 19.159065981041906 15.516787342906877
Cd 15.14396016081404 13.08495801983884 15.519624907646831
Cd 11.04464883732185 10.925866759373484 16.55612070422156
Cd 16.068382233044066 18.391716133777518 16.51392441396036
Cd 8.809851944498401 12.104404156665492 18.078808816982065
Cd 12.899938113039495 18.358171723871433 15.847693943976168
Cd 12.2811725873469 13.86589832553537 16.334209313404273
Cd 18.21177254254568 12.30260246519492 16.13088838424777
Cd 17.7831390678793 16.269075711968807 18.6746638722366
Cd 16.125899352374446 13.811029362395194 18.528100882580844
Cd 16.453194712399025 10.886411167310875 18.09891565868564
Cd 15.04286378362239 16.470585781922086 20.048573173542888
Cd 13.858514768970524 18.98386021217796 18.649175146341843
Cd 13.610738421848144 11.696796544157987 17.99445850131466
Cd 19.247895710309315 19.747718539443166 18.64198390058724
Cd 16.61663875076876 18.997449538489757 19.511774759371637
Cd 13.186201392578317 14.272676536545022 19.47041669762615
Cd 11.819631651555046 16.937200283506403 18.509643562498056
