47
Energy = -20.02600131 eV
Cd 16.01112130737166 15.0302289982612 9.142813562159116
Cd 17.13680782032007 17.340834229852824 11.092315478489791
Cd 18.960953031440525 15.242897855544332 9.782443330036156
Cd 14.448921230458188 17.60075805168262 9.740640486024862
Cd 14.647779465067924 15.26154606914102 11.984958054750946
Cd 15.33074100366515 19.629310754336146 12.060529808949864
Cd 16.090455543846392 12.7205186377335 11.125373362757257
Cd 18.794999587913416 11.510222840859793 12.135192278064975
Cd 20.547878370901515 13.955172697949617 11.907734958586742
Cd 16.02996791864781 17.03459976899763 14.172428589503824
Cd 19.86021507096132 16.959689206410207 12.264965775499798
Cd 12.058795866499306 15.086940639297628 13.438455577729952
Cd 12.876131495883902 17.826938373464465 12.267386921120135
Cd 13.581382927443991 12.378675101989048 12.798641901223794
Cd 11.343381234074625 12.476908674936194 14.74937004717775
Cd 20.23562555562054 15.280122567236312 14.765344541075265
Cd 17.524276357612713 14.666193490395505 13.003155573918672
Cd 11.113103437066533 17.626866435244946 14.777131642617446
Cd 16.57909483448116 20.27657699892288 14.90557906384265
Cd 18.40956624952303 19.60920891510256 12.679610611715397
Cd 14.062937683724414 11.420479659133848 15.87092430386635
Cd 16.41447285473411 11.568459915898432 13.971556953659496
Cd 13.795888885101563 19.07793466645488 14.827757842560958
Cd 15.071007281937788 14.29142150034104 15.014361129462138
Cd 11.5659691774277 15.062708618530868 16.404793382232818
Cd 20.590142390665214 12.30115737214736 14.406611251408481
Cd 17.433903011599863 16.06501186159076 17.198970469158066
Cd 18.89163239239357 17.871615954908123 15.1806917633896
Cd 8.641783224839227 18.718430852025303 16.102928354973965
Cd 18.030137869268675 13.526783573664686 15.820718012579075
Cd 11.359570144929526 12.098838600516636 17.672478278099106
Cd 9.877245807406126 16.880086455624898 18.202311399712247
Cd 13.527395311063941 10.269658741907616 18.6677656362828
Cd 14.624623955033751 19.85173322209941 17.636933376549315
Cd 14.057194788822809 13.828949050405889 17.719795243888687
Cd 14.276511703169016 16.679908740680347 16.686484464423383
Cd 11.797155692612463 19.001370204441223 17.432617740533733
Cd 17.038377114337433 13.512307423742481 18.640258759978657
Cd 17.44981185180093 19.079786636470253 17.553962214778995
Cd 16.37659737339838 10.619679939065922 17.614025820135204
Cd 15.691799795021899 17.37551680677015 19.41447973419288
Cd 18.752375577488245 10.597666917351937 16.007612908779862
Cd 12.686784316178123 12.826484416775198 20.33292269739985
Cd 10.315697501376123 14.363472139015773 19.602397976460892
Cd 12.723941475587294 16.381563890646405 19.416351874532868
Cd 15.154610889829193 14.758141104616616 20.630350112410056
Cd 15.467208849183205 11.712596655545475 20.43184196103607
