47
Energy = -19.78711869 eV
Cd 14.450237741190891 17.494324498206627 10.45916554719229
Cd 16.11201763985944 9.655317521777818 10.20616934868345
Cd 16.242047067783645 12.580019781987236 9.184622799584101
Cd 12.122673400074124 12.912274245340484 11.930937383854992
Cd 14.471297916889423 14.559586577099676 10.34723439117856
Cd 18.581242014035812 8.818486202648833 8.545105669864286
Cd 16.32945326648455 16.678046268898633 12.853460197636782
Cd 13.594488979342076 11.208148205928024 10.062641337957498
Cd 19.010827964761376 11.650962338612814 9.640850361075268
Cd 12.00859527449908 18.577126966945475 12.04970864384564
Cd 14.285917380005682 11.53292597253515 13.478870238129364
Cd 11.909835833270138 15.775285784497731 11.186368498215513
Cd 17.468270958011445 16.66388028174321 15.780077471192774
Cd 16.485991612293226 13.595227278353375 12.314103292754195
Cd 17.05781087841249 10.539988671278865 12.836118523787784
Cd 14.993560079014827 19.64645973212288 12.344107899722564
Cd 13.95086956587199 14.752931512307411 13.71052424711947
Cd 19.47655833650559 12.453722850577568 12.342569429989835
Cd 12.546518698256797 21.14088578923678 13.45892134703559
Cd 17.48004252035492 19.46359981237888 13.919891587333202
Cd 18.80140980634171 14.707143950091776 14.092859324846847
Cd 13.88201190425879 17.679392821213735 14.495439319874707
Cd 11.206001627971414 16.26648665660987 14.037606688979746
Cd 16.322730155776078 13.48934075830633 15.434340805995978
Cd 18.85601912493487 11.619975510539446 15.080693343276154
Cd 16.926857828471302 19.422822468887976 16.880441865931687
Cd 16.113669650699425 10.17443799173928 15.625948299366465
Cd 11.228272281083509 12.048764856564631 14.573216770214485
Cd 10.8643809426443 14.46118545170706 16.367843933930335
Cd 10.104791823296294 19.183410006519487 14.309061625630683
Cd 14.832785787644633 20.659515779998056 15.288245097003532
Cd 13.54506955575904 12.962271660912867 16.40857657666637
Cd 10.856466443487095 17.581404421202283 16.810306530243817
Cd 17.17309442662322 14.665244697733785 18.347094246859047
Cd 13.182889245252605 9.866846040551648 16.177648885810786
Cd 14.647578718718224 15.690645090740066 16.60657907863551
Cd 15.222624225849842 11.15543724817572 18.374212311867684
Cd 18.03061429524063 11.932891531558424 17.83353760885028
Cd 10.485811128237334 10.79610931807337 17.20803599732885
Cd 17.575309837009307 17.53219688839088 18.950745996353263
Cd 11.969929726887251 20.34168653531879 16.351917228797138
Cd 13.943983463219478 18.4755668132419 17.49253752685691
Cd 11.486294748836935 12.958979770922447 19.07990470956685
Cd 14.920869351572463 16.772840748340617 19.878955560737037
Cd 12.256535549689836 15.909991788500212 18.8137390299061
Cd 14.403838083809996 13.806464968721425 19.461383633458464
Cd 12.606800923666826 10.16464371685794 19.39257757075773
