49
Energy = -21.13282679 eV
Cd 13.798049810319453 13.935229235187668 9.285106696474505
Cd 11.918571033586218 12.61499002991162 11.331251844775084
Cd 16.76018039094152 13.929759882696683 9.48385876573923
Cd 19.150174557462073 15.784027178340821 9.68687800146459
Cd 14.491134812245578 16.58894533054969 10.338774552241174
Cd 15.113246153319597 11.349236648956168 9.829399415498822
Cd 14.493667130915314 19.250064705096335 11.797488105322115
Cd 17.07537683222742 18.102795479863154 10.541800459249083
Cd 11.574913560918462 15.453757270132463 10.764165720475171
Cd 13.817870863661947 10.285184037110199 12.313966139147716
Cd 14.512798894183828 13.660677842765617 12.616094174583754
Cd 11.570802553474222 18.11714457470838 11.68166230497384
Cd 11.41201862436088 11.145287792173539 13.796545506042714
Cd 16.803730240542308 15.373631460620988 12.231367156630153
Cd 11.758396521290816 14.477916688082441 13.866365320740877
Cd 16.811501470993484 18.436973899295815 13.76050041597455
Cd 18.772017343299773 13.008216446042207 11.566393233721762
Cd 14.115411693158224 16.630080904306975 13.53362354268696
Cd 16.74759966888545 10.940293611662447 12.323056990411825
Cd 19.248639431541495 17.178381453153065 12.472395980395929
Cd 18.76874447489029 16.92415887821605 15.585787243850033
Cd 14.38469902816764 11.8863987264008 14.931406927983426
Cd 12.22626846568435 20.217373837639194 13.572776948456944
Cd 17.911788430129736 12.46306170727474 14.655892380332029
Cd 19.809980650917137 14.630843771250321 13.906673115572241
Cd 16.850367605253584 9.748771817183316 15.109856884352775
Cd 11.785542690591154 20.100842218980638 16.53128272155415
Cd 14.522005771185277 19.569455531368938 15.30790412147212
Cd 11.173099487105258 17.465721294344615 14.635117979528781
Cd 9.747340634037625 15.527508760763181 16.34591903346123
Cd 17.529821824579376 11.446363594745469 17.6462548055817
Cd 12.126106557900618 10.687517858724492 16.691039094083578
Cd 16.145374076144808 14.851419776700528 15.0475576523603
Cd 16.668859799992838 16.215467584009232 17.63649901538094
Cd 14.940291628836329 9.779341793372431 17.31125308099727
Cd 13.538210869672184 15.916268943098334 16.328816269809103
Cd 14.917809092644063 13.429099058560585 17.35909457737884
Cd 18.915787319527308 14.170164488840456 16.885981631576747
Cd 10.870249866716275 17.77781386969357 17.90250674821818
Cd 17.24022816291185 13.874978543661591 19.449378357959354
Cd 17.00035009059252 19.032753390229587 16.847233259479225
Cd 10.012953517495012 12.724851432940657 15.795001932563288
Cd 13.212128214701194 11.054015982515672 19.422002270444896
Cd 16.073514322359916 11.131838768985974 20.33521111510446
Cd 11.92483193345086 13.572553825606343 17.95339487388287
Cd 14.261074596778544 18.28353205360257 18.110123597001206
Cd 15.445372152410513 16.29962955193583 20.353279326618697
Cd 12.614991072813755 16.046325129815433 19.42727221708771
Cd 14.162806937291558 13.636034200994958 20.4214893534695
