43
Energy = -17.62286569 eV
Cd 13.554684849289158 14.094843633556895 11.536341754470236
Cd 14.148490391554134 19.309373009088617 10.958655815382782
Cd 15.363041369546579 16.58321116404644 11.016130286928014
Cd 12.208836484681136 16.849038161357253 11.191367701237318
Cd 16.52135625990301 20.787438294629396 11.944780432801425
Cd 16.669528183739168 13.928971500784574 12.017237043882309
Cd 13.200745562128168 15.553750901142827 14.06530339047613
Cd 18.099321688030003 16.61336206871233 12.169609697777425
Cd 18.4402258031781 19.309332138796375 13.436067089849528
Cd 18.922696784359434 14.145044666899949 14.026268473940512
Cd 14.71867891266751 11.597877496539281 12.549468118680958
Cd 16.279444514354736 15.66951507149892 14.742847046525975
Cd 15.186506788889371 9.808530359828541 14.790379242425033
Cd 11.883557042083726 19.447110356488878 12.97186829110754
Cd 19.83463170156239 17.034861355697082 14.660048390818352
Cd 14.88764154059011 18.047702722364843 13.71098897407374
Cd 10.62554292313354 14.155561407961919 14.52939285674103
Cd 17.670322622032682 11.344879301086358 13.48950369812278
Cd 16.57869439644019 12.934372998289605 15.952160440441032
Cd 13.836994077262403 21.85512311274895 12.905407504220284
Cd 10.182346355187676 17.088420338559235 13.44968188513507
Cd 12.357811741259656 18.04392798174969 15.687399786676846
Cd 14.260536783996631 20.53509205592229 15.539628984691085
Cd 15.493142308938372 10.412192894881532 17.695645164268257
Cd 16.830521246104883 18.8420999548478 15.873136179803664
Cd 13.435664106228595 12.54759587311034 15.204535162927883
Cd 16.917640971188156 16.534773158675176 17.703060042400878
Cd 19.695574264517994 9.598291931131842 14.931408637379914
Cd 14.085139131055813 15.804848098282703 16.875646506948165
Cd 9.415096489281169 16.50483171214893 16.217874265728934
Cd 19.525885225895063 15.237760328735757 16.924690977272846
Cd 17.392543392610246 8.214130058717638 16.16691510884061
Cd 14.488148481524714 13.114668031040324 18.319457936345056
Cd 14.502809826431962 18.64676575206931 17.84571668138759
Cd 11.403064794800578 16.9373129457419 18.34371346203847
Cd 20.367922450249903 12.333599338471872 15.893416549181083
Cd 11.661982918252448 13.970403660848095 17.274069115525275
Cd 18.461743257352996 10.96512299110686 17.827966790885654
Cd 12.518695563242655 14.721599790720253 20.035676187952546
Cd 13.571502098510756 17.563671465411456 20.41497962284575
Cd 17.60503085398666 13.796326904590792 18.883987298684207
Cd 15.503727699582463 15.347076588579823 20.232342329762382
Cd 20.56308515453338 13.040145433296354 18.86578208357308
