49
Energy = -21.9426184 eV
Cd 18.370134437026802 15.819276308198894 10.819278204881464
Cd 12.040797187393188 15.94876906404383 10.929312294655869
Cd 14.401363687745231 17.73957610912082 10.668175591951172
Cd 17.121034094851414 13.05806819249242 10.155970158615222
Cd 14.901985573743863 14.882018556824006 10.67236511783384
Cd 19.82470927739545 13.120476949004892 11.355508416572425
Cd 10.020692066965003 14.076686983266029 12.717456422169375
Cd 17.182368679150166 18.357854785736528 11.54455879557879
Cd 12.273734734520845 18.37992829214516 12.880506070497892
Cd 12.24062886218568 13.007092601096582 10.962541916036798
Cd 9.099185130272588 15.890852570082643 15.13712390148652
Cd 20.496927523202423 15.304259720175265 13.163694574768183
Cd 14.750331585599215 11.482646135109215 10.97571150713908
Cd 15.07057884611967 16.630183200053278 13.619128934076265
Cd 19.323650623963857 12.767108245572482 14.525374580288727
Cd 14.891914762253506 19.883096233773625 12.663184307973076
Cd 12.346469417555305 15.452704058044734 14.173861421596047
Cd 9.633307626761546 17.11607661647985 12.548751048913063
Cd 18.58266886811551 17.444752683431958 13.997687918310465
Cd 11.598181924186896 11.64927422004013 13.5606594625221
Cd 14.25479114904513 10.318216216716042 13.767280756514468
Cd 17.242266854038572 11.381191176547276 12.725031609570687
Cd 10.517003876668797 13.29587740498889 15.760399235776541
Cd 14.33224694020303 13.467801712820254 13.464318183926384
Cd 16.330614105163967 12.45419818445362 15.563025121519095
Cd 17.126594994729487 14.50920491059075 13.265307950683924
Cd 12.560790634994696 10.89164258116312 16.287845626772402
Cd 19.647183328663285 15.446298958847748 16.063116420911676
Cd 13.830968384926743 16.865469849778435 16.375979030332545
Cd 16.885427638719314 9.220087830332341 14.72082288833976
Cd 13.574341714185037 19.85299587029607 15.295153819484344
Cd 18.714106970305473 9.841488897846867 16.886064899376656
Cd 13.728717463073728 13.840028515654238 16.38637025989311
Cd 16.55622725392872 19.257247458482624 15.020710844211518
Cd 11.001080372944697 18.207133647017713 15.629152423975967
Cd 11.120148295050802 15.80716011206324 17.550001967098623
Cd 16.366241153972084 15.43875953932964 16.05392950885036
Cd 13.71288983615874 11.56381467402713 19.046452008826357
Cd 18.823663377289826 12.68951123961127 17.48114074657754
Cd 15.407179574926294 10.074502165192705 17.209514218411513
Cd 18.360023369962487 15.284237401805619 18.769330055587528
Cd 12.262032969280687 19.863749100718294 17.973390621819558
Cd 12.856845457106903 17.47757047354083 19.516365864969064
Cd 17.96093985102342 17.84386619038096 17.20779322935125
Cd 16.104158142099756 13.252202129115 18.70229546039568
Cd 11.051512989285044 12.756338975905111 18.555291754739983
Cd 15.298029855774715 19.063724935172612 17.805363190360527
Cd 13.343773470536012 14.50837339130533 19.521649957164865
Cd 15.671869237928535 16.3289391025989 19.13838586968618
