42
Energy = -17.95216084 eV
Cd 16.413158092625714 16.566232162641302 10.417958593584858
Cd 13.675030937393261 12.08077543654374 10.029931288157451
Cd 11.03611852451794 11.0696226908654 11.379040810518365
Cd 13.777521170610985 15.049286350505938 10.421527796030984
Cd 11.066802630598753 13.682263845732546 10.101399353267603
Cd 13.557550494775839 9.388614236196432 11.632467377227222
Cd 16.521300177800573 13.77750257573898 11.443429802881392
Cd 13.86891628871933 17.971245783856567 11.057682616158047
Cd 16.10776120359265 10.881156458727384 11.37150540703326
Cd 10.969035117145205 16.68635067748974 10.407689321270125
Cd 18.013370944251957 10.450366348389194 13.630261325386616
Cd 13.753251050805208 12.936901567237694 12.96062406394638
Cd 18.841114811621043 13.417099298656437 13.389875379131148
Cd 18.389904392753287 16.211922399057862 12.635796098477135
Cd 16.44874684323972 18.64060433012322 12.595081626823918
Cd 11.416861820672844 19.13994461440966 12.112554779992353
Cd 15.25819495818938 15.70227597857243 13.574533364109012
Cd 9.597854846564397 17.598624812383985 13.656279469824259
Cd 11.926075108513283 10.070248762112092 14.091540774180439
Cd 9.254888664803742 14.800583881829317 12.134417299311446
Cd 16.065724632304285 13.274134076834281 15.049008969443305
Cd 9.078815536990179 15.127471259633166 15.082159774273851
Cd 10.815278014558691 12.880086746294529 13.945643080905683
Cd 13.77591954871521 18.351260457087044 14.139260168256252
Cd 12.29326935138668 15.569465448119198 13.204819356183888
Cd 13.236207601281158 14.057591176122484 15.722867921155375
Cd 18.70010434906096 14.893439175212118 16.03781689250456
Cd 14.829945690996375 10.447512022314099 14.418978020866241
Cd 19.412635803153755 11.898242491121307 15.937091523614807
Cd 17.380728707600756 17.520218201690007 15.149945637384004
Cd 10.412241863034634 14.355315821985242 17.451168671905894
Cd 11.65229233304266 11.550898138750128 16.587601545538263
Cd 15.050121346469735 16.313362889430046 16.65127698785883
Cd 11.914455218215423 16.87389178984996 15.959026219772499
Cd 17.47951321778895 12.755801494305118 18.08284162146097
Cd 14.570640435673324 11.68894443483694 17.329085419529317
Cd 18.824737005542524 17.546700942647913 17.70287875170083
Cd 17.035978584672687 10.092529133649263 16.489671976428717
Cd 12.426139869836566 12.975956463540053 19.087180919785776
Cd 12.626013891983408 16.03713342431746 18.704141167015013
Cd 15.035793110254279 14.293434895113602 19.003135114296555
Cd 17.644489442920268 15.52949094075248 19.37530734748403
