40
Energy = -16.47088001 eV
Cd 11.985398188051104 15.654950389347665 11.132615708471196
Cd 16.15623706954091 16.140348551771897 11.087224932033838
Cd 13.91892044328943 18.039988234682674 11.086266401193981
Cd 14.246455037469795 13.734778892698015 11.123606396029862
Cd 18.66677677264027 11.168085413140037 11.544338280061117
Cd 17.340351097494338 13.538784445753345 10.154487384995363
Cd 11.49427758015458 18.04968765150644 12.837530837050965
Cd 19.79072682281321 13.935850791596764 11.94871023102553
Cd 15.692716968423683 11.204368107229385 11.387509670824498
Cd 15.944604065219226 18.101180428425376 13.653645626015232
Cd 13.282391674434338 18.321973222956927 15.103531340021796
Cd 11.842065812744497 13.42961953528926 13.176273575622789
Cd 14.276026069068497 15.468086009440851 13.747775711971013
Cd 13.94957123469036 11.39890447946066 13.901903009746954
Cd 18.409835746222036 16.494392411637193 12.913676983841242
Cd 11.762264241033735 15.731346900480363 15.25232483788412
Cd 19.030892460442296 11.926007224212036 14.469971182145434
Cd 16.6420869432796 13.623157122630353 13.411000867109571
Cd 9.434978680421152 15.62631534953456 12.983640809974482
Cd 19.696690762296985 14.765956039218933 14.981185936776473
Cd 16.735296877102567 15.716841464852168 15.612597159144189
Cd 14.860141444925901 13.314115364765147 15.983751358196244
Cd 16.746730688140698 9.974939572829811 13.872850629308346
Cd 19.781876636631285 17.924141862129424 15.105586503427222
Cd 11.875676839846598 12.662933473165815 16.080734262003208
Cd 19.891912667452576 16.259242336746546 17.74373894752051
Cd 10.554145521914663 17.9399949640722 17.180855915106573
Cd 8.482077095810945 15.92845847636857 15.778710507931908
Cd 15.74757960483019 18.432459337270647 16.730820154657614
Cd 16.891876110332916 11.198231281696454 16.575386799347687
Cd 14.035774313398527 15.913613453684489 17.229652157889866
Cd 18.424038223491298 13.610126103483028 17.446592651927062
Cd 18.454152609474097 18.908175512229942 17.57657125836244
Cd 10.376483150813256 14.741034206136186 17.816047593221512
Cd 13.252295967038286 18.739748231094662 18.537481542479185
Cd 15.838698164274305 13.029631255028049 18.887670169868972
Cd 12.836525856092967 13.268039398983088 18.87993463477538
Cd 16.904656251429625 16.092102281198972 18.690665672593557
Cd 11.91885315658982 16.354662710832265 19.739099775492107
Cd 14.586601164922948 15.396387526665846 20.392692598196312
