43
Energy = -17.56251577 eV
Cd 17.303635398491608 16.81695542627523 10.364069495195327
Cd 14.14533677536004 16.1155326929554 10.59119385877182
Cd 15.322402709094998 18.995627538509744 10.826456775257821
Cd 13.868987849647349 13.15269803768654 10.754664245588089
Cd 17.940893664354775 19.209337261139982 12.128787938795364
Cd 16.870828645575553 14.071003482429854 11.166408462602565
Cd 15.92091342136564 11.535734822334645 12.35363204999121
Cd 12.548389234066704 18.5633380984199 11.730441944655787
Cd 15.507625123876265 16.285727501646274 13.316561047978098
Cd 11.135484502579388 12.97944969188406 12.736103744207123
Cd 19.316172677482847 20.096547235909316 14.52891708000122
Cd 17.39846385572725 13.866886513426582 14.20872687459312
Cd 12.046786426083221 15.786361239122414 12.82594523636188
Cd 14.705424387000042 10.05606523946763 14.586033766459284
Cd 18.455956263760694 16.703781437042636 13.791628537840783
Cd 12.063394530947237 11.172202436523056 14.842556092385669
Cd 14.928952756987695 19.314495896266994 13.890484656161494
Cd 16.47866186985998 17.575258360869476 15.954802469202248
Cd 16.7167956030154 21.217084352628934 15.340786095160784
Cd 14.128233889501548 13.641774143542623 13.843217806781745
Cd 17.261628292260532 11.08577046249796 15.522071253013124
Cd 19.741696202829154 15.280286835695744 16.191384026111276
Cd 10.895122885350968 15.860996375384591 15.570643316799089
Cd 13.984830119425412 15.824398180726417 15.879143425005743
Cd 17.844076857270007 19.702162032071957 17.663380191179613
Cd 14.690950299899205 12.566056456482125 16.671044260583603
Cd 20.374262776675916 18.114813030106667 16.34168776010871
Cd 19.81164182902101 12.391472164787345 16.2065684652926
Cd 16.662478405073998 14.819241714473206 17.07417288690577
Cd 12.200971478527144 18.44066830515484 14.753742558187444
Cd 11.781437139560289 13.311878594996589 16.89534235748855
Cd 14.712437356620388 19.976979862770953 17.196585555393376
Cd 19.059522641621427 17.380082847896247 18.954593608217944
Cd 14.67720701780878 17.23351157249347 18.475099372354144
Cd 12.073691322535133 18.623087344232474 17.669945772331
Cd 11.736002822400451 15.77404783112799 18.591405785413905
Cd 15.578812294088388 12.956787447295222 19.444286439462754
Cd 18.032566546682784 11.5661760843506 18.475100822550534
Cd 18.94399673858219 14.430384815509132 19.04102730346546
Cd 16.7488560560266 16.394100613128234 20.434489897940722
Cd 13.854321038351175 15.086472924822301 20.461491473435498
Cd 17.963568398577763 12.82627248754052 21.408963470745395
Cd 15.960774608961676 14.592683321301534 22.690604532952488
