41
Energy = -17.31092299 eV
Cd 17.039231106170575 15.126846190246496 10.52273177101505
Cd 18.20163548160849 12.491142240066356 11.095722719193196
Cd 13.467311312501018 14.960230133761835 10.155089896004702
Cd 15.361756998844728 17.382298003700303 9.88233940288343
Cd 12.20968576037675 15.094063808134472 12.944067000639459
Cd 12.955840064951047 17.670311444689982 11.532477856413145
Cd 15.824935411941402 18.289325290876846 12.692905630568756
Cd 13.919065672396313 12.231776119256669 13.71740108286019
Cd 19.621124215048567 13.5126969890556 13.391484015761904
Cd 15.296823740172995 15.010465874749835 13.07775474488051
Cd 15.123378754060374 12.657394732925225 10.965653865197753
Cd 18.15957440042402 16.144345181013094 13.19015072445495
Cd 16.897868875106386 13.141620111483446 14.789501006903162
Cd 11.339815796084942 19.493664052751768 13.12134489658359
Cd 14.89103207676233 19.894182558383715 15.322719721001416
Cd 11.376389119728067 13.52846728953118 15.212561276532957
Cd 10.911740368374888 16.604097359789307 15.597021406099211
Cd 18.79226607180457 10.450214934703354 14.852153718629737
Cd 14.226283797305456 14.203586825406747 16.13543008580665
Cd 16.49869378987824 10.69091323891531 12.751374918346992
Cd 20.085805889311107 12.662961105492256 16.22207383331013
Cd 13.843634369531117 17.048424359070307 14.693813700639623
Cd 19.97868318604848 15.63250766381656 15.641508687213914
Cd 11.950386515822213 19.52021851418223 15.99276240294694
Cd 16.00410141085345 9.764274230855996 15.555595442084366
Cd 17.658500729303963 18.621102842852775 15.00637299947233
Cd 13.894473583062446 19.971541976782227 18.2707506184734
Cd 13.416640123907396 10.869249514489068 16.333103807945847
Cd 16.74023482714855 15.903978525048581 15.937163981442767
Cd 11.61783551611854 17.84040942578611 18.423303065280226
Cd 14.542234282155855 16.780739076296843 17.685765854128306
Cd 18.226895294049154 14.136765685237403 17.931526415068404
Cd 19.528603578427663 17.97445201960572 17.31904617119094
Cd 16.758628078039813 19.303784385057114 17.84147359858101
Cd 16.070773745061558 12.062987372531275 17.575206896428387
Cd 17.524347865502907 16.76994240666794 19.17897388453796
Cd 11.037663829155193 11.96335310159898 17.66625850233894
Cd 13.915199223918583 17.854017616008313 20.57482851194359
Cd 11.618713757787324 14.943541336403841 18.140789846894553
Cd 13.537113405763712 12.776194816539872 19.020691396676757
Cd 15.580064725887418 14.66689839663266 19.68409139402414
