48
Energy = -20.20051272 eV
Cd 16.531697964949164 16.23122874584451 10.15668554029061
Cd 13.538476054536838 11.802706045510938 11.636155455531133
Cd 14.335329749317706 17.69965823973621 11.571488971536585
Cd 14.50419172848302 14.686124002845897 11.919462672896767
Cd 17.068126403550213 18.849553651530172 11.470702210947485
Cd 16.100687610323877 12.435356466227205 13.507934004276594
Cd 11.714173742152438 18.792510830550114 12.195051443001809
Cd 19.211935111160017 16.757686312709975 11.650208634827303
Cd 17.801195791381033 14.034028649525794 11.773092327464735
Cd 10.610192728915377 12.30679597017223 14.245803436591055
Cd 15.502046144627746 19.319275944245998 13.959557055244776
Cd 20.659719120413158 14.24844633281012 12.54183032097038
Cd 12.120817627450636 9.947161400921573 13.51598959429841
Cd 16.354914373173226 10.975526833385791 16.182090229587065
Cd 18.557305739610467 18.88025816891803 14.135383961495322
Cd 18.693752007793208 13.31511875743627 14.850762382846534
Cd 16.876101341921075 16.14828487373883 13.80390529854553
Cd 13.907982967583491 16.505500950123018 14.412366722224977
Cd 20.085243824372995 16.373476152533332 14.62470704805787
Cd 12.744881696114232 19.9993580878417 14.93571986479643
Cd 14.943988107136699 9.602787205483775 13.985655397242974
Cd 22.082033604075097 13.73582581680894 15.015828624034596
Cd 13.368224217506528 13.551551348830422 14.487785936851795
Cd 15.048960866761345 20.275362689767828 16.905476728842572
Cd 10.834118611704845 17.74975255346088 14.86542294946845
Cd 16.45156809931069 17.501608582374892 16.44687360764221
Cd 15.865616123077436 14.38401448917342 16.024368483814353
Cd 13.205560280758263 17.784750294848354 17.04972675551361
Cd 10.814219252605062 14.96843955685202 15.571452705238624
Cd 18.068506355745374 20.41123031046471 16.52559292545576
Cd 13.24632313001643 11.071388602419177 16.285917866538874
Cd 22.016194499644005 15.932682256597603 17.1853305964292
Cd 18.604838644128264 15.45080133913546 17.13557068057538
Cd 13.258602017485796 14.713676673078112 17.402235763392206
Cd 20.750908051242902 13.169019436803325 17.54565647482424
Cd 18.817929896334952 22.243540556899372 18.863044985596183
Cd 14.98476531406115 12.366353385122249 18.52953064374021
Cd 12.138804017621819 11.903012692710849 18.96789001325141
Cd 20.100852427568086 18.25600767710283 17.06774343861398
Cd 17.947825239405987 12.596270462963787 18.034653817353618
Cd 16.147313150021414 15.019785507224618 19.087295304637188
Cd 10.25677437215893 17.058277343326537 17.828276925835247
Cd 16.616349978633586 20.221895813254967 19.458522229499767
Cd 9.89889920399114 12.509688782892265 17.181494970939575
Cd 15.030303029650664 17.709952002506014 19.367479519292587
Cd 10.736086903096746 14.505950773865585 19.351941314341822
Cd 18.095630945959652 17.60010918080552 19.156792213076578
Cd 12.27174112895247 16.919917445104318 20.105251149011035
