41
Energy = -17.18536547 eV
Cd 10.918950940384326 12.723112543533132 17.496042423662917
Cd 12.934273744369 18.507008960166175 16.93184160966949
Cd 10.757433016854796 14.791018810999761 15.26894194458033
Cd 12.506478894714343 15.598625127396955 17.741643949702944
Cd 10.994548557797787 17.61373580959847 14.636747418853668
Cd 13.128463827111945 10.758207667812702 18.440102015293075
Cd 12.520326373543888 20.130986145387123 14.497013797165184
Cd 15.211283577212471 14.962593951642123 20.17342085274045
Cd 12.783709293705336 13.364693360933364 19.800525554700883
Cd 11.841150034326743 9.778713742877724 15.925991852857749
Cd 11.466030892404772 15.530777967858183 12.387747520792772
Cd 14.621886200501608 17.596422908910785 19.181841874714028
Cd 13.406000096938682 13.214867135506484 15.709870924415648
Cd 12.83238119490053 18.395076339812793 12.048163105220256
Cd 13.812889962741083 16.154666218564298 14.709827759872649
Cd 10.413866986957544 11.947358092939341 14.557796568984383
Cd 15.587105814505737 12.366053984056817 18.47413537841755
Cd 17.991567305098048 14.497788892889039 19.104229543506957
Cd 15.144920802834719 18.922495406427814 13.937254995773184
Cd 10.527838728061894 12.202082254284019 11.69274476057376
Cd 17.795432232320575 12.57726056226881 11.262428944995916
Cd 18.77446982150087 15.386361613539574 12.265630941472553
Cd 15.076175188649776 13.279754387363504 9.921661464764684
Cd 19.479584759604542 12.923018190858423 13.779747226990134
Cd 17.398800363667924 15.136716777534025 9.663808251128252
Cd 16.01887703842516 11.52532616920231 13.316208625518271
Cd 15.332865069792325 16.542057738133202 8.157794751007952
Cd 19.74696754078602 13.638154298408443 16.63777866937395
Cd 17.302258977731153 12.175568049049618 16.006070769011327
Cd 14.775323701592862 10.532268417965028 15.876358323467876
Cd 12.000807544838908 13.739262642670994 9.69334021647577
Cd 17.659400091870946 17.387225992373075 14.018983119359087
Cd 13.82389817670751 13.663811862743064 12.801649199052612
Cd 13.039506664424756 16.447109321771663 9.921516199420774
Cd 16.43361304155074 14.447976449033776 14.101037246978292
Cd 13.001674610274701 10.647448554001015 13.305253260515096
Cd 15.581706650326574 14.956591681659312 16.87086585758598
Cd 18.482184092545257 16.225032088646447 16.561798539979637
Cd 15.51653714276774 16.495878435017936 11.932261033569699
Cd 13.172292612857982 10.972231745593671 10.403654853475256
Cd 15.98739497020894 18.045536237982255 16.58714519177017
