49
Energy = -21.7639296 eV
Cd 13.940775797299349 14.194720476853398 9.297200508304485
Cd 16.38516647342605 15.617352663871102 10.155445277153934
Cd 13.744062223833355 16.827678257050632 10.716107080766749
Cd 11.093271438152538 15.388890482633345 9.970206908374154
Cd 18.39133504494327 13.644951563534658 10.697629387963566
Cd 15.460129068356272 12.358760381810256 11.115143268504221
Cd 11.785391703719366 12.367709619390112 9.904054834250159
Cd 16.516638737059864 18.19193164605798 11.595560417034116
Cd 18.696018236131387 16.178577038037854 12.423217409561925
Cd 10.342852349039642 12.688029561957267 12.43200833373141
Cd 13.895029181134765 19.869795287995867 11.079390298828805
Cd 10.278079784263047 15.69070647159273 12.822150921714146
Cd 13.181807484187686 14.279767857500163 12.664706830535591
Cd 18.18168047231635 11.150958784203 12.122377095517658
Cd 16.156912694375098 14.53584491480762 13.171068099304705
Cd 14.467731542638987 16.87579875291503 13.754313219794154
Cd 15.723969693167694 10.423589121384984 13.529492294307072
Cd 15.364701290680888 20.251540413073133 13.558990245998327
Cd 19.400700442045554 13.406006200131833 13.589148546186973
Cd 12.966112214595391 11.08330570327916 12.370804139377679
Cd 17.435741993365724 17.99404596032082 14.455980621065018
Cd 9.631594825239135 13.727599375211442 15.1307776273
Cd 10.290353664470477 17.72604637480516 15.01231769316102
Cd 18.84809872532041 9.130447593521513 14.159888486022624
Cd 11.853569063099732 18.25678441828359 12.588598385626325
Cd 12.345912320274726 15.335584813011808 15.42962314626167
Cd 19.761068370795876 12.841561784837516 16.51353773110937
Cd 8.028135930342234 16.153385555889706 16.002465963984307
Cd 16.911133644926156 12.68641724323996 15.298334544764812
Cd 13.405759961955148 9.110896972823415 14.689120295857851
Cd 18.71517778856233 15.588040899550045 15.482159965406359
Cd 13.900464268176979 12.765846180556775 15.16889636310797
Cd 15.364689039877453 15.325243388467221 16.13838329968441
Cd 15.74600970948817 10.20977669228536 16.613267860361056
Cd 11.170065533535288 11.127036499017665 14.867279941099227
Cd 13.01860412550974 18.94209520359534 15.405594005088123
Cd 15.695052320359531 19.56234696883554 16.35333551374993
Cd 18.783697397844392 10.076068812922717 16.911838961757518
Cd 12.875576527190695 10.245564530267757 17.381825444642995
Cd 12.871700591752209 15.17501347968779 18.74359901850137
Cd 9.867267604341402 15.188718937277127 18.108073914850607
Cd 17.261417150621906 17.409377884723952 17.600466673402266
Cd 18.573632561225125 14.94325859395178 18.450273307230304
Cd 17.284718558204936 12.28182540499616 18.403133220838676
Cd 11.424748858473542 17.727605542995708 17.778104084082884
Cd 14.371012744758715 12.628697367900736 18.432286062169872
Cd 11.4934634983836 12.853153787654543 17.35450608030199
Cd 14.332001868740537 17.719631993299387 18.143722483908235
Cd 15.793770740989103 15.268817801181164 19.440399446645028
