45
Energy = -18.63559813 eV
Cd 10.948271105937835 8.510956198329753 12.915237325417433
Cd 15.255128367417221 16.977140662670823 10.598001463348602
Cd 15.622554816606842 10.88016801230581 12.017027437800214
Cd 10.167243959892268 11.289264195662799 12.045078757653323
Cd 20.453708591110253 17.344167582614713 11.87104433754177
Cd 12.91738655996182 10.051197367700752 11.333923975680461
Cd 17.848923474166664 15.522963591202846 11.091516459568274
Cd 17.91009133762591 18.662407447070102 10.950460217054367
Cd 15.265552228162733 14.1370960646256 11.709088387044542
Cd 12.826711060810936 18.096594345730914 12.012782683426176
Cd 10.81575681886651 9.870582951808059 15.496213233402786
Cd 13.67417411081149 10.7969743632097 14.63192973347209
Cd 9.887225151968588 18.63950621246823 12.616953532498801
Cd 18.052424693224797 12.545940489236576 12.23241065508182
Cd 15.385171851163046 19.903813010903484 11.693333020946355
Cd 12.758290963479107 12.892263235750235 12.506079259110146
Cd 17.422424539339847 14.907302500584814 14.394687568049298
Cd 15.073923546969949 16.73859116054323 13.748519272998978
Cd 20.219438356869798 14.590624668557679 12.815828624363178
Cd 18.008958141085497 17.81621433278828 13.787572627540495
Cd 13.880862544659566 20.144564443213195 14.12362022863865
Cd 16.068110813480804 18.94004244493931 15.79137552868659
Cd 12.100143608032472 15.553324766907124 13.723888880406683
Cd 13.153456345403916 20.17740458707584 16.90647153745051
Cd 16.532517130539674 17.880815818393643 18.58100689802973
Cd 16.71378917443187 11.64755810514609 14.79311042427328
Cd 18.612349581801602 17.105295792589427 16.5889627674747
Cd 11.666024540970298 18.107941817960427 15.192335377148998
Cd 19.664513165372853 12.691905699577498 14.976002039299305
Cd 20.141038988473635 14.694594458096537 17.131488212973583
Cd 18.066158062273942 12.260655723853398 17.442456356740085
Cd 14.192701357710389 16.66398317543033 16.569626660313464
Cd 14.450665100243382 13.922962317362705 15.024038036066633
Cd 10.410440249347523 12.981003765948296 14.574154076651107
Cd 11.910217294747039 11.961912383891713 17.08632040791678
Cd 11.756668296627076 17.3279984638478 18.235143167145548
Cd 16.521129477940214 14.947325019122292 17.195357640512842
Cd 16.024369695918978 13.191823110020772 19.6030536308436
Cd 10.787207949706449 15.02205882320461 16.698005234298833
Cd 19.24437881598727 13.914839474464491 19.80816535155902
Cd 13.890367902117992 19.145934355260312 19.466689873952177
Cd 17.177526473646115 15.81412756767953 20.63202141480848
Cd 13.424658396757328 14.130035893838155 18.217563902630186
Cd 14.26183019995894 16.2389860174921 20.057137998077526
Cd 15.014280419402906 11.53790284194334 17.29308104312777
