45
Energy = -18.09851501 eV
Cd 13.1959006578986 20.52737786308087 9.098028628793521
Cd 12.416232678107189 20.538609582580992 12.268912725529141
Cd 12.475591369620284 15.346993665791231 11.743231242565498
Cd 13.527214760593946 17.92856000336769 10.807827674713895
Cd 15.334493867533558 20.60044103157503 11.379118523813933
Cd 16.77632657665606 17.996005253033783 11.779742941257629
Cd 15.402581893690337 15.50094439158276 10.730562699540572
Cd 16.23950529621854 12.943014413948049 12.116273459980277
Cd 18.23109928240874 15.491977044528081 12.223267992262489
Cd 14.379906393956773 18.28307838720463 13.779756341214998
Cd 20.00639657564365 15.661164697670412 14.639110187287335
Cd 14.931775095091727 15.193965154209064 13.789192099994446
Cd 18.967698382666576 12.873936379755637 13.471119986971681
Cd 16.732658620678894 10.39294349341516 13.792425492029686
Cd 11.960121441498808 12.70234349473595 12.837548179521693
Cd 17.235117576017874 14.28053414146785 15.48909149689921
Cd 14.474531954780046 12.111624945963598 14.469828723606625
Cd 17.198547053612877 17.297687650623253 14.734558741318395
Cd 20.946082281505632 12.360341694998414 15.603002695862404
Cd 11.767881445843411 20.187565937977688 15.099490709409404
Cd 18.226221303855905 11.199064747279802 16.166501890903007
Cd 20.93699760001261 17.824487090404133 16.52208236080611
Cd 12.188505366405092 16.408974714234585 14.636271537313684
Cd 15.652331012329498 19.497803816106977 16.178475865521804
Cd 14.85195317613933 15.852840549179078 16.70401267540051
Cd 12.373122590640843 13.50968369037561 15.921080109146908
Cd 15.498366536169637 18.047003576506082 18.76790313627709
Cd 13.00291988265074 18.482639555667436 17.136665196392453
Cd 17.85512403690037 16.340085208519117 17.657064145645133
Cd 15.315940078594362 12.645552628886344 17.346973614284227
Cd 20.727625719774174 14.65079470700789 17.388584144621557
Cd 19.46781812238331 18.480337105202484 19.29554072673958
Cd 11.322204483619554 11.660282598659437 18.22383408635036
Cd 11.648110321093087 15.90784415655686 17.531471865750397
Cd 18.549706322283892 19.629081138289067 16.62611953113454
Cd 15.89719895474727 14.853688559803512 19.54966954192895
Cd 18.166351133443904 13.15287532787489 18.358675399934157
Cd 21.86521669441931 16.695794389623636 19.292206323889456
Cd 13.16573862164662 13.896487171490381 19.14729512253042
Cd 12.935267124926092 16.813275802026602 20.020987259255193
Cd 17.120128397769875 19.975592570139312 20.362375514266525
Cd 19.293002004296355 15.302937330647394 20.275969202703767
Cd 17.101183288039355 14.924808870991848 22.353632988124758
Cd 15.347933238410423 17.359975462446254 21.699410269749425
Cd 18.353787065877516 17.731396285024303 22.047523229211222
