41
Energy = -16.79786945 eV
Cd 17.046586403358116 13.264126649802321 9.060389758985464
Cd 11.810517582214489 13.858567608741572 9.338145589055397
Cd 16.611602268494906 16.088704627984754 9.443247135407525
Cd 14.309725609246044 12.30659466420892 9.586150978765799
Cd 15.33458484738435 18.42345697144663 10.864010197177025
Cd 18.29135712657343 17.606213705655176 11.524271204849496
Cd 17.997234755132606 11.780167042053813 11.365860110571349
Cd 13.469097459503303 16.168038787123464 11.184765727041862
Cd 18.457489562490252 14.726641575717723 12.306680928196446
Cd 13.103685587585089 11.16135190721862 12.124809435676942
Cd 16.617759509619837 19.329525236385876 13.357435557839002
Cd 13.793890830905305 18.101503290702208 13.67904657899651
Cd 10.444340279176396 12.60488733981874 11.806361909478762
Cd 12.744550232255065 14.108110519451715 13.587598303785676
Cd 15.886325466750389 10.396648848413951 12.806972793589416
Cd 10.59560834040137 15.655279274872077 11.502669707011457
Cd 11.146411630166844 11.507678793594827 14.479981320522358
Cd 15.269309937795096 13.834293476864936 11.944452233198852
Cd 8.731670591566317 14.439259538741195 13.496620042912369
Cd 16.09487236176104 16.04972986070025 13.69359907143401
Cd 13.875543542360322 10.43336801772662 15.036134667032725
Cd 17.557472948970815 17.803088566502602 15.715315668239596
Cd 18.531277651672607 12.656202095107222 14.417843576292247
Cd 12.58558272056758 18.470268019023266 16.627688215235263
Cd 17.26171288682141 9.930590661810129 15.351575793778554
Cd 11.281636174136388 16.57968986948749 14.34729088651085
Cd 14.10464406691396 15.833315444180364 15.876464281660432
Cd 15.414693206626984 13.12201441413446 14.852255637380717
Cd 10.177260123075204 14.194245654039646 15.999774782224643
Cd 15.204770476544397 10.075003542669226 17.586102867631514
Cd 13.023238309949848 13.193782346738427 16.68685556157885
Cd 10.42119505848409 11.453386161107492 17.399920804059114
Cd 15.207671247341514 19.65034539833841 16.00394631529904
Cd 17.153399938798668 15.095362742709645 16.658359524305602
Cd 10.777708820289458 16.431909853935604 17.794870773791054
Cd 17.306603107271226 12.26441946390544 17.222337708770795
Cd 15.492036569263817 17.519795940286947 18.054715298301932
Cd 13.131311988894003 15.405341077569219 19.166098662978275
Cd 12.60945251926071 10.33000257484853 18.948002393088704
Cd 14.859073521430599 12.690275766601614 19.045984945201514
Cd 16.057863192667003 15.247581123499101 19.846161505863392
