43
Energy = -17.55932852 eV
Cd 12.658762071196493 14.536777001337525 8.884193210478808
Cd 15.326342696597825 13.148615941607147 9.166124201408723
Cd 15.25622948595818 10.67090565532685 11.018807732934127
Cd 11.845563023095504 16.464295433730967 11.00437899423469
Cd 12.80247893877706 11.485748985439713 9.489361517772396
Cd 10.754304573278532 13.155783313244255 10.924002544315377
Cd 12.300014737498678 19.397983689283635 11.941856596165408
Cd 14.887298373970346 15.881923590152969 10.67381664006115
Cd 9.32074039922176 15.163897172965672 12.477665249481106
Cd 16.56988712672131 13.471273503281745 11.938510710407996
Cd 13.413006197764263 13.686767872877706 12.227254178440432
Cd 9.94589000913197 18.023266694776986 13.002244180413484
Cd 18.60362792705676 16.40983972429767 15.22137938396573
Cd 16.908909095111042 9.469617856133212 13.218018851959734
Cd 12.227817977395295 10.653589107076154 12.316619716528836
Cd 15.029255105067975 18.77233757798958 12.549976671874523
Cd 17.01899112369921 16.343078906297173 12.685147386640521
Cd 14.857593336722891 11.644441959161416 13.92225443531281
Cd 10.335926281477134 12.61026099045809 13.901879710189213
Cd 18.78839469857974 13.393087212253704 15.748026028475858
Cd 12.23186662598056 10.641616039638178 15.309561859435904
Cd 18.831568770446708 11.926566167759285 13.097272647000905
Cd 13.55240486478806 16.227558620420208 13.69814616880868
Cd 12.182972926601886 18.824111295548775 14.991374446832086
Cd 17.14797833924361 18.96712361701889 14.478823274226675
Cd 12.914332212777161 13.72416163415016 15.254456616376803
Cd 15.906802870859403 14.440392594805274 14.853586760518535
Cd 15.17046977265399 9.835087604430084 16.264647942900126
Cd 20.848823170793413 15.221051238854924 16.893019019496574
Cd 14.90215533241607 17.380253122279093 16.088704113673522
Cd 10.721594545293378 15.909448631845764 15.056876724622626
Cd 10.53061887122609 11.533274919657078 17.63361388112983
Cd 18.122190561720824 10.410864503523147 15.762783668854834
Cd 12.225033698772176 17.04303807170507 17.430563357363535
Cd 16.398821156800214 12.362083314731043 17.47360387844889
Cd 14.207393516215141 14.629126951989345 17.798787444967612
Cd 17.466179557656666 18.41191946363983 17.376516887286563
Cd 19.67405865940842 16.716781226166162 19.087245935823965
Cd 10.805010707030442 14.411524155838768 17.668516653731274
Cd 16.92938086322155 17.403519713394395 20.097636522044226
Cd 13.461284709152462 11.705154939379929 18.093504463671845
Cd 14.083767223383802 17.000516136853786 19.772119137271677
Cd 17.167418675667374 15.224494659110297 17.84028146488347
