41
Energy = -16.65758164 eV
Cd 16.390191235726356 15.018856173813518 10.27960170388021
Cd 12.054047000847937 13.372368068596181 9.437297301402
Cd 15.05338392602156 12.456271184592715 9.811701585709427
Cd 12.815199131081869 10.60525666573141 10.795481796097754
Cd 15.31698784105738 17.746474801368162 10.995938751207563
Cd 13.859615457093307 15.120315337725351 12.013140383804709
Cd 11.879422665704123 12.883699320892653 12.55400741067601
Cd 15.561818989315071 20.010056050939944 12.876827004059596
Cd 18.324332033282992 17.15360627468428 11.208696848130256
Cd 15.581278466491813 12.507269484106462 12.756619124335918
Cd 18.594044379114877 20.034931728226574 12.80014820735108
Cd 13.773466319245188 17.615193243073957 13.727032583651972
Cd 20.393473495090596 17.75824190741784 13.228171514256621
Cd 17.70126339266398 14.695842928655878 13.106389600658767
Cd 16.806270275379 17.36458770580888 14.075540415549213
Cd 17.041447896790142 21.28267725776954 15.122104763864439
Cd 11.654516146683255 15.240504304376659 14.366163830046709
Cd 11.811738366564315 17.599395864524226 16.015153715438323
Cd 14.106181462384354 19.956156229361163 15.721140925827001
Cd 15.793069839245181 11.627896636657967 15.522550960008823
Cd 19.765416311960134 15.950345138657926 15.363125335731604
Cd 15.076045239843845 14.910480301247649 14.995727770112227
Cd 15.596604286266095 17.27995062104365 16.775733644301376
Cd 12.93261985032397 12.652901134630321 15.306306404454496
Cd 17.269825366582214 11.837449288992984 18.13146743009531
Cd 17.88526876260939 13.870739318837087 16.003301909573572
Cd 18.57294313056466 18.822480954490473 16.04841207882343
Cd 16.492245875240695 20.11942249354898 17.757146837404175
Cd 19.94720007046566 13.963106594637292 18.556152385948057
Cd 13.238494011740116 18.487812516039266 18.39107820814726
Cd 18.34476245910265 16.515957397984085 17.96553752981227
Cd 15.669215012069847 18.76108602305475 20.124060104172273
Cd 13.90145088352686 11.814251359969019 17.940825718114727
Cd 15.387353501590367 11.626454964995908 20.560621626083844
Cd 15.73433027301582 14.650084494960149 18.143796585507886
Cd 12.71536825458601 14.992188021708557 17.516943297202776
Cd 17.906129564919482 13.398622167473782 20.602131003098346
Cd 13.807219818896609 16.262585476545553 20.243115883300895
Cd 16.946745127428706 16.199490433723096 20.621976481986746
Cd 15.218651315718452 14.182770089374268 22.102825310610196
Cd 12.859258104529953 13.431115580526324 20.214901570327818
