40
Energy = -16.17663566 eV
Cd 13.20019443104425 11.646632884943315 9.750665379858667
Cd 11.868648922026331 13.512847917172065 11.617067136094265
Cd 14.674996716478912 14.245448177220297 9.194084819917903
Cd 13.790047664661158 16.09853312539652 11.324039715920952
Cd 16.914033800473707 14.499288077100225 11.341414243713285
Cd 18.06185318221295 19.398142839821237 13.644729484979743
Cd 16.31336817867103 17.03034278098303 12.848429354799775
Cd 16.16023001394181 11.75487313819358 10.217670293021834
Cd 13.506586050166002 10.566581220201543 12.513746743159471
Cd 17.498546680354934 13.949554519898166 14.308016845631677
Cd 9.655230109065485 13.710899018032439 13.808970761178966
Cd 18.947033058887794 16.57660821939649 14.328789715892823
Cd 11.284485906920496 16.19859285533972 12.991978678076189
Cd 12.28757905573402 12.4233496281562 14.733357420369746
Cd 15.139797532815306 20.54673803687869 13.750669154456702
Cd 14.599097387051488 13.467443057520446 13.02866319930901
Cd 12.896959182058085 19.29174430463145 16.114741108416816
Cd 15.762665444144952 18.162400700093976 15.967485150296714
Cd 14.834425424323303 9.701172041648617 15.07651513933067
Cd 16.69148025564837 11.016119881760837 13.002682158678024
Cd 14.988875062382446 12.941759052355714 16.077081925412013
Cd 13.17688862420903 18.46863707134543 13.212011829250898
Cd 17.34157954735177 21.492310488418443 15.679707985892438
Cd 14.153875213894734 15.806021349293953 14.81880086273082
Cd 18.690193936159172 19.056598331237478 16.706336579163583
Cd 14.956895617408419 21.41177082185198 17.314177092785613
Cd 12.916011848219107 10.621588800581383 17.218292667828383
Cd 19.139108740788608 13.343915357865763 17.200632335836172
Cd 15.532593477761846 9.527478727227782 18.121701200678462
Cd 17.51839133667419 11.22794557227071 15.819808679841904
Cd 16.402830983225467 15.408937757152195 16.94782014230784
Cd 19.297476664371334 16.201890262658434 17.26699030898823
Cd 12.2949246580288 13.434879284464051 17.919497796166375
Cd 14.450629959376505 19.029624802503182 18.927365350296782
Cd 11.357637899967013 15.29875563525286 15.834377884215701
Cd 17.014986065199327 11.990175075561082 18.759930687929433
Cd 13.29513601095552 16.468515042608768 17.78805390392797
Cd 14.892904223619956 13.951191515355255 19.162599215706493
Cd 17.3519079816861 17.86936881065191 19.08692833179033
Cd 15.087852603335637 16.599283268251135 20.52212816744166
