42
Energy = -16.4763294 eV
Cd 15.484837180663037 16.92142643265966 11.24419815258993
Cd 11.674906114573657 12.730209402825446 10.576680034949202
Cd 18.081371475045426 18.32893301772132 10.763359076094652
Cd 14.21072001126766 10.94438426049228 10.581946457896231
Cd 18.77132381637599 13.362624393978386 12.252444046503227
Cd 18.024065882345383 15.38692478862359 10.224923232152669
Cd 13.511813694892753 17.529412001704 13.45500733648326
Cd 8.86638601587828 10.010529301239355 13.607069541542595
Cd 11.757129068991608 10.211603137634562 12.312480926302372
Cd 10.160554969952264 12.796554847958314 13.2367935497922
Cd 19.6616572148652 16.510533700033047 12.711715307795325
Cd 13.036163250817962 15.138311573548902 11.301613554431453
Cd 10.38770325405133 18.22954953874303 14.54869157117484
Cd 16.747678550866837 11.13892726208256 12.040784247525282
Cd 16.53989066807224 16.582509344312484 14.056297024335535
Cd 18.08140398467705 19.23916439684874 13.556071418229637
Cd 12.725751893005912 19.153374157798506 16.027231802654477
Cd 18.768582036070978 14.62419672338546 14.906615509619222
Cd 15.698611858029635 13.951074640067821 11.851998194718117
Cd 13.603543839324127 12.335521626938057 13.560793803604621
Cd 13.170754585735843 9.479072668853085 14.931522262539254
Cd 18.09114760078898 19.011831147415243 16.583647479212352
Cd 15.945163204131456 10.25952942240193 14.648194876229972
Cd 15.492676743254385 19.707649375410444 15.085331625376305
Cd 9.478511203805038 14.940829629823577 15.230088878394604
Cd 10.478867989546288 9.233111706821868 16.016744394533298
Cd 12.641467842848904 14.81860119055129 14.755464072288195
Cd 10.62510343203302 15.995514892649826 12.639615556883657
Cd 20.641401828668535 18.34495083923441 14.898705476365578
Cd 15.637126196362644 13.948784946762913 15.03422249104372
Cd 18.769937745274643 13.875671957630262 17.83251239055526
Cd 14.282885293732239 16.605804605412402 16.476745021358802
Cd 17.170953610921615 11.699277746828809 16.8014199687772
Cd 17.09294801377654 16.336461754815925 17.236759897446436
Cd 11.198511208098353 16.673698113243898 17.155327402817367
Cd 11.055346096554944 12.20291934651417 16.15828626465184
Cd 15.712369926135038 13.924011487154026 18.41636756358556
Cd 20.256733859174375 16.434599764851303 17.05785081806733
Cd 13.99950497694247 11.865651933415165 16.85416170604408
Cd 12.625140122737836 14.20866554253765 18.057104912272763
Cd 9.440905425380164 14.022108669418424 18.14434073245652
Cd 14.00478138417018 14.891821779499175 20.775204490545548
