42
Energy = -17.26892901 eV
Cd 13.289203605420772 18.07473824928727 9.94029509676543
Cd 11.653752708473048 15.803955607088225 9.36318201956395
Cd 14.437086367973885 14.774895134446226 10.722002504325747
Cd 15.999670349938441 17.502061053800404 10.715305593564063
Cd 11.235007878175546 13.052442808203953 9.979951169097864
Cd 18.70199004909229 17.975326085587444 11.737438542814067
Cd 15.92535178490317 12.160418919037285 11.430605276846483
Cd 17.397756684191044 14.761965963365418 11.256707402946923
Cd 14.891150392460496 9.376018140354795 11.592071543621024
Cd 13.530297433142053 19.192933033124653 12.645006154754332
Cd 20.129004606180573 15.439913615712392 12.205096911171086
Cd 12.328522805535144 16.079682874718348 12.479561984408281
Cd 16.21795892304168 10.411883454904618 14.01635099594597
Cd 15.632770765052381 16.069055710755002 13.499931587982292
Cd 10.904988558962556 13.555787130705454 13.034890229799084
Cd 13.231519595620526 9.584196058163194 14.207399460422158
Cd 16.470304112407113 19.2948747992868 13.30375527428599
Cd 13.96399613572758 13.123341767088688 13.518772053396928
Cd 18.606113643464525 17.4879168577182 14.716154133346333
Cd 12.4590115682584 11.138054015321899 11.719236525588764
Cd 17.238735770837373 13.35620767194976 14.102533141087703
Cd 8.54427225668547 13.097201177333249 14.835499964167392
Cd 20.206123816371225 13.863279974492604 14.651643097935002
Cd 10.459143465993321 16.141750057175084 14.826204400056895
Cd 15.951816266260407 18.413808334750538 16.060251036676387
Cd 14.99429640897212 14.566924019802135 15.97387153363645
Cd 17.39547164036354 16.08681855165044 17.28740187085718
Cd 13.335615540253588 17.347092896664904 15.023919612836634
Cd 10.05368834960928 11.686095030369334 17.10828239444458
Cd 12.176520390997029 13.576646331175834 15.853644478104062
Cd 17.31245664521175 11.124873725001125 16.59495893718158
Cd 10.576873343616956 10.816207224236763 14.351278482000632
Cd 14.324490674596026 11.26140525576638 16.349604994037936
Cd 12.238612468142675 16.13638217685127 17.42549404538937
Cd 8.743146905183428 15.146912671994114 16.98427246435242
Cd 20.361725638294402 16.035557963978963 16.643558851085633
Cd 14.927637785420881 17.04425016057626 18.494477056397482
Cd 18.828391926168702 13.46580682873199 17.304412858467646
Cd 12.669273946229557 11.86398541451021 18.703405123169702
Cd 13.703043595674687 14.606117859856038 19.59883258214326
Cd 10.660970909958694 14.070028032660407 18.915331036639753
Cd 15.944684365927476 13.085637440592471 18.47985765747472
