44
Energy = -18.44142836 eV
Cd 10.517849809396022 10.559055191560548 7.462173834069191
Cd 7.615128543100431 10.765000099621963 8.11565636960445
Cd 9.388332659957259 13.183118686273026 8.535523187758631
Cd 12.422596760741138 12.39605277998921 9.224560465988322
Cd 15.122700826325783 11.019311724131951 9.324540174376867
Cd 12.693372135825754 9.19820401772822 9.009493376262101
Cd 15.101664814048851 13.916358551631632 8.455832267507791
Cd 7.07534239930244 12.009510471387541 10.959344244924365
Cd 17.55251510940384 13.162331490233152 10.060681784525954
Cd 9.713713496068175 8.238326712745758 9.224086745100148
Cd 11.360159334186644 15.206421712806105 9.542664789536316
Cd 17.235436912747893 10.573791197655455 11.561476763474193
Cd 9.971739285603123 10.94234697408019 10.77369689780238
Cd 6.97952508262512 9.026321108245394 10.450308787900683
Cd 14.205838015608549 16.514387734657298 9.343183094474318
Cd 8.848783435463357 14.34099672405301 11.196813056485652
Cd 15.100318312615927 8.545037750363315 11.054660516407312
Cd 12.706187120014782 10.262256839127936 11.941092501100721
Cd 11.889063063516538 18.112205208194393 10.590251311887029
Cd 11.992924216091934 7.2841001518464745 11.312486530868226
Cd 17.67726773840403 13.136408827840327 13.110806420323637
Cd 16.203899879228658 15.40015832822799 11.595376864370552
Cd 14.579613066707335 12.600794615677096 11.95348746333437
Cd 14.788443474774782 18.314568832925385 11.689072343957319
Cd 13.25972558642862 15.20017055190191 12.004978997281844
Cd 9.189067674179016 8.000865556227916 12.186682637614659
Cd 8.488473037544965 12.87014561712366 13.751622499629715
Cd 11.41219095484579 12.997954560148287 12.402431644214664
Cd 10.20742657787966 16.203333711072105 12.936169013981504
Cd 14.043625966552877 7.174174303274638 13.625820134678783
Cd 10.41296627044426 10.312778878545563 13.728818193677162
Cd 7.258603653117167 10.0526772760535 13.394494292532784
Cd 15.35577117359934 10.033495324518041 13.777055571567505
Cd 12.446568574870764 17.9410011379877 13.642837544330426
Cd 11.129427741679116 7.209462134970062 14.324739264888729
Cd 8.033192580442126 10.971271696480578 16.166404713952097
Cd 15.946298614396282 14.15429982843637 15.241795344041092
Cd 15.142197296537384 16.783336179625305 14.268979320841984
Cd 10.748711214079046 12.584643856691798 15.804088961592889
Cd 12.344170466560623 15.046369667719249 14.947284590772934
Cd 8.540662347987517 8.022065941907771 15.672057440478449
Cd 12.86337957872354 9.4809320272615 15.340281367182163
Cd 13.62483787158218 12.335013406690058 14.850657340252734
Cd 10.566537073058255 9.67519235862856 17.201781080716167
