41
Energy = -17.32112138 eV
Cd 15.452860364629014 17.354057879714315 10.896239120057666
Cd 14.98778347314331 12.857581240036543 9.567246680692493
Cd 16.81196610373623 15.289608231385493 9.47811635846045
Cd 12.092923876668891 12.89843134880294 9.9204119114128
Cd 15.195663482949545 11.604801390349287 12.263142621046589
Cd 13.75870539094011 15.605617792915202 8.994646213563271
Cd 12.969159278235704 17.936959057999136 12.182002706086374
Cd 12.204633575633714 11.01870114080915 12.330188067682231
Cd 18.18021600431242 15.913970770129296 12.08107481444397
Cd 17.618156084883143 12.958133332559978 11.07285134823682
Cd 11.180594967446373 15.75149213299506 10.275365790618983
Cd 17.78924633151978 9.946675094918447 14.460427655834604
Cd 15.754393317330852 16.941204098227328 13.853116510741653
Cd 14.214626354225947 14.738421581750972 12.184546951642327
Cd 11.32718695314526 13.94746793820556 12.848818304179394
Cd 11.90431222418298 9.611247622198333 14.992340731916167
Cd 11.584700854801378 19.01717993285839 14.530091821441035
Cd 10.175444801676244 16.875293210839956 12.775037444328529
Cd 14.834043974021311 9.659413649107895 14.378087501289514
Cd 19.48920410192894 11.66314747466162 12.781867798643065
Cd 19.033102016753897 16.147935189372607 14.87208412922963
Cd 12.82138838259463 15.786782882228522 14.740361359826867
Cd 10.040104635050241 14.424628321362597 15.723929967194893
Cd 13.637099864411285 12.822571639722648 14.702950455336941
Cd 9.374042961415011 17.206968863451888 15.564620938804214
Cd 16.50206267280757 13.884603525535548 13.86467412915078
Cd 19.13278076097911 13.069550352819492 15.318948516090417
Cd 14.25675664832462 18.702247157891772 15.838859635657535
Cd 9.8719539276963 11.71368934955119 14.443248273180073
Cd 16.314037938531264 12.103630772591327 16.461419219091727
Cd 16.931354360738563 17.526557107894913 16.590693970423644
Cd 18.27752356952133 14.769602997702114 17.565484366231118
Cd 11.686420755675673 17.831167197887723 17.2872190441191
Cd 11.641341320173519 12.154653034147177 16.863890563060473
Cd 15.172640419214774 14.9657649232146 16.45143995075398
Cd 13.9654748459586 10.15204563386524 17.105809655610337
Cd 16.85267717682789 16.577222383257155 19.443350288042225
Cd 16.34068799617747 13.718270033564135 19.77516098383646
Cd 14.14605870889532 17.25287202056208 18.76356158650129
Cd 13.949227425947333 12.53337502522073 18.80417279266368
Cd 12.380465815941703 14.919480386738078 17.80552354192408
