40
Energy = -16.04053099 eV
Cd 11.903795157553082 13.823105081931768 11.029690172940013
Cd 17.52195634469253 13.682976664222885 11.776586082823021
Cd 14.529480665022465 14.70522727699355 10.156954286764648
Cd 14.305304898925973 17.642901050397075 10.779854002827157
Cd 15.122850917217491 9.45368505205301 10.239771015760113
Cd 11.430297045968178 16.892189171894994 11.479223985171803
Cd 9.545087021281033 14.556337625136269 12.820909357963902
Cd 18.452770391739644 16.44448353335918 12.2055728898522
Cd 12.61395615297662 10.81177224682583 10.865107314901755
Cd 15.90300269660456 12.207579405426708 9.577580564184327
Cd 16.791564398247434 10.886769082768167 12.378372631017879
Cd 15.53994997935638 15.720099811885447 12.901608995541425
Cd 17.919549959716758 17.88765023977766 14.793138768157032
Cd 9.41714142717113 17.232324159387083 13.82263504591698
Cd 14.217503578301107 9.308147120184739 13.129768478822152
Cd 11.623777297220819 9.873421141824942 14.398140484330497
Cd 16.78091657181036 18.95622680954959 11.891835746636017
Cd 13.07871360260935 19.059469668114673 13.023500642141281
Cd 14.290704262561668 12.694138586665193 12.85419678868784
Cd 12.649576094785932 15.084774440262775 13.803946613181765
Cd 10.267908768043801 11.659347473472218 12.430300974102607
Cd 10.233818108477609 12.810240955715356 15.181956629590305
Cd 18.42647591512046 12.237380120734237 14.455551562292978
Cd 13.126994180644495 20.496355867660622 15.918888000827106
Cd 19.104065268425238 15.050655499086075 14.950393984029667
Cd 15.634993907601036 19.69702463226933 14.598712545130336
Cd 15.900853171335818 13.90945498669616 15.300384429032796
Cd 13.257409895283683 12.622906660681661 15.690519382442996
Cd 15.805219755424153 10.49545383599032 15.250962436418654
Cd 11.653365135576692 17.9972573057043 15.458460693118358
Cd 14.545553750123327 16.870951375180702 15.53212769038877
Cd 17.343801784292683 11.897045929990233 17.30599723378979
Cd 17.226656064611515 16.164698060752325 17.069016499240906
Cd 11.102073565313106 10.521722607189218 17.27899633548903
Cd 10.255534298809263 13.210391643256727 18.208003832501923
Cd 14.010293572575696 10.228998016064752 17.542164154334408
Cd 14.332713058007611 14.746069255154648 17.815951311262616
Cd 11.637618672825626 15.307080683032861 16.66200676176441
Cd 17.06709000232301 14.123855080403862 19.13574636098211
Cd 14.670335775498097 12.270504956379062 19.526138429714003
