48
Energy = -20.55940254 eV
Cd 14.588922228794383 12.341671428950763 9.260448765637062
Cd 14.45922881846908 17.323994264348954 10.444733671772338
Cd 12.9168019062023 14.62705774340236 10.308550053509778
Cd 16.101009994579112 14.942494239489339 9.882685425790925
Cd 11.355448395162044 13.221586358868219 12.543060673528586
Cd 17.772938694045298 12.472733238717499 9.428749590576146
Cd 11.895034264059815 18.59347353361645 9.583367464367887
Cd 13.505561508248952 9.680719885038735 10.110702718676775
Cd 17.265388903829766 16.9378881422067 12.035161748298732
Cd 15.263172296804868 12.907721365392975 12.262084126542398
Cd 12.91985301268391 10.857703790940802 12.66952955864708
Cd 18.195593792710767 11.252073412852228 12.476630428963828
Cd 14.482007551319832 15.657683036843887 13.2091654657184
Cd 11.475740850356765 16.099446390698642 12.779776720283914
Cd 19.050058549661788 16.633957721606357 14.388159838867379
Cd 15.304141617500665 18.910579119260913 12.870762609270965
Cd 12.336373268583461 18.903150994541548 12.601602576914596
Cd 16.85452943099831 14.06617757110103 14.654936312117218
Cd 16.403370048760546 9.939334430385689 10.568424675538235
Cd 21.077021192847123 14.702575568848122 12.89737744994919
Cd 8.735890230416071 17.192981673296448 13.646955540858485
Cd 18.328445020892215 14.17293920775536 11.912978330097456
Cd 10.862575569484873 11.62817060816906 15.249809282387902
Cd 13.718272239713448 19.19082496963031 15.363091062545175
Cd 10.589913672873815 19.293328056109026 14.989730492840287
Cd 10.083690960645967 14.453859382672517 15.098223637139386
Cd 16.174797768328858 17.273442699156387 15.324027238603268
Cd 15.655608021537654 10.496112242953428 14.01962056046866
Cd 13.081756828766306 9.542396041747466 15.240523544946436
Cd 13.767190005221826 13.198665010539962 14.87858762089051
Cd 19.96284085233421 13.9299708444781 15.544335649477226
Cd 12.759277573231618 16.140954106001118 15.589816373127993
Cd 18.190707558404434 15.73170881437834 17.2034220962793
Cd 18.42752275578824 11.342961604800037 15.370689250985196
Cd 15.15103707030584 14.8875441872602 17.081755524458615
Cd 10.40314216389613 16.00069186142543 19.20024888863437
Cd 15.788568374615975 11.8551552591799 16.817011049498873
Cd 9.52844872988709 16.96181075311133 16.556643267461748
Cd 19.233185858092 12.470139952395611 18.00081464865035
Cd 12.027002176872116 13.906073269103294 17.538630700267
Cd 12.863602498560724 11.061502056210626 17.644537168706762
Cd 16.799403103028663 16.799227196582667 19.568924514342008
Cd 14.094117289642185 12.782996950395685 19.64061034541255
Cd 15.050559747103106 18.523347743764486 17.967245988260483
Cd 17.017423055032527 13.599324177596412 19.38817819169035
Cd 13.418224658806679 16.19813308511097 19.245249871819443
Cd 15.124292134928746 14.972450507514422 21.299909813096914
Cd 11.990908090969723 18.371865836552775 17.693119807084404
