45
Energy = -18.45269216 eV
Cd 20.01113031364434 18.016817876174656 13.397438508111149
Cd 13.287517241499042 11.068927963533202 10.59188318213474
Cd 11.988000732947004 13.989221803201913 14.34480410665844
Cd 17.63063700494159 19.9150854400215 12.753405740551415
Cd 15.144778732643042 21.24688295315185 13.834534095836
Cd 12.335848565831082 10.029710080502534 13.513939665060667
Cd 14.295127766672005 12.654880440933333 13.141612414816807
Cd 14.9023498655133 15.2867546753858 14.24950515263006
Cd 17.119027501081757 16.919862082068903 12.358773245946782
Cd 17.88893946377289 22.02104506012765 15.034660773625413
Cd 14.655044864670208 8.640546211329605 11.83471423348517
Cd 18.988437311738537 15.314769566631947 14.245279091150636
Cd 16.526559233214833 11.193605345828837 11.317446117146204
Cd 15.36685566587507 18.261232274963014 14.491285776223487
Cd 10.63123736075512 15.300604528849803 16.482346278760925
Cd 12.389358793176713 17.13868589834224 14.496090901235512
Cd 15.863577515824435 10.227567832612733 14.282857265127092
Cd 20.284405074100047 16.772745431262823 16.516829486911266
Cd 15.233534171781727 21.94260038443479 16.725627852755416
Cd 18.065482974243302 19.006940702952768 15.782183878236118
Cd 17.067392269826808 13.87520994843029 12.482455280022137
Cd 20.390626182873202 21.047308751275057 13.65967891375057
Cd 16.955439487836276 16.35363786352977 16.33718896747384
Cd 17.701391882248746 12.51881472822642 15.099513290846
Cd 13.456611365162269 11.728320447674438 16.025134568992424
Cd 20.43907012975263 21.71199445344056 16.725911833196733
Cd 21.702548591230517 19.241468646832203 15.702369204562443
Cd 13.81117246715989 16.114748798711663 16.999145863962497
Cd 19.235666401625014 14.012738529828946 17.106313671565463
Cd 12.63515283702561 13.54278376705062 18.261366910769397
Cd 15.629237565514904 13.752884149831214 17.037000975769473
Cd 16.261148069649604 10.704018423815633 17.12278096634755
Cd 13.385335047333278 19.619639579950505 16.256342659395685
Cd 10.890228307357521 16.344967973742044 19.168620195829934
Cd 15.96973500473534 18.793525790480945 18.011081110227476
Cd 10.78452528048572 18.351440920857254 16.84913572338835
Cd 20.030752674309465 19.156114404522405 18.451375143846334
Cd 16.445777172735966 10.85566403593463 19.97606656499511
Cd 17.784835550078416 21.192328176118725 18.049006274810477
Cd 13.231503790836017 18.261728562845512 19.023257440249193
Cd 14.73074655368224 13.179074928871103 20.419661954980416
Cd 17.7897283637824 13.497693033554519 19.565409431061504
Cd 15.956275034429025 16.02252617387413 19.377226400004012
Cd 18.847905397795998 16.50629727907368 19.21445860733304
Cd 13.29542386318874 15.702663523797655 20.720359724798588
