47
Energy = -19.6776063 eV
Cd 14.258430895355275 15.64132503826085 10.237036945845249
Cd 17.137480243159697 15.45954569959152 9.847650155722858
Cd 12.864975054613716 12.134752317615618 10.408018592932791
Cd 15.697041140183646 12.996164349024024 10.832201582433559
Cd 15.28892349591472 10.136498643591601 11.501220725312567
Cd 12.430839003487852 17.463919923098988 11.854733205528998
Cd 11.450868826261043 14.76845279317158 11.010662257972756
Cd 18.605370075651894 13.229033543400037 11.548513930369321
Cd 19.402274231739845 11.317191178946056 13.735118026068522
Cd 17.807875626322343 9.155746055209699 12.55372665409657
Cd 15.46138380722169 17.43333890388205 12.629704988928589
Cd 14.188688460121734 14.594306000093502 13.119614872034589
Cd 12.907035883895785 10.66627301504798 13.161555045728468
Cd 10.33952131406942 12.107613534390248 12.1135091281201
Cd 12.886402487463451 19.371181832599365 14.03670778161843
Cd 15.969108105519311 12.310424024175973 13.803608660594664
Cd 18.90440491847775 16.271070214968343 11.95722598758362
Cd 16.984636447384755 15.184902348504519 14.107012604676912
Cd 15.709040004943965 19.697742318731475 14.829451620176174
Cd 18.09601905697362 18.79251114919141 13.19066588214765
Cd 10.639629728313787 15.943591851395622 13.675321091649375
Cd 15.732307238393926 16.88039545500819 16.258543607706283
Cd 12.027503126004506 13.154849732229486 14.58951162202896
Cd 8.793480839229838 13.495315908136655 14.18720057495116
Cd 16.330564441970687 20.444743787684388 17.60368616489205
Cd 17.098161175908842 9.830248482159535 15.385373686472844
Cd 18.47524150203599 18.76740477334456 16.110630594141732
Cd 18.22717939841332 12.80706270357174 16.1212514763069
Cd 20.102483811644273 14.21625826254619 14.078371354740359
Cd 10.963298813448537 18.07316240621876 16.08937256410407
Cd 14.160764162566943 10.949474941628782 15.906766894839532
Cd 8.739733512140495 16.138967235472855 16.078893096159987
Cd 13.02463978569583 15.813538164364113 15.684298621286672
Cd 12.201075834336077 12.807503499405378 17.47039885351459
Cd 20.348191933417333 17.065202707696216 14.58126429376602
Cd 15.256487528005124 13.85748538069448 16.658755300632418
Cd 18.093250543698897 18.1557481796717 18.971930042698087
Cd 13.583317274294485 18.826189683296317 17.23823477729415
Cd 16.304699090167347 10.832304511306798 18.06271917704913
Cd 9.333968202602962 13.462345482298689 17.188556562268506
Cd 13.774428206550665 14.256813236302857 19.383162761347545
Cd 16.14702218380377 15.962943234273602 19.212243443502484
Cd 13.067631170370245 17.047802864167767 20.21050615675283
Cd 18.612004879990746 15.697183437919412 16.925934532454054
Cd 11.219527384085856 15.799735841462272 18.18316899985195
Cd 17.383869130654727 13.373129866273299 19.06855767417981
Cd 15.228014131281128 18.867399595764155 19.85620153530513
