47
Energy = -19.95962989 eV
Cd 9.445544610451122 14.22764842319572 11.010787667022358
Cd 16.90813253392663 15.799395798591178 10.183837615974154
Cd 11.347570365740543 16.871859976502847 10.902270222511747
Cd 17.41400685115221 13.576022880876973 12.172984562007716
Cd 14.078942763696555 16.477229197515214 9.82646020001051
Cd 8.934361487747855 16.7406117134666 12.547814892060796
Cd 15.312885168207655 13.390948835342146 9.7950957764191
Cd 12.4431263628046 13.977046425930874 10.63160630466301
Cd 18.744510801547023 16.319526804989138 12.48038666971278
Cd 11.13171367818939 18.467262117053213 13.877392238931863
Cd 15.604379798407352 10.502182745039189 10.617918917441184
Cd 16.30742884436706 10.787965616273937 13.573108258204336
Cd 16.736590720488405 18.404302665760888 11.595311302307016
Cd 16.81282198981132 13.533678301538432 15.203984392306092
Cd 13.681976745965368 18.29311931188548 12.227309525943753
Cd 15.34062122149291 15.829539701883423 13.427596987430777
Cd 9.470808681537687 14.133188378912061 14.038005763842428
Cd 12.313641437078687 15.472036144489694 13.509992944506578
Cd 9.028565764794354 17.078637791540515 15.55585564831585
Cd 14.348400860231198 13.03812550590197 12.80899001294595
Cd 19.207539676961105 11.304030385995173 13.42548585256914
Cd 15.425779186540977 20.335300799783774 13.408708923208923
Cd 20.367345830210425 14.041180336254307 13.456172029734006
Cd 13.508386089178185 10.855952473814098 14.842518062785814
Cd 17.249313401805257 17.77644610955434 14.618918182776303
Cd 19.372405226836246 15.753854316890889 15.72473069525552
Cd 15.969040806354252 10.511457448052733 16.53213417463437
Cd 11.439165660113753 12.092004319014883 12.79682982376944
Cd 13.808240947755348 14.033777554911385 15.64145758033563
Cd 13.816726062694388 17.744676519243903 15.36042693115282
Cd 19.61247534083432 12.55409801714407 16.062195993328142
Cd 15.925048914658662 20.05438452588667 16.22322048327751
Cd 15.902308939963499 15.912025431251095 16.88847162094759
Cd 11.182467737102469 15.25731344371918 16.4130086923407
Cd 18.460044341805773 18.336219640535475 17.222701380960054
Cd 11.092229831437288 12.27688284134315 15.724772726449313
Cd 18.433062219533838 14.174317302252696 18.15698768256283
Cd 18.723138702347704 10.44830406405299 17.889304872961947
Cd 15.33369927710494 13.004800525427711 17.972311871536398
Cd 13.15219285277355 16.585199752043714 18.094101762178003
Cd 17.579075740266457 16.73706912248211 19.44059877677576
Cd 15.152207779843 18.807876400376642 18.621275614320176
Cd 16.887329226702832 11.145534367714454 20.06635392475969
Cd 12.147526285573052 12.422585564958611 18.38247141815585
Cd 13.566120093770634 14.317964695192947 20.02759974187614
Cd 16.642412299853422 14.117830746458983 20.564766125916346
Cd 14.96039838046084 16.800296499073674 20.777476692993393
