42
Energy = -16.77627293 eV
Cd 15.503730979570795 14.11713188491279 9.085096987716767
Cd 18.328905648894953 14.3789480583316 10.455864755534567
Cd 15.977020809808419 16.98336984102258 9.507260838310636
Cd 13.823166966742994 13.891226671525565 11.56618191587
Cd 14.455007557441071 19.411409517426684 10.91274712283685
Cd 13.200779787096332 16.763056485960217 11.208856700643144
Cd 19.052431502278612 17.21039667501171 10.265419523723695
Cd 17.320162805671423 19.52944282198875 10.551998941237327
Cd 16.554761680330515 12.087006828921902 11.05000393647771
Cd 12.102444979610711 12.184142169473255 13.17843212862332
Cd 16.080127163178677 16.025681791236757 12.509953678375224
Cd 13.063889064069821 9.327217426114839 13.32259962176906
Cd 15.642742481597931 9.410684232191604 11.897950533440738
Cd 11.066450963676047 16.92678617276178 13.459102656892622
Cd 13.745420580590023 15.487278536736207 14.32428498182555
Cd 10.638243827101643 14.301025286280405 14.65614893238087
Cd 19.66048117706687 15.968559750902891 12.949371505492344
Cd 13.316863125873628 19.001671506491405 13.536485543802286
Cd 15.119620971694316 12.133703592820416 13.856194833551939
Cd 17.77607879121452 13.689773928703659 13.477934480268477
Cd 18.060230631947235 18.647753110071733 13.26977199526985
Cd 16.44079041878034 9.549412594823957 14.842041038053848
Cd 11.81851139122956 18.534146118655997 16.023049115454523
Cd 16.05652795923806 14.368297076272043 15.952509283339753
Cd 15.697370943870368 17.91142973604377 14.878412660317995
Cd 11.077980258415602 10.25216614126897 15.421401623850805
Cd 18.41591562721089 16.527649341469473 15.528062032232537
Cd 18.062915407066974 11.801513948335176 15.851563790488518
Cd 13.851735982902769 9.642759391140096 16.380572632533145
Cd 12.272946310780034 15.64568376856737 17.046603848480384
Cd 10.20044061722629 12.582655890001007 17.001439347654568
Cd 13.392245959687342 12.906703931214793 16.167200339539882
Cd 17.181469736621697 12.933965156853112 18.47579065432983
Cd 11.833998179943922 18.334767547644994 18.95249742937384
Cd 14.606041045476656 17.659391792001465 17.577075933023277
Cd 17.255647244929936 16.023227992722134 18.12695149230471
Cd 16.33486470686454 17.754792924971728 20.27997210408073
Cd 14.708900566387426 11.393084906832982 18.552741214213558
Cd 11.673486501604332 15.541480189366943 20.078295164105214
Cd 12.134864064565638 12.809195626299832 19.21413244579957
Cd 14.671355267915928 14.780968401731952 19.22611474486265
Cd 13.64336002300512 17.39037094407459 21.201841201098315
