45
Energy = -18.64657123 eV
Cd 14.574241933717484 9.740661167012037 11.789587455021392
Cd 16.01345408491026 13.050077396981715 10.92992627480919
Cd 14.211730817018914 18.847056666417643 11.364863549011092
Cd 15.613033955919496 21.220246547803104 13.015725727984337
Cd 15.217286735415197 15.998107317248854 11.604047025019078
Cd 17.253401617608862 19.279794624203596 11.472867152903113
Cd 18.179996888431525 16.95163264702516 12.883385485977373
Cd 13.028032147272915 12.404084085788227 11.306072841589948
Cd 12.308396215744352 15.128437152989 11.931265881397525
Cd 12.152591088595095 9.96499792658472 13.555232154556041
Cd 14.554343642828384 12.414836814734018 14.0937514969968
Cd 17.123653851543757 10.824579299300726 12.750577165351922
Cd 11.486252118510148 13.030867049426067 14.05947400977358
Cd 15.383756703128936 17.7250171632763 14.268115938588675
Cd 10.729210014590217 10.528927213650228 10.857072534377775
Cd 11.643454834979142 17.860947154040968 12.573706793997708
Cd 13.09598617282528 19.89320886812904 14.207948366408923
Cd 13.699125657403066 15.289378813959292 14.582931069481948
Cd 14.912022750571401 9.508098632879925 14.863913865110192
Cd 17.760128761527856 19.757921272969163 14.677688439901496
Cd 20.18169015020023 15.23718711367322 14.027605138518258
Cd 16.691946382384348 14.500424733248241 13.777937312324779
Cd 19.17340756395041 12.53557024583635 13.943089395480321
Cd 17.439482312259592 11.134171594826443 15.894716486687232
Cd 20.449040445153436 18.99977019805941 15.5004669490652
Cd 14.720205004021402 16.72242402714393 17.09294572951477
Cd 11.852389313342329 14.105990862569664 16.981671066591645
Cd 11.985280434226507 17.49505649671743 15.569416032816921
Cd 15.502065827357129 13.737056623831679 16.627616714534415
Cd 12.390231084782746 11.109919780118824 16.30727156229344
Cd 20.656568867486715 16.3387426037983 16.71298062485723
Cd 15.213087141733936 21.020714469041245 15.956108002075535
Cd 15.166562522900415 10.521469815701678 17.695674089594284
Cd 18.743618171037063 13.803252120142524 16.702063831348752
Cd 16.84549820434855 19.273350980364263 17.616578526845576
Cd 17.512007014159334 16.54124070821227 16.02141032598413
Cd 13.315257091748537 19.477895297860872 17.65102804166752
Cd 11.432475915122772 16.703775257669236 18.308672894961546
Cd 16.940516552987255 14.924157263885743 19.04827280695718
Cd 12.883693749659326 12.035328267827744 19.136173741433016
Cd 13.81373802478623 14.922259884107788 19.445969199260414
Cd 16.092031861828445 17.69026676285434 20.025248985196043
Cd 18.809977035176836 17.288282702650104 18.833150396807124
Cd 15.852779504183497 12.36419901692508 19.912652997733787
Cd 13.240436772013775 17.94270229790778 20.26721285858554
