49
Energy = -21.31959616 eV
Cd 14.497062168630272 12.56620044198624 9.796041633243684
Cd 13.780446779666997 16.808345768302804 10.200974806941279
Cd 12.254830008755478 14.458054591913445 9.436054310812676
Cd 16.711068936092772 13.939310078695339 11.132035665228523
Cd 11.759458938823265 12.670760573329753 11.79655622715157
Cd 16.646865304012707 16.918612928280968 10.821504128924138
Cd 19.019590383354362 12.551885667759521 12.697351349668672
Cd 17.848215960061673 18.51612517545251 13.170501077542307
Cd 14.79939216451315 18.646277523071518 12.514495898752685
Cd 10.277102400670811 15.327350345436134 11.548859632751203
Cd 16.952935530944657 10.903077852960074 11.051311771044166
Cd 14.026773411372396 14.725760170843081 12.629860839040939
Cd 15.851995798505614 12.679077516627196 13.97990837972913
Cd 16.832818487965632 15.612841173092118 13.601166988556761
Cd 17.495828232932194 9.78220033460935 13.708777083083113
Cd 12.383539329221614 11.596805632595233 14.449082123009703
Cd 11.524817550743744 14.819653605434008 14.535325514675364
Cd 9.695053052161184 18.298440192246233 13.861586837789504
Cd 12.195559650452356 17.309485395284884 12.783444219966055
Cd 14.182203827638814 10.769732656961057 12.238487756879293
Cd 15.787449644446461 19.952770318151654 14.963857520656509
Cd 13.91984441253546 13.749743500363087 16.00414219525474
Cd 20.111071586203124 17.624652737662114 15.106611585926583
Cd 8.490442291050924 15.507708344620342 13.880148837629722
Cd 16.830404457271538 14.281212488048173 16.40377687577939
Cd 18.813125561897756 20.36684759404428 15.407204419282301
Cd 19.479457291435025 14.699877285727046 14.822936302804871
Cd 11.787129455051877 18.3258662857184 16.165199546865317
Cd 18.929064340179366 11.684271970116917 15.650132431982161
Cd 14.366872320545829 18.879504051514683 17.414552151891634
Cd 14.69402822098455 9.355062196696666 14.829501464815486
Cd 11.554961296265345 15.430656237827355 17.57594629381978
Cd 8.906764450920289 14.152496403619327 16.438183403654346
Cd 14.291206189282073 16.692008051700256 15.029298589684318
Cd 10.893024927658132 12.201721403284898 16.959229844637836
Cd 15.629338873952582 12.587806464679124 19.340084607414394
Cd 19.495620497230206 19.453207765914186 18.130129805430656
Cd 17.052648024293198 17.28963221150949 16.14842828826708
Cd 13.3071880893802 10.56185252865377 17.20775282771037
Cd 9.079742709401167 17.09353281155665 16.545481653196397
Cd 19.931701896958714 13.714932620279027 17.772623933454977
Cd 16.80513495482329 20.661496699932087 17.725601507649923
Cd 16.113201152311454 11.270850251681008 16.676979232424063
Cd 14.551470177077777 15.849145602711738 18.164276120708884
Cd 18.35008950463071 11.497455998947204 18.68807644682022
Cd 16.866574171633324 17.928793609230553 19.13075842512924
Cd 12.83092630937618 13.179521739644048 19.08703359234032
Cd 19.522542565519313 16.53841035751688 17.854325991896097
Cd 17.30312097345145 14.998669106054585 19.354104120370625
