46
Energy = -19.21107396 eV
Cd 12.460960378222678 13.048861957903451 6.610450510811363
Cd 10.331275132226173 11.224497772379006 5.4241358150308026
Cd 13.545591281911202 10.636213045943661 5.3627132917507385
Cd 13.971264859577527 14.687856982348519 8.610593627310285
Cd 9.112011088818857 13.285462434412144 7.706284142418752
Cd 13.835978399190195 7.6304265343000415 5.51053938025764
Cd 6.385868442944007 12.215747428209857 8.468457481827123
Cd 9.923795449477163 8.216759226999576 6.122319718330493
Cd 11.8785474802738 11.969010814706948 9.372154785941236
Cd 15.368418188336685 9.475345930258799 7.581002825079819
Cd 11.959787394453015 6.400492469397514 7.474638986076323
Cd 15.49719052411279 12.269278560605873 8.335423612988707
Cd 7.029822478904872 8.549709396412501 9.736481121369906
Cd 9.10829249522841 10.360723398387409 8.120968563552475
Cd 9.359400847419431 16.816048691591515 10.082861281190914
Cd 7.1322942164004415 14.656369647967868 10.007357685824958
Cd 12.203472522687862 9.433965020293645 7.954768595151184
Cd 14.589326517963755 7.142390639438214 9.217694813631997
Cd 11.020844052900836 15.490414386653615 7.829123026312102
Cd 12.056138418568915 5.887635577568815 10.40567143378702
Cd 8.809261431817342 10.90790540321746 10.989308147326279
Cd 9.478220808715232 7.0370466626971515 9.130424063686855
Cd 13.817360311127636 13.340793202619631 11.372014106972065
Cd 12.242110333835601 15.946386998776687 10.634905743541305
Cd 7.457504279656604 6.0775353892369335 13.773722591449788
Cd 11.398487621835647 9.09957284164715 10.733743480652068
Cd 8.959319485225468 8.073532033925074 12.096546843992838
Cd 14.390669700726342 10.415120572825622 10.594967208528
Cd 5.966186475172847 8.673989296867044 12.939128608474757
Cd 10.029084309887624 13.696738621235252 10.79507782777308
Cd 5.514099200610812 10.814378539842961 10.92378929374741
Cd 10.595814920343999 5.632664403221338 12.913078871490448
Cd 13.928413868793742 7.715888514071346 12.097562956084396
Cd 7.024644681414009 12.824753938986873 12.568048638553309
Cd 8.32969660916944 15.634891483998441 12.723729018761237
Cd 11.522697227211054 8.558479078670217 13.878834215019555
Cd 13.798171558614927 13.263621126313032 14.35148017581286
Cd 11.572545208518553 15.077202944904146 13.385831325238568
Cd 8.55256445755564 10.546432226498737 14.010577424516983
Cd 11.349616957339464 11.602711362652228 12.468249459999205
Cd 7.244505223727649 8.466616158484925 15.707668254420145
Cd 14.029962088095964 10.286106516517505 13.635275679589153
Cd 9.46360492507348 13.349444819658657 14.483488792139603
Cd 9.827215875608779 6.5351461972987615 15.658850120014224
Cd 10.024072107794293 9.33135198840254 16.522900848116965
Cd 11.686464466410287 11.477054065553284 15.45972990935649
