42
Energy = -17.39129261 eV
Cd 14.023834781996314 12.996561059744081 8.733511939654983
Cd 15.76414367909266 14.961233012560289 9.988486484658877
Cd 11.276833331389229 12.55087542871556 9.708410166416513
Cd 16.28225493871668 11.649879157977415 10.174306583243066
Cd 17.97901961447219 13.500019278509683 11.703506813327126
Cd 12.54530098087492 15.37289301427053 9.88850177445048
Cd 17.875903664034624 16.620599800116057 11.0934276484693
Cd 14.850840070108596 16.81298316315607 12.195201220683522
Cd 13.478761823410611 10.583219521427793 10.57637376250546
Cd 10.451729286103257 14.174303599673214 11.97642205454654
Cd 13.832366123268491 13.39309880845576 12.171145207942724
Cd 11.01308609580874 11.049922672780129 12.25015505964223
Cd 12.32999654949694 15.932396744576073 13.55881172432158
Cd 12.077432357658097 18.03913884418289 10.865311498656244
Cd 14.521093116338145 19.987994900999627 11.767099555566348
Cd 19.272283977294578 15.58039695349669 13.542514465142386
Cd 16.01410693660035 14.53934863890412 13.770437312116236
Cd 17.36831534937926 17.910500208690085 13.731675980638736
Cd 16.63550761837391 11.188033479844743 13.127357602448955
Cd 8.537446980977457 13.386303735840087 14.047741888617345
Cd 9.672119243136597 10.565445172029657 14.793984948847745
Cd 13.669231874535894 10.493588310523268 13.55938340157105
Cd 11.948027582851058 19.407489056599275 13.446821732902972
Cd 17.72820965001384 10.437114155123291 15.762915222070268
Cd 14.842034691312325 18.86233774173235 14.803529201049454
Cd 12.126493237289056 13.113937467342309 14.684348740515405
Cd 11.345817158979521 10.718703817909608 17.201066555116203
Cd 9.906085014665516 14.248958043199242 16.522752293829313
Cd 12.213533412068433 17.758383082592072 15.909307310105296
Cd 14.097945164901532 15.235406460073657 16.003517283777587
Cd 19.080471123983525 12.954502776217025 14.808543587633292
Cd 17.47602695223482 15.946896456346295 16.04320515059275
Cd 13.937369955412782 9.419038095880273 16.347092363186356
Cd 15.005651698454813 12.432333057388691 15.590999878848251
Cd 11.223093448535083 16.24932947345051 18.18536799380146
Cd 12.552552741836077 13.26860946600699 17.935921929775766
Cd 15.120353917097535 17.772023773712966 17.51135174233567
Cd 15.14599384272941 13.039501876076018 19.2621447238016
Cd 17.532615887527374 13.167257202954316 17.361664594688992
Cd 16.668792236775705 15.626179898787267 18.852715266493313
Cd 15.946845454359938 10.415811738071282 18.213212239531043
Cd 13.774175128551482 15.781147546710729 19.473451789124926
