42
Energy = -17.36879721 eV
Cd 15.482912037448935 16.21310267762243 10.01143244338871
Cd 16.451811487814876 11.606254255615468 10.322387416233555
Cd 13.018346207624436 15.819715418163558 11.65783507568084
Cd 13.758326271814473 11.309727764444325 11.256913183809862
Cd 17.767659904245914 14.296431473042412 10.460418195587208
Cd 11.90942594034676 13.195202182489457 12.475875389101226
Cd 17.845006907222896 17.245829971954816 11.51175955787276
Cd 14.191032660106101 18.573147249523235 11.536250856075426
Cd 18.482224558851126 11.705018706847602 12.381432621280211
Cd 15.301183183106474 13.823571498711187 12.566027978775447
Cd 12.503170755472079 10.685513031715741 13.962316491312013
Cd 10.398538913737962 15.607272902164313 13.243665666387113
Cd 17.042248134342962 19.468318711122105 13.518124562660416
Cd 18.129797519339405 14.73529652667702 13.47866415270661
Cd 18.878230001602923 17.53273547217931 14.583211674755574
Cd 14.823893060433221 21.185675869004417 12.74266781154639
Cd 15.451074656062307 16.732274956587815 13.789915561685476
Cd 16.331965625118894 18.57760706987637 16.48271278567813
Cd 15.747467219168406 10.682867735559155 13.591323476617937
Cd 19.508263563296968 12.361623570589655 14.975868731772708
Cd 20.355820768138667 15.209867940668415 15.552857750629734
Cd 12.510209446378774 17.69701887938995 14.29748690932428
Cd 13.99360283677807 20.120855106762864 15.374836124968725
Cd 13.647775279430574 14.388882772838619 14.880442153559928
Cd 14.385739508373277 8.618832623484098 15.56172926635815
Cd 10.76506424421507 12.839492729946242 15.28982974456926
Cd 16.66832515219142 12.35466399540561 15.966671417899464
Cd 16.683534975363898 15.295469886361246 16.115832855161614
Cd 10.882462481863495 15.774173404138049 16.103379019266022
Cd 16.709688310437002 17.601927892154258 19.31104578718784
Cd 13.745833563554688 11.653196152529274 16.420091305625398
Cd 18.906161948869094 16.83503501265807 17.556751136167776
Cd 11.714895371555738 13.525571391841357 18.05352307969585
Cd 14.057712590171548 16.46370729573667 16.9323493963502
Cd 13.820214116309456 17.640072863375536 19.74042737490172
Cd 19.537981933372485 13.297617550321673 17.73836180234315
Cd 12.31464762307374 19.105969189669985 17.50711270611311
Cd 17.525632223902253 14.57825763624075 19.29466100674539
Cd 12.448872794351553 14.75709007141504 20.631297322356776
Cd 14.800760890245618 13.816695979423438 18.150055725399472
Cd 11.093902948602302 16.699658023221467 18.821973123215795
Cd 15.269639195662466 15.22981336852698 21.011538169233063
