42
Energy = -17.365009 eV
Cd 11.0891840003583 12.591451080633814 9.613913425258248
Cd 13.233476642239347 14.588225163271884 9.734794545315676
Cd 12.719814320222207 17.54733851106052 10.1521829839651
Cd 16.262758931845827 13.579893647421835 10.207800659762714
Cd 10.436617820325798 15.969314381713607 10.893810284779489
Cd 16.62241803789437 11.061221143783525 11.707366967507237
Cd 9.299743629420618 13.431884827335528 11.796235031644082
Cd 13.849239074074795 11.74049028857089 10.692285750927244
Cd 14.852024238910692 8.779564171534751 11.964067768194045
Cd 14.388913642208943 19.16026513770088 11.90708827986379
Cd 15.180388261537194 16.13909755275613 11.442458152770891
Cd 18.199002112160475 15.183818566801747 11.90191413215068
Cd 17.41481273642405 18.134818668162083 11.94090252126118
Cd 12.12487860152824 17.75293246816537 13.281597194971132
Cd 15.736687672582232 13.688916215459368 13.421911984519785
Cd 10.082713166968642 15.593091736731122 13.91781673145484
Cd 18.954669093096975 12.349180278778935 12.941409094726883
Cd 10.790220337253363 10.775888365874831 12.005587303843418
Cd 12.797895949014599 14.550112015157445 12.798071888728613
Cd 13.433411450975417 11.759398487843923 13.659817522064309
Cd 19.4769470499307 14.628155660003967 14.597641029283361
Cd 17.638701705831902 16.925940569652195 14.7005298234936
Cd 10.442437024112161 12.539817616851584 14.44206186640728
Cd 14.994814153848717 8.770189531662808 14.964482072216432
Cd 12.233124313370213 8.738422701047678 13.483515660116232
Cd 14.729246317187615 16.083717549881897 14.882641607797739
Cd 12.86338787084239 13.955218817532346 15.803898051141445
Cd 19.278278351567185 16.04944453964047 17.191052037280492
Cd 13.476621014581951 19.120441057195674 16.117716094957604
Cd 10.282498673934672 11.678151731743679 17.2397497208472
Cd 15.810147637800497 19.23616122748086 14.429820123976542
Cd 11.489390302909696 16.91263878527483 16.26723337631257
Cd 17.163371044188395 13.519901650561673 16.03375325564197
Cd 17.35510779241541 10.644464701175249 14.725659508756321
Cd 12.257561481052406 9.710133569460924 16.310424668800795
Cd 9.721784022677438 14.562801632901802 16.789253346476354
Cd 13.950091872688265 16.691137832939415 17.901061670874412
Cd 16.799171672153527 16.373894822491987 18.632573719777902
Cd 14.927787838450413 11.521759518887775 16.275524560140454
Cd 11.925407639701257 14.58982928978827 18.856162633378073
Cd 12.97125106545621 11.75040787226724 18.557917386020147
Cd 15.048464781413612 13.924929957956207 18.12075890775027
