40
Energy = -16.54042808 eV
Cd 15.075951634160335 16.891082905676292 9.945225560472785
Cd 13.277727492874757 12.347795815306714 12.041400699072561
Cd 15.610235970725753 13.963638980617256 10.788069228839838
Cd 17.843642283251917 16.31633701061401 10.942553471994652
Cd 15.982252165161361 11.178383974351053 11.942592377971014
Cd 15.297693402397046 18.42928322445233 12.455148055048305
Cd 10.809091609878292 13.711843190588649 12.872635784848091
Cd 13.13350668938317 15.349091552908575 11.73187070162968
Cd 18.394951655409606 13.3467614175341 11.743720722441326
Cd 10.651744788918688 16.748477984178326 12.63267939399576
Cd 19.90121772388979 15.679785955039216 13.13390944367396
Cd 12.29197761661906 19.154598599295994 13.28445307904539
Cd 16.29759734901859 15.463015980249379 13.608729131778723
Cd 14.245095705928167 13.75348895817028 14.883346220443057
Cd 13.682051944987869 16.654543077347256 14.453449303366554
Cd 18.228724824447493 18.14307741787452 13.451144170968464
Cd 14.22653421365872 10.72540157547194 14.362914999371977
Cd 11.610204692973884 12.000189139331116 15.238025190966802
Cd 18.761202218638285 10.315780476057812 12.430091258016388
Cd 11.720532902704019 15.045974250379318 15.980981131876861
Cd 14.797731851215058 20.407998788196952 14.72502968232902
Cd 20.21206170572187 12.624329997829689 14.063008886147513
Cd 8.911610533317036 13.300685573886106 16.579881280323285
Cd 16.40134569758536 18.138598463490165 15.735693338351249
Cd 8.679893089789616 15.19823146271386 14.426545194035397
Cd 19.35744069611786 9.847672610920341 15.276961972718032
Cd 16.53425990921881 10.088670597640508 16.12302372623066
Cd 16.985872989763532 12.681611059642474 14.510294397518647
Cd 19.006929678205385 14.835177590393164 15.817167462728564
Cd 10.177179525550606 17.699969819196724 15.450515928771235
Cd 19.399739938562153 12.10017775264639 17.162440336147387
Cd 12.523022834502381 19.436279079416682 16.37989514008945
Cd 14.10620238527535 17.16321771160385 17.536647758248343
Cd 11.370345233131536 12.547816419690726 18.234398427619713
Cd 16.48915445382684 15.552185507762939 17.06917248788917
Cd 13.918607231958656 14.177609104913072 17.972520330379893
Cd 9.744809011163584 14.99891203374919 18.930565773091573
Cd 13.874847766184548 11.190980605603203 17.316166334668008
Cd 16.497677988928075 12.671299541005055 17.759829743566808
Cd 11.225149587598766 17.375843786898272 18.26312086596704
