43
Energy = -17.49856373 eV
Cd 15.277775754923162 10.812966295245417 9.448261357042238
Cd 19.20949659209562 14.421311929052923 11.10822669258171
Cd 16.476500248806385 13.814575917515894 9.792148434472576
Cd 13.499866142714286 17.30858396350476 11.118133427513298
Cd 16.844131839499894 8.91786703826587 11.350325721520745
Cd 15.09768403353733 12.290017528347708 12.203597013176015
Cd 18.199302174756596 11.567002796395798 10.991210142511605
Cd 13.209462853366539 14.410614430391455 11.709478826988681
Cd 13.081121870047433 19.210685829519203 13.244083472898092
Cd 16.06627890714543 15.602614859170092 12.12531203991547
Cd 18.504061430470557 15.494579595275322 13.990585557803993
Cd 16.482107970532304 10.364346913194757 14.007818818946236
Cd 13.610505463617232 21.656662253744877 14.664420825704191
Cd 11.45779466750966 16.221532562236252 13.310031050459651
Cd 16.013563661390425 18.34262620307326 13.147556681967288
Cd 19.062833888862695 12.37293888080837 13.707465495132032
Cd 20.236981131482562 16.510512859262075 16.430875415323072
Cd 11.728330215459888 18.150489924494615 15.67336294760246
Cd 18.214319010244807 18.32602516598934 15.229652865343978
Cd 14.249031362445699 15.905961533055839 14.590415438008241
Cd 11.284764772144602 15.194155557355161 16.12897507211788
Cd 15.495142160011245 10.890243676941314 16.723486788755817
Cd 16.178612175315223 13.509800843280628 14.754683995208017
Cd 16.69875674157672 15.925066999363162 16.491468537363893
Cd 18.541203268424514 10.79336473057174 16.277283086834547
Cd 13.485792607138968 13.091733550278441 16.095105907291945
Cd 19.791121680831363 13.580289569724716 16.28327179688676
Cd 14.72230552486619 18.32012509466889 16.400357525203727
Cd 12.15557766113258 20.599135206217895 17.475921012488918
Cd 16.45331767766051 20.670002196974256 15.122724773651651
Cd 12.370097201714719 17.91541391564596 18.728191373641973
Cd 18.150283827150613 17.661699521887506 18.585302325639194
Cd 14.007640728908688 15.584573914558293 17.726967902123295
Cd 17.233760719675264 13.16804378651725 17.82923210501386
Cd 19.39755040142202 15.00939950727333 18.915365056494178
Cd 14.69147522110833 22.03298600959391 17.418843138891752
Cd 15.213254637815403 18.197044480338114 19.994350356844002
Cd 12.280506833171877 13.407198740578012 20.763467757552103
Cd 16.66396075964979 20.047630587591108 18.181651833247784
Cd 10.863653573501482 15.289234517610208 19.04393668923043
Cd 14.477653530944712 12.767435660840082 19.012713760791595
Cd 16.374958329728024 15.287309784614378 19.73321272739127
Cd 13.602316650238457 16.011051572071487 21.125380155463443
