46
Energy = -20.98434069 eV
Cd 9.408901073160443 9.80406271105627 7.186628591156895
Cd 11.533591609813778 11.64230231999015 6.074666638085294
Cd 9.268183515294204 12.902996903622642 7.5761891568437605
Cd 12.528555763699488 9.009467121745772 7.33701950466906
Cd 7.132025511629975 11.115643037752866 8.628904818930938
Cd 14.21362299038379 11.525264474800409 7.356156406586274
Cd 10.272479452709318 7.28284897495 8.488250108104644
Cd 12.161257671902927 13.371429172174077 8.490053276692736
Cd 7.1413162489787005 13.777929368059336 9.851207426598126
Cd 15.015302601970898 14.379749642668402 9.007338000600107
Cd 8.287224848694704 8.832653444035886 10.128957971204354
Cd 9.918627448824944 15.206569783754516 9.239387893968589
Cd 16.559316000401736 11.898887215664654 9.136326361391625
Cd 11.102589424687084 10.41832252839699 9.684586100330241
Cd 13.54505713748856 11.502831672594562 10.749219482954159
Cd 14.94282687257469 9.230102602590621 9.077332405085292
Cd 12.746199670321813 16.237286409901788 9.141791206815178
Cd 12.8414940661503 7.255728303217912 9.921769024243313
Cd 6.711077608372683 11.045631387468646 11.56182241374804
Cd 14.297884738134105 15.851636668442262 11.72506420975635
Cd 10.11138330919127 6.781806571112543 11.41696240328845
Cd 15.916289430882248 13.401495117536902 11.801197107185894
Cd 11.94624819139265 13.789884473348536 11.878727637615409
Cd 16.345182410441286 10.383563294443528 11.71075014033747
Cd 9.528565244057381 12.422062910040314 11.160376903481723
Cd 11.112379620859969 16.706782143934056 11.609665635591634
Cd 8.194314584089303 15.96763539316554 11.530677973782646
Cd 15.267216819134513 7.635060650893883 11.556591685483816
Cd 7.2716460735243285 13.671438201457173 13.114415261126398
Cd 10.654594175092399 9.915133041088126 12.534138332596532
Cd 10.108103297210425 7.063199733516233 14.365190453185605
Cd 7.094084359089409 11.124379398169918 14.531819092455901
Cd 12.84041838557985 11.5376390255492 13.609750842291222
Cd 9.700317031626827 15.337151852968551 14.078139492683617
Cd 7.840134446262809 8.55082534755397 13.03574864796367
Cd 14.504497605135866 14.153228831282382 14.41215732157491
Cd 12.538301887545902 16.318067490391783 14.15114656252699
Cd 16.223763086359885 11.792672119011716 14.357246409078895
Cd 12.729701419685508 7.249390597862646 13.000132173429659
Cd 14.84599801101083 9.106999799429662 14.138980477225918
Cd 9.879549192410762 12.443125943911445 14.35175493281976
Cd 9.371709580714645 9.672265061678415 15.573537685911528
Cd 11.853872673755665 14.112348690828526 16.028438750444508
Cd 12.240964038737935 8.982515957013712 15.445448316409546
Cd 14.174821688762409 11.37218613765671 16.433497308747032
Cd 11.293222042838709 11.43261133385603 17.02565031558372
