43
Energy = -17.40875995 eV
Cd 15.563819812776968 19.696977967985234 9.324697678614422
Cd 14.2953466218357 16.97611358131333 9.39860390000013
Cd 14.702053528042086 12.070608718063815 10.60600991025589
Cd 12.719008521521543 14.557911336498368 10.289828045517126
Cd 16.924500344924127 17.943737551622014 11.44146110256379
Cd 14.112350826911042 19.5671347682033 11.9921268209436
Cd 12.052097672805642 17.33918743070992 11.475952086128526
Cd 17.381632242772884 12.66415278043773 11.829741065004322
Cd 11.725131298832487 11.899228236657587 11.02191836250345
Cd 18.428728960701186 15.285305270341558 11.107821731840895
Cd 12.27051768075977 14.998614184314746 13.544996236316573
Cd 17.844647560116535 11.55469656097919 14.635683858795941
Cd 11.296617094254561 20.98558518651942 12.399735853186534
Cd 15.051898874708387 17.385612290436235 13.807789515067112
Cd 13.370534512906918 10.050898241615254 12.95785725321447
Cd 11.19449229325019 12.050093556046638 13.902377788081498
Cd 19.209718273674653 16.969670216813523 13.485421006321017
Cd 16.284324720767874 9.952195797947649 12.638360717090324
Cd 14.453032083879853 12.875340760195963 13.747040034432773
Cd 12.241028826010737 18.543027036469287 14.252944308820092
Cd 16.75129071149017 14.853867168948238 14.464365958302242
Cd 15.332407982079337 15.11186489896592 11.741390163165574
Cd 19.68867804151168 13.953149354044779 13.67800988651606
Cd 15.275825872313167 9.989059146202726 15.760536603152067
Cd 15.10286789303239 18.98272875644494 16.654418307615412
Cd 10.108159028309846 11.260166983202891 16.850338652975932
Cd 12.23287852788502 9.63943616342222 15.619683590276086
Cd 17.531935603811455 17.68939541060944 15.762048269024504
Cd 12.618282498597194 13.356164456259615 16.22348455233442
Cd 10.741474145936909 16.348896215074923 15.811077366095974
Cd 15.67530554882136 13.00232255139447 16.4894446423093
Cd 14.266355562185097 15.790846025244578 16.130112562725884
Cd 19.71086556899841 12.858054614639515 16.530023935034947
Cd 13.22125896295242 10.93367165923354 18.071947989020316
Cd 12.207609609234973 18.569601789212964 17.266316095597695
Cd 9.678286561265974 14.040154215938687 17.489334941740864
Cd 17.775158927491542 10.598338240065434 17.588297409532856
Cd 18.416654799065157 15.320679515482738 17.35811587052769
Cd 14.348569580605876 17.484690153688515 19.177707062397833
Cd 12.102849700888157 15.639139850027853 18.464534994564254
Cd 15.94126737691223 11.930207846723324 19.44962418286806
Cd 15.858342446097128 14.973624067476665 18.767848545258058
Cd 13.322335581966595 13.337991727432435 19.821113427172495
