45
Energy = -19.95393335 eV
Cd 15.832410789825023 11.337647872911672 10.338698953260222
Cd 14.100679012190842 17.42880838726759 11.47598362126552
Cd 13.108101697895492 12.50566057456066 10.479873616808915
Cd 15.182424666078797 14.738852273464811 10.34497795163535
Cd 12.229334269799589 15.427507909626792 10.519644558543476
Cd 16.962568190521775 17.095214742021007 10.819426372241033
Cd 15.38071428372698 13.268194105306241 13.05952668783474
Cd 17.88995378317311 13.460230380972996 10.610528453425228
Cd 12.669233096431242 18.158056848058926 13.976522204896826
Cd 18.67120406769777 18.408634949596927 12.855332215003903
Cd 15.131127921944156 10.02094655231409 12.869363972938869
Cd 10.666264156050113 13.396005664312307 12.046790773861536
Cd 15.748893564086453 19.3003840115362 13.063403568921789
Cd 18.87227518021047 15.423554888023835 12.482993548570139
Cd 9.86922491930262 14.37994023667377 14.659513417179296
Cd 18.156769343473083 11.06296931955435 12.496012461570484
Cd 10.072295294995266 17.267915232360956 15.543583515185125
Cd 15.99091074052549 16.198394649353368 13.837319884309844
Cd 10.405449215919404 16.606388347199108 12.575922057091333
Cd 17.520697702034617 18.65438325365344 15.518689003705722
Cd 19.65380545810943 16.555478248305715 15.113644672433054
Cd 12.552373020356743 11.484891857151002 13.238739228484363
Cd 16.886634275183958 10.828315589826731 15.243968750875185
Cd 13.089185973679793 14.929516754466784 13.765176381239295
Cd 17.927965444655527 13.685938964109138 14.762239694203993
Cd 13.903453903587103 10.372087801607373 15.664481988042509
Cd 14.687158998532105 19.467504474999505 15.915984926888227
Cd 20.270129410204103 14.421113233895454 17.087194043691227
Cd 11.03648796568907 17.26448755402075 18.52498568704565
Cd 13.851498409672264 16.366605976753632 16.266764334113567
Cd 16.65171275041538 15.667290670910708 16.70625941332543
Cd 14.7423734680933 13.422388203155267 15.990179948830896
Cd 11.847922759717815 19.467827429492637 16.65382630899987
Cd 18.122806565494198 12.34913997238364 17.516118398297444
Cd 11.366438030822636 14.635929458033267 17.2013033463997
Cd 11.418033665005971 12.010530838697283 15.868135515606953
Cd 16.632460066660197 18.935308771200184 18.266604893469175
Cd 13.84237906609054 18.30399856810531 18.80736298481892
Cd 19.059562386233083 17.201206321030288 18.037264105203597
Cd 13.034510625272063 12.3061199553553 18.406125851095677
Cd 15.597045626955031 10.66501074592659 18.02580069361739
Cd 15.732032551075854 13.502658753571597 19.043339280446062
Cd 16.13422888125976 16.462022983136695 19.864483642456417
Cd 13.384393715385743 15.289811280410552 19.323613050116883
Cd 18.481395962626664 14.631646271347863 19.498816898708167
