48
Energy = -19.32187859 eV
Cd 14.776966325064116 12.803990962465965 10.18686165504391
Cd 12.45162362007371 11.739708372837114 11.642325016119129
Cd 13.860636307096337 15.499513086496918 9.35517659123719
Cd 17.33447418137742 14.376341245938047 10.055664359050205
Cd 14.616273469470055 18.12102546897371 10.527408000892184
Cd 17.304470695204586 17.101860732921416 11.197852311164015
Cd 10.96563571527384 15.161803701213724 9.549845634902045
Cd 17.48065249722916 11.56725032157852 11.148290711397452
Cd 10.048364589221537 13.563604542256103 11.779935986623755
Cd 14.930658332515247 14.92428488758485 12.474456891184834
Cd 15.028727133839084 10.547541217969325 12.560571308103887
Cd 14.38811481670669 18.852880721601142 13.395635296684654
Cd 13.966696161553797 16.274517208870098 15.188546033734132
Cd 19.865206581840503 18.231731118028154 12.189515754534698
Cd 17.429602717545016 13.679772945719423 13.348146468392803
Cd 12.492437925615821 16.588084111780695 12.140515630584979
Cd 19.80095088943562 15.519846227793723 13.510355904967355
Cd 16.81779251631305 16.62151104155056 14.28536296155711
Cd 12.383426306998071 13.831542584790709 13.772851542696161
Cd 17.722986470703596 10.810239219745075 14.248964428428579
Cd 14.705862442545076 12.02350109182026 15.0844149046723
Cd 16.17145770189606 19.491224315786194 15.608346133920207
Cd 11.674224290454672 18.476687667660645 14.751223624385139
Cd 17.47427577020592 19.81916559863997 12.993310865570738
Cd 12.391196469716855 10.474580492197179 16.542792540633574
Cd 9.939192138610808 16.027399221276216 13.648829768101248
Cd 16.343861408360286 14.248635848752969 16.23121411729476
Cd 19.43591907972311 18.341772913480966 15.151342818531203
Cd 10.792934166204976 16.18331728283318 16.48111611316819
Cd 12.706322947587267 13.803356899280251 16.643941365165677
Cd 15.851896579380904 19.886234766263968 18.440489313448584
Cd 19.394643344547692 13.207162442645933 15.539183896284957
Cd 17.147832935297043 11.281857779712862 17.052820206575955
Cd 16.927136217875628 17.055138051194493 17.302897220633294
Cd 13.35814727869489 18.64459712015156 17.289577329217025
Cd 10.75645916526 14.921694272085869 19.193293755016292
Cd 11.523750753758938 12.10199243554889 19.064234708743186
Cd 20.031845792770547 17.656729397340808 17.90220672846664
Cd 19.060183738167535 14.745770306044838 18.056288568042895
Cd 14.451574307825698 11.667522630751579 18.51714683335989
Cd 17.90568351597108 18.428133922923465 19.9854566866211
Cd 14.410577815904741 15.597299500968266 18.275260672420178
Cd 12.434728241742254 17.248652215362398 19.816935805627107
Cd 16.774712729310973 13.226315704861808 19.379238525536884
Cd 20.146325996113536 16.400224968420954 20.60459867300467
Cd 14.872584279617591 18.45767304520585 20.92729599055929
Cd 16.31510295349792 15.882807320501954 20.507613646965513
Cd 18.598846518000347 14.146478900288296 21.713622532853684
