49
Energy = -21.55589199 eV
Cd 13.178402835611761 15.79917795199201 10.986210398418738
Cd 17.518262214942496 18.500186421694767 11.308381794419402
Cd 17.69814917443202 13.742137011875254 12.72424481715674
Cd 15.354815947908746 13.809047041005645 10.980126670812052
Cd 14.980879983116637 17.936521035080577 10.1628445477975
Cd 18.89386894026556 16.393944389847995 12.984509947940671
Cd 12.80608949483499 10.895674708891963 14.762375874736897
Cd 12.757641968359229 18.50788221633219 12.21852897533263
Cd 12.37657638083634 15.964296594106836 13.841254772520509
Cd 15.79587249830577 16.38348856558606 13.101910026728167
Cd 12.796799018990974 13.197798562009128 12.607262029453635
Cd 18.1624981024525 20.7513698349481 13.325368109199804
Cd 20.261749432267624 19.022707608492844 12.30439300106506
Cd 17.726781969419402 11.928567072465585 15.048200629906338
Cd 15.336402733241355 11.701453082450557 13.280515710271231
Cd 15.234899372723099 19.64857522106228 13.26896972001956
Cd 11.666185847048277 18.709080657926076 14.901635818084864
Cd 14.817644373699205 14.26574741053349 15.048717642021625
Cd 17.408893462652394 18.19536905334184 15.122406019730697
Cd 14.040430668482848 20.175887243795557 16.13603580231651
Cd 18.992728919255793 20.538629666232737 16.378060046465208
Cd 17.687914574212083 15.23866457566682 15.652478572006514
Cd 21.055297517721037 18.839973797114254 15.024154721314888
Cd 14.500350473925943 17.16309940886776 15.775265203164444
Cd 11.403834653179022 13.472744609573521 15.267504998242524
Cd 16.392719565684608 21.781579754384822 15.319307076756983
Cd 19.703753494501765 17.448014936920092 17.28664241090139
Cd 21.059270869303734 15.846291001228375 14.973982136310154
Cd 15.185552409345192 11.331408359396985 16.530115312664392
Cd 11.3823790625004 16.033971041881507 16.711217906988242
Cd 12.980559079428877 13.276392305102464 17.703280328437753
Cd 18.40863234235682 11.944341433959632 17.913670731173347
Cd 16.336691152896332 20.493211911955825 18.061692825574575
Cd 20.265683987499006 13.25898392054901 15.860700317617594
Cd 16.502037854330787 17.24936534281522 17.87962071131188
Cd 19.066497445862286 19.691138425249864 19.22195354435477
Cd 13.638718213915975 16.1429298099219 18.698751570429796
Cd 12.01437940756373 18.713616577065174 17.822001931119107
Cd 15.931815242960006 9.159832291883076 18.514282005009182
Cd 14.182399179102271 19.077922493280063 19.664778371445728
Cd 16.017429934349686 14.038077669043467 17.807086394519725
Cd 14.204306855012916 11.454597200499538 19.720889508732718
Cd 17.20113585365874 11.147712952463603 20.470344465267942
Cd 19.354234883786457 14.743190752233684 18.39070536105244
Cd 15.574525121726685 16.64059594373566 20.97080643292916
Cd 16.79845245695224 19.337927737594715 21.059309576632465
Cd 18.64175778896735 16.91524572806798 20.289024634574233
Cd 17.23601745338091 14.118631359250486 20.582737482922575
Cd 14.147376835192805 14.052294358788762 21.01504016231519
