47
Energy = -20.75142698 eV
Cd 16.31318428712828 12.107646961334185 10.244287493096406
Cd 11.842672102510312 15.84105033858433 10.611394609187169
Cd 16.94067733353496 15.356536978257209 10.156838458967401
Cd 14.599354654830025 17.119178812012304 10.43822321354847
Cd 16.37135431768586 19.21139789179007 12.05789883915142
Cd 14.095130164149067 14.014792509205504 10.28252384054169
Cd 14.067292909306866 11.09287298804647 11.939886002547587
Cd 18.754229404819647 13.351410369045196 11.388934617871813
Cd 10.477162498444276 17.562846739135043 12.425325995065815
Cd 11.639306214636822 12.790808761066831 11.45511043522316
Cd 19.3994618687228 15.952130423702624 12.478823716255224
Cd 13.3675376137363 19.017066769688597 12.38007213178133
Cd 18.61510805723227 18.26414929684607 14.037354269785876
Cd 16.392178834928522 16.302464276228097 13.047776509649772
Cd 15.321153404821214 9.74007832094919 14.308159593287662
Cd 17.390935881542887 11.28975303637258 12.997590310578772
Cd 13.353463054203106 16.052178618240077 13.493275071781065
Cd 12.161101314092795 10.338381717143575 14.15760720540025
Cd 15.256438577334944 13.605144447794553 13.237324428795095
Cd 9.849061306204927 14.565098481323611 13.007186714595395
Cd 11.44589481129482 19.305154468989432 14.658690294392544
Cd 19.021648593859155 13.450377238289466 14.365258096253868
Cd 16.569993908347502 14.901493193019572 15.7533547602215
Cd 14.930712579049956 12.510004934738465 16.04518007949752
Cd 10.71929015912447 16.56654510770955 15.22163194159179
Cd 15.096016919241286 17.52455549443761 15.538510260575638
Cd 12.37561650007733 13.347005293980276 14.364655349494742
Cd 9.89978898561498 13.889456665796928 16.15843421640475
Cd 13.851684020967303 9.62493372036487 16.799777429778416
Cd 17.75432403111357 11.058274713513939 16.01102941080016
Cd 14.045141371170589 20.351185172621342 15.309431695559015
Cd 11.557459093066775 11.575876811735208 16.91442561041854
Cd 12.71153553424696 18.448369430210555 17.35732315738851
Cd 17.753342514275545 18.28188965045716 16.968172117686848
Cd 19.43914472321343 13.507818803791114 17.35814616431766
Cd 19.477808373276776 16.08046468016302 15.819571311620491
Cd 16.934707921904675 12.40669169794191 18.51716750518622
Cd 16.850232319958646 20.41837945914344 14.880759766898759
Cd 13.546368131689148 15.18826652212608 16.521497270465886
Cd 20.634022613626232 10.66261888522544 17.8072003616024
Cd 12.003777878516429 13.767008297316977 18.88382311364289
Cd 17.81696538912194 15.650157086026663 18.62106172623233
Cd 12.951685918034128 16.53822259161629 19.77032763601414
Cd 10.564997586557622 16.267754729727333 18.090462725127235
Cd 14.070708854099404 11.723659303285947 18.901229432230114
Cd 15.469762055819315 17.60731500314237 18.675881780310476
Cd 15.104123492028402 14.575091387026017 19.344961408337614
