41
Energy = -16.35364734 eV
Cd 17.504880361767412 17.888580808003667 10.95894854083544
Cd 17.02656319098139 15.049041958000272 11.705547189436356
Cd 11.821579839714312 15.737157352358526 11.410993466411425
Cd 14.584954529629634 17.064127386871892 11.641741405375523
Cd 14.301198615375121 13.991685637489422 11.13923170047977
Cd 20.22628015346137 18.582330991444966 11.888811840760248
Cd 19.66195151302831 14.645330496713775 13.041378356816324
Cd 21.74732762937852 16.634098763278054 13.389684982704404
Cd 15.281997471349102 20.05230255727658 11.630498581286249
Cd 15.14526120997068 18.636100119934785 14.438862588851881
Cd 12.407830816312591 13.968701860548078 13.901080797737448
Cd 14.794246876651753 12.086749682663966 13.383893907785406
Cd 17.511034471455417 12.892467802164543 14.14131751354061
Cd 17.896888261603785 20.13917637672051 13.108755268918328
Cd 17.87307415438318 17.04648878452141 14.07485953466966
Cd 13.248920637970633 12.011679435482538 15.922021541011885
Cd 15.43120875531539 15.375787195119715 14.549157519636868
Cd 12.613461810579063 16.911860002822426 14.168309758057243
Cd 20.34824000248228 19.06106803635153 14.925415322719864
Cd 20.322635008524507 15.971882995505055 15.96852527958155
Cd 13.51415212548976 15.24004180724899 16.940627940990954
Cd 17.544478311512435 20.002901961630275 16.054679727685315
Cd 16.043153456034762 13.316619098433547 16.989625248414143
Cd 13.08287186306044 12.55098021579876 18.725333378433625
Cd 17.255630187353802 16.301017189917108 16.922160211198
Cd 19.593597699347715 18.281893232824245 17.66869114250762
Cd 19.095156461462302 13.431374433210456 16.601391559724288
Cd 12.382648426009546 18.151415555007844 16.77692400111881
Cd 15.17769143068182 18.46445816630582 17.481741233009547
Cd 15.463348877632344 15.859408098323325 19.335721704817455
Cd 12.598585048766285 14.851395987487264 20.447549920497845
Cd 12.598452966218655 17.737972631719185 19.738227515107464
Cd 17.382527312654695 19.837932917973273 19.025973192576867
Cd 18.124508572608242 14.104770654897099 19.275339524689443
Cd 21.285288467164563 18.03171147012702 20.237412616808104
Cd 15.673303694260031 12.708210375601853 20.05000190307469
Cd 18.368367732151587 16.934260571625916 20.160031284850373
Cd 15.318915731451362 18.77539713536576 20.753566456447693
Cd 13.753767644675166 16.848271943534186 22.517875201974963
Cd 15.50074474223115 14.252425034409683 22.550518315075497
Cd 16.8248495476813 16.902498883668017 22.689148432762334
