47
Energy = -20.16761236 eV
Cd 14.460033493888231 12.316837067024318 9.90586031809893
Cd 12.622975862967992 17.40019557083197 8.27467302444356
Cd 16.707506765184405 14.15551214278816 9.647939548806903
Cd 12.561555915127181 14.557688183622735 9.691223716135907
Cd 14.855829973389916 16.586143453719753 10.12433020605473
Cd 14.471525955931797 10.265052358775613 12.256564939614341
Cd 14.667639387738062 14.476788280812164 12.428532103736858
Cd 17.792895426190316 16.796141889515088 10.680524877415579
Cd 12.849333481638752 17.091100790696363 12.422239590014131
Cd 19.053921593630967 13.890594686825695 11.59766088968775
Cd 20.212464201293518 16.60558116210615 12.37413501199697
Cd 9.384947858419018 12.512638377185834 12.56288868228668
Cd 12.239440331282214 12.25775571903336 11.945289699798805
Cd 18.77479751123856 11.768310726862325 14.29606103537378
Cd 16.774131049130208 12.078537305986465 12.051535481811616
Cd 12.442737194360214 14.25535098059576 14.352053697892188
Cd 15.863493262178146 17.774729546247748 12.752760823743428
Cd 12.514273443692339 19.278846160570293 14.561475037513075
Cd 8.827213895870614 14.799181084276245 14.332438012000303
Cd 10.58045024302819 15.204026932979831 11.797652929252022
Cd 14.290092399749403 16.437084908713274 15.090362634190265
Cd 17.21045482389398 15.28299828368766 13.925096179099194
Cd 19.660105178837103 16.807058073830834 15.360833413950063
Cd 20.45653818018313 14.204414091895286 14.206428649885556
Cd 12.202468597315448 17.522340769318543 17.030628742028366
Cd 10.519272493389003 17.17648509548593 14.429855834617813
Cd 15.530690191548107 13.004528947872082 14.917966576559188
Cd 16.54214081439798 9.893646022560189 14.440923762548422
Cd 15.270643537441423 20.15683443895996 14.354474651256163
Cd 10.04636326461698 12.14225213062904 15.42849293589584
Cd 10.729886189168838 14.91889354901149 16.793549915706684
Cd 12.934977826068607 10.960387701960993 14.698357906775641
Cd 17.04529460518309 18.043894874355665 15.609772173845071
Cd 14.687679158361448 19.235629347155875 17.087371225391497
Cd 18.966306905855046 13.531299806864077 16.68818133103721
Cd 16.382005732263877 15.400837065785824 16.988378153656605
Cd 13.774186720910665 14.117448972258781 17.119180031818814
Cd 16.857495748146924 12.787900102565413 18.542474694033675
Cd 15.262132012062862 10.735179228442773 16.90832160891083
Cd 12.063598074085537 11.602262654875139 17.463148493292838
Cd 12.036682257184983 15.731106333952527 19.405068090817128
Cd 14.308822005735735 11.715340062533452 19.48236725676261
Cd 18.979125874702348 16.76466619292842 18.215244534946173
Cd 14.759294848831528 17.081047245898294 19.03167389266217
Cd 17.527037897627984 15.353228523846164 20.26985388207343
Cd 11.681346234913017 12.963204335955327 20.15676469396453
Cd 14.709499602504696 14.450326839359716 20.39069712975478
