45
Energy = -19.67881763 eV
Cd 15.328518561357367 17.238299786486774 10.633200216807452
Cd 17.52140747657927 13.337263661363378 9.666478712152232
Cd 12.559369063526152 16.233905701858646 11.018951150359465
Cd 12.735140286602595 13.679817331251698 12.420026894072693
Cd 17.892005663687637 15.855244757832937 11.340741931698274
Cd 14.80468933910969 14.386338403015936 10.174987690988125
Cd 16.656784396839978 18.029390212886778 13.100207277487566
Cd 13.405754147104464 18.82459231907152 12.328106639518934
Cd 19.653411291989602 13.457568350488167 11.820344316942759
Cd 14.272657395905043 16.09196298144557 13.86855931671741
Cd 17.616368464396416 11.195840765270379 11.72932195247188
Cd 14.711746877124376 11.589941957048568 11.182294485774884
Cd 14.862820642071343 20.291146392469656 14.344084053301504
Cd 19.41358508197439 15.040094841734899 14.316537814179073
Cd 10.658310725618344 17.260518165686513 13.016647603864522
Cd 10.591439567524622 12.595975083208105 14.305817112231278
Cd 12.566057110024424 18.20342940860991 15.211348051794882
Cd 16.12662375683823 13.970428681355633 13.100558068025173
Cd 15.819194660218967 10.770271142273728 14.14317152008844
Cd 18.45405410340823 12.198026178452384 14.436345642013384
Cd 13.984603218427328 13.211365937279721 15.239977782631629
Cd 12.880449488081773 10.759858158406866 13.354427450909267
Cd 11.415179872116802 15.278982403014933 15.290225237048178
Cd 16.63508647415628 14.647253922029282 15.926736490143666
Cd 17.478885547288098 20.42315124826179 15.632872087720743
Cd 14.45443881626156 10.216327325345771 16.717220479618472
Cd 11.649551358245109 10.439203213156686 16.092242163656664
Cd 11.634185282281676 18.093317936011577 18.051064390889596
Cd 11.517216502727452 12.950305699554063 17.5317456041643
Cd 19.83351649988465 13.09070768268817 16.951797798021346
Cd 18.926288413298256 17.840900393096014 14.967144632421167
Cd 13.928622782977957 19.856899558229955 17.256013967792256
Cd 19.40131344318373 15.952437657111746 17.324283453233715
Cd 15.8919026821328 17.520570593318592 16.06129412053409
Cd 14.627607382814453 12.864730363840893 18.261982826409415
Cd 17.095207925213604 16.944307726215545 18.92185779887614
Cd 13.849620864477856 15.700443494766441 17.113621876158902
Cd 17.128325078712454 11.500717506292636 17.00332034967229
Cd 10.314482339797452 15.587353979594138 18.338448928648344
Cd 16.50347133181548 19.910620693828523 18.538871418231643
Cd 12.40938037580966 14.364119456079711 20.043633255860637
Cd 19.148208683241165 18.95920630356926 17.72900184893411
Cd 14.218380642891852 17.813442015061593 19.56550201971203
Cd 17.473621315974874 13.911233327722046 18.82240792892767
Cd 15.165207638648262 15.1271798560761 20.32126821165651
