41
Energy = -16.93613275 eV
Cd 13.066613106660256 15.379671006666221 9.295392356861278
Cd 14.975552070112165 17.709379761735914 9.068741554972883
Cd 17.186638877739952 13.64472447884831 11.165213785341274
Cd 12.839088436218669 17.997748522162667 11.17864831978047
Cd 16.323221386773255 15.10001569470647 8.73711861880126
Cd 10.534012032980792 16.06174127558545 11.17817575761652
Cd 11.353479057809173 13.221580330245917 10.647082434071482
Cd 13.03056980836388 10.252547416585795 11.295307731303112
Cd 14.358384496561369 12.930294776722022 10.639026076345122
Cd 17.551104509240954 16.777652432300734 11.062081690326703
Cd 15.67773591412478 19.104150248397225 11.599749285687366
Cd 15.669957252587356 11.233766556488936 12.761372662565599
Cd 12.078207171226008 16.583557194497274 13.782230991789106
Cd 14.02929387013665 18.80534717847394 14.093433479645805
Cd 10.573657057568134 11.264350528124927 12.749789112912339
Cd 18.18405579070217 12.570213274656778 13.663751405478122
Cd 14.774493443752853 15.688177623375262 12.082998320164412
Cd 16.712528195825566 17.36481962355279 14.030027074840085
Cd 14.285477219586591 8.08817413875197 13.074825071170814
Cd 13.0905970938709 13.669110747933328 13.326328965658124
Cd 19.01925747929986 15.438725247747975 13.463453140611591
Cd 14.903589755648603 8.810355840138174 15.96042725608057
Cd 15.776850908117934 14.410046103151577 14.574962359635107
Cd 10.069421769536062 14.17313204790827 13.561115033331951
Cd 13.110876878594759 10.788145088084018 14.3993374640662
Cd 14.083607963840244 16.415192079572858 16.035775560958307
Cd 10.59140456680082 12.038870734038865 15.69823631691585
Cd 16.465386649439758 11.411534200892044 15.857431235020712
Cd 12.083402073555373 9.44643764945507 17.013385125875995
Cd 13.567940637159765 13.231036419360898 16.303442556648097
Cd 17.33050287242244 16.619889546212857 16.792423112306153
Cd 18.56210976853461 14.014997270414598 16.20902081770049
Cd 14.430795409979497 20.364795556555237 16.560921155642063
Cd 16.15093648206003 13.822601224711558 17.886601023830274
Cd 11.135829397727806 15.16791813975016 16.30570240353467
Cd 14.618332945792096 10.90878112120965 18.223074921409097
Cd 15.868390370705606 18.58846090384193 18.373177348428655
Cd 11.5560272171353 11.980568045593369 18.58006109990438
Cd 14.277792553460705 16.148036866715408 19.026240127011192
Cd 11.54496433295453 14.92960691154321 19.211037763524732
Cd 14.00836068054021 13.294293698436855 19.983326987379538
