45
Energy = -17.98577482 eV
Cd 11.041856792368327 17.78626808785662 8.413343393794332
Cd 9.480299762374724 16.709686806876825 10.990292692673096
Cd 12.403256776998212 13.25223377799978 11.543296111137893
Cd 12.719199593043953 15.802156330621592 10.158284118226906
Cd 10.403282915693033 19.8061527363166 10.658987509631586
Cd 15.552635063916908 17.04465144450167 10.43575310794703
Cd 13.522013496524094 19.208887515840765 10.248888514393679
Cd 15.267065530870237 14.01675957902703 10.566989483333233
Cd 12.090212277972528 17.573902718077072 12.587922093022232
Cd 13.170037552664708 12.453959575527097 14.254204861555149
Cd 17.796593290173497 14.18222250160676 12.154820171906033
Cd 20.325768861484963 13.961213081268768 13.954040229616405
Cd 17.710051608365756 17.2267281049899 12.379570347735367
Cd 17.5075457511159 19.492118695717192 14.399732252708674
Cd 15.578967077685201 11.867587663329418 12.592134323793122
Cd 14.453334034536011 15.521286736904568 13.281786086794328
Cd 14.949125266626261 18.577386141501215 13.207280468692938
Cd 19.476975620132738 16.944252713705396 14.756821548220168
Cd 21.03373599479565 15.276797415387097 16.57160162553371
Cd 16.37101106481099 9.611658095329153 14.528083458590862
Cd 18.092677846803724 12.057646816104993 14.41050535320993
Cd 12.878859858561245 10.994821121727323 16.824563352323015
Cd 12.466648741081105 18.478290405350283 15.300157908503982
Cd 18.71665417315755 18.970622147214684 16.978784981239272
Cd 15.452720276180829 17.94927419754037 16.212699604868686
Cd 16.927338917784425 15.245341519300423 14.866438743800808
Cd 15.594965147441528 12.695159891205494 16.150234061553746
Cd 11.455438241820875 15.137052107666458 14.158496400770694
Cd 10.812480221772574 13.18168259265445 16.219820714723802
Cd 15.44172548913302 9.541120383559953 17.342761493228984
Cd 14.09922027275123 15.265841006595997 16.186032807337625
Cd 20.08389452992631 15.311387134458473 19.389749795295632
Cd 18.558456382212196 13.331998627603133 16.98748815456396
Cd 17.592778569639634 16.14427057747815 17.561302686125927
Cd 13.002539125444315 18.596657805199673 18.11811411269348
Cd 18.918720824203586 18.068658059276896 19.722344696567188
Cd 11.402878535628735 16.15113587465997 17.130032287692448
Cd 19.44202789022427 12.417231504809033 19.760085003395066
Cd 12.701517183336513 13.524435770021467 18.477754218261467
Cd 16.508985978976824 11.611801705612951 19.051570866059052
Cd 15.457114187748566 14.467438020790581 18.805928410721467
Cd 15.550114042509584 17.730801903681844 19.30918100192614
Cd 17.101578771065945 13.544619868717815 21.251572913324026
Cd 13.005379350042965 16.139625896499858 19.929716327524027
Cd 17.175137644230865 16.41999587372039 21.463652238816145
