48
Energy = -20.23863757 eV
Cd 15.71843317583063 12.572253687381389 9.865979100507769
Cd 15.164742775192005 15.584696546893259 9.96136995171874
Cd 11.235479264837219 11.049113638078069 9.783404529558812
Cd 12.587509917899059 15.981138722492076 11.446838971661542
Cd 12.801152838369848 13.504748436589079 9.67302354902938
Cd 19.73315661520448 19.235174609162335 11.684685137835174
Cd 17.54445674373625 17.279504501754555 11.027227711203098
Cd 11.744399246433675 17.200920697683426 14.083707934099028
Cd 19.358814833355314 15.701555959223736 13.095665787961469
Cd 13.091425205023887 13.085108496996007 12.602221392548328
Cd 17.61925513562962 14.264736801904565 11.338559247785089
Cd 11.51165830755354 9.602249110399235 12.494702289251173
Cd 14.038772636919827 10.482847454060897 10.997936461750038
Cd 9.922644043548566 12.114469906910836 12.177721682297175
Cd 10.310972070174511 14.82120087236975 13.028432273320798
Cd 14.636702328375259 18.25269155026012 11.366286573461315
Cd 15.251555515474816 15.291588760938664 13.361653694184705
Cd 19.633543422043644 18.565045396593188 14.627677432916357
Cd 20.86121021700329 15.983578490809176 15.547598009250278
Cd 17.738504150179878 13.74855687827195 15.018591128488499
Cd 11.286216321030787 11.82542123463347 14.890719884001069
Cd 16.078431707319385 12.238834010512546 12.9974029115459
Cd 10.8359638938018 14.825027990537999 15.906630572187046
Cd 16.573510733275366 18.13432790983549 13.811661227212417
Cd 13.724223376172887 19.345200520718063 13.955928732644049
Cd 16.07709355310311 11.31837642554803 15.971952112087667
Cd 18.081605187247522 19.15647846161746 17.141193293099196
Cd 13.974818732224097 10.301717861049532 14.110382449665238
Cd 11.073874775734886 17.50333185649233 17.208874277431867
Cd 15.718744879849355 14.227640141158503 17.516299607281383
Cd 19.395799089768193 14.634753881476488 17.655408257564027
Cd 17.23447903917017 16.408008569138055 16.096117477214506
Cd 13.06709527307756 19.65954447655244 17.247428023175285
Cd 13.724984072046166 13.809786312994913 15.40380284727575
Cd 15.681281253972745 20.378617968964534 15.954563120389846
Cd 13.257653074867832 11.275387101260197 17.10514627021782
Cd 14.283832581997405 16.881582925135152 15.92236295035465
Cd 20.637680674902978 17.852165712610457 17.906385487477593
Cd 18.49528477964741 11.76390664338655 17.715896207828006
Cd 15.826215696940078 11.531004889331491 19.149870820430515
Cd 12.743814837803123 15.372144103623999 21.27615752715208
Cd 17.625038192857733 13.901596406135386 19.98917986135281
Cd 12.671775074470931 18.017529262677137 19.785199480781927
Cd 18.20644313776285 16.918355072986174 19.38704092037701
Cd 13.148222431412163 12.705063749141228 19.70850998875383
Cd 15.521185953226334 18.324428629922195 18.48066857104604
Cd 12.839540766288929 15.178204697427715 18.08322336966107
Cd 15.41649689859223 15.896077097709657 20.144405324313812
