40
Energy = -16.10219898 eV
Cd 15.614658201830556 16.20758330321498 9.211452116004883
Cd 14.696805646388714 10.740472449709156 10.505217498226887
Cd 15.64910287449791 13.16112355564414 9.094481997088295
Cd 13.081700264730916 14.446583392721989 9.557354668933376
Cd 10.358328473506823 15.13659440092237 10.428967086284173
Cd 15.35917576480987 18.43891362887908 11.06561378894128
Cd 12.452248551613472 10.458700217725262 12.438353315145465
Cd 10.988072857798922 12.1826366545611 10.534219827505197
Cd 12.800420432108728 16.410679751290516 11.981749735827819
Cd 17.85623604754454 14.842670910350794 10.526531784220708
Cd 16.546778695264823 12.646025003598023 12.168054169226433
Cd 9.722792159496144 15.364870110035781 13.228210104003685
Cd 15.65771413291733 15.599681202099179 12.713881238737107
Cd 13.597485222178848 13.387468826324072 12.406628672377904
Cd 18.5925346572475 16.920233209906574 12.520835923417778
Cd 10.366178790532231 12.382340829438926 13.664526900351673
Cd 13.61171155139834 18.867449170383388 13.494898335067942
Cd 19.336937825454 13.897501762478257 13.01485421732058
Cd 13.390268798538623 11.71098045471438 15.052198560990812
Cd 15.436967740846876 9.863293662980121 13.28592759601077
Cd 15.672702660328808 13.687524853947494 15.071400546945267
Cd 18.645303634666202 13.94444518125935 15.876455826363975
Cd 17.32132814683763 16.49059082054708 15.225288827842066
Cd 12.186543893204114 14.7854992283571 14.694624632301132
Cd 16.75434666827493 19.072924386694744 13.660202024305027
Cd 14.371427858882377 16.707644742534246 15.506325510275216
Cd 9.803968336827753 16.822754125502062 15.820290814445675
Cd 12.105426165015638 18.6482778722453 16.159813848335173
Cd 17.787778465549476 11.324341105604132 14.570735738685292
Cd 15.525066075395001 10.068061287376638 16.38560368040395
Cd 17.68754058260252 11.698551728192838 17.648374605505246
Cd 16.519298556266932 16.479245616385608 18.128107738390995
Cd 13.613815668285355 14.101397004261116 17.202280107758284
Cd 16.037555775168137 13.715550823469371 18.95965102056576
Cd 10.63423899379161 11.847719752546327 16.6171210216692
Cd 13.625300084424689 17.449790238080777 18.463487246054648
Cd 10.432125428151902 14.603985720762541 17.678891336990446
Cd 13.122621672097694 10.733116399859174 18.017221932112257
Cd 12.289937353423253 15.264127792453143 19.935978338322105
Cd 13.481339918232104 12.622433449073064 20.21797229317698
