47
Energy = -20.79246313 eV
Cd 12.12177394864621 13.996265217068611 8.953851806812533
Cd 15.111972471605652 14.351711185230023 8.40981286803083
Cd 16.136819662058194 17.158206949480007 9.183792647354693
Cd 10.127329990013324 13.381457908971228 11.225247964790798
Cd 15.553150092432876 12.117974635166139 10.627583320124396
Cd 14.258757744414888 10.140705673350297 12.54537001233428
Cd 13.23453792307259 16.74070548370667 8.482207154806108
Cd 12.523387842636724 11.701575906132996 10.800891405900712
Cd 14.031889236185146 14.649779740014287 11.49813406802003
Cd 13.728174655076518 18.05576142246331 11.154854171258888
Cd 18.443360521362774 12.212575843449155 11.73411931021372
Cd 17.231596866725486 14.631961201388135 10.59096045337388
Cd 11.455197138025285 16.149314076059156 11.098046113272915
Cd 13.898671949964184 15.74508660764933 14.23898458838673
Cd 15.632379765404323 13.257708559692714 13.716086782060318
Cd 14.383085211769364 19.11343595153634 13.85116168930543
Cd 16.151690299701478 16.790982807022324 12.302708832512321
Cd 17.074949977802245 10.323338063721343 13.573385568032931
Cd 12.587119227720125 12.846983094926864 13.601616693680777
Cd 19.34077626306556 12.1600465348593 14.535981705129352
Cd 18.242045605676537 14.922424214788968 13.58433121158746
Cd 11.661297840645695 17.71850913462536 13.629615976126136
Cd 13.89707827872965 13.535363442549622 16.351410845269324
Cd 10.766177944922795 13.213971539367044 16.162956629872607
Cd 10.394634002630296 14.972268203581908 13.784754133175428
Cd 14.570553937881376 10.473513280908712 15.48304700985802
Cd 16.710584047968492 17.557490208365554 15.116652123959803
Cd 20.540061263335925 14.599761702274847 15.715110902850794
Cd 15.010814729469756 19.574399703437226 16.75522191639523
Cd 17.02711429124529 11.738383128305873 16.34311268179401
Cd 17.24216883748712 18.41318390962476 18.220218407475805
Cd 12.167332662832635 18.97733276852379 16.19646558475546
Cd 14.400083118148014 16.50175639511207 17.001484663080067
Cd 11.367270192115809 16.0917691327044 16.60399745760508
Cd 11.694041153252718 10.476315779058076 15.264709344063645
Cd 16.68366334022153 14.687310659968324 16.185131197603123
Cd 15.053327495478483 17.446037643261704 19.992411783859236
Cd 14.430468988994647 11.402223452685309 18.52005509944128
Cd 11.55310987837556 10.97861671687858 18.212120572557325
Cd 19.199951657092413 16.907912885416692 16.659223254715958
Cd 19.58557849568574 12.93371216591644 17.869420920407485
Cd 12.930666517118091 19.324943568256202 19.057195395965273
Cd 11.6465413520483 13.799114915122155 19.034360521341853
Cd 12.068885300353516 16.591979384606706 19.651793686905403
Cd 17.00536384233082 12.625780627303905 19.217316936241424
Cd 14.591117438317786 14.490077400238249 19.31453148925801
Cd 17.538214908599464 15.525039083870599 18.953321007071427
