49
Energy = -21.20412629 eV
Cd 19.847980296574466 16.55902182699937 11.443287527408762
Cd 15.94356290812341 12.243124424888466 11.992436222268093
Cd 18.055729477282078 14.178054730414877 11.03171370506952
Cd 14.174107251757071 17.776474682243617 11.169473882310553
Cd 12.31984145718499 15.457341989581142 11.629177871433814
Cd 12.918630402504258 12.65523844155072 11.894325957437388
Cd 17.016610019270352 17.13455293053534 10.863482024349516
Cd 15.586794729890654 18.964059902012835 13.629187131014357
Cd 20.776331768102505 13.794943121764621 13.030381358450626
Cd 13.46667627187649 20.70921881123026 12.45029791921875
Cd 16.83794356285455 9.848752214518171 13.620797096870616
Cd 12.675001723442364 19.973290656089876 15.308717060749624
Cd 15.082021663512036 14.737524321004022 10.554099850654326
Cd 12.141750075644518 17.676268478294983 13.504045073505052
Cd 18.893053672572737 11.680017500977835 12.648706170913979
Cd 15.224728449860523 15.666541522284168 13.564407743799984
Cd 15.443028403588004 13.04265247589135 15.08072407051567
Cd 21.245357931633205 16.485578265933594 14.004675221243728
Cd 15.335053629890504 9.22332390629659 15.976213952154714
Cd 13.872364920501175 10.560345943992571 13.645514264321315
Cd 18.173917582375303 17.60946540888605 13.746917135856828
Cd 17.867212954001513 14.585624777911546 14.139868283415073
Cd 14.319728318213448 17.327472804819212 15.862523142885715
Cd 18.462443042901025 18.441285934104613 18.76028687551235
Cd 17.313236978971467 19.55506588442925 16.062837445657497
Cd 18.219420709069563 11.746510105940647 15.650873055216667
Cd 13.098006491515036 11.500904255661778 16.32487976311573
Cd 12.55892146814558 14.362514482965551 14.469864950334
Cd 11.276397405405454 16.620820565594343 16.20197685879156
Cd 12.428838996960641 18.581827693794576 18.133852792653943
Cd 17.106226531718423 16.22923652185505 16.486362145538642
Cd 14.747875133723358 20.639675786017044 17.319592242110563
Cd 20.20818424596905 14.279409876600509 16.04851205283754
Cd 15.79114592731826 11.317226998670574 17.907352724193032
Cd 14.692204400730416 14.815290629555545 17.400246405135583
Cd 17.964124787283303 21.349826183150142 18.604375240169528
Cd 11.351856080173405 13.69887121401779 17.08083647641149
Cd 19.940482799321803 17.70149768244857 16.2613200943422
Cd 17.945765808065936 13.589449627859729 18.006990558594794
Cd 11.937021615405003 15.736270740555621 19.149472489401557
Cd 15.482172038709196 18.015246803851475 18.77540775232162
Cd 17.359320200591664 15.947797106672434 20.055354458037353
Cd 19.942252076096644 15.80748927485838 18.587956879524867
Cd 13.500988942604778 20.203767904815404 20.408374498686822
Cd 15.849660051698153 13.287913310485362 20.123752144333153
Cd 14.462296890811901 15.834604366070028 20.5863148264508
Cd 15.502945598670328 22.240225277434693 19.860879604012926
Cd 13.12359333049467 12.68215211421112 19.248533758906582
Cd 12.351377440547603 17.76041698381827 21.52700770542073
