43
Energy = -17.7004382 eV
Cd 16.976416558656396 17.379049268938935 10.03902058323505
Cd 11.564051097304976 15.886266924977038 10.409964198090053
Cd 14.246269005744079 14.113606185759851 10.488848361343722
Cd 14.180952952478037 16.941051059761655 9.451591379153912
Cd 16.505876922824594 11.67597138781364 10.444506930590617
Cd 18.936812807463618 16.77085601347331 12.109108358758116
Cd 13.548987237247298 11.188254973258351 10.79248551709941
Cd 11.185935444239092 12.85734841869293 10.986928173176963
Cd 16.999312461424285 14.459678079825396 11.65525834175635
Cd 12.903144675904018 15.40038080403954 13.2184559139833
Cd 12.90497130594962 18.377066498751077 11.790692597200803
Cd 19.478541109796417 14.071794229111198 13.521442861967037
Cd 10.293399332392895 17.734170499480747 13.003419447816624
Cd 15.438517216346053 9.67463540359009 12.538818030978675
Cd 17.86122909583498 18.47227336063382 14.34583525527191
Cd 17.545764765211853 11.771865430354655 13.307569899404944
Cd 20.09793561060375 16.573185419502593 14.998076185313112
Cd 12.205866033027888 11.2615981035001 13.531386978049696
Cd 15.517219584000891 17.0496919014565 12.906294226886358
Cd 9.692560209211793 14.709694793218905 12.666701180136727
Cd 14.233597240712092 9.373291619782687 15.206789921473266
Cd 14.675020869917844 13.066567331388999 13.45543949648201
Cd 11.270541525463674 13.646800211559686 15.157643308977367
Cd 12.829949892018348 17.95088746532371 14.869915296548697
Cd 15.620822918316799 17.54481674241028 16.01355775835085
Cd 9.403256350424599 16.111929517340528 15.321973003731738
Cd 18.74538308196227 18.038072926572493 17.290963058477274
Cd 15.730791056412912 11.931807548680135 15.99625890648649
Cd 14.011751424625233 14.667956250288967 16.083971609612647
Cd 13.482855069747115 18.550340581386195 17.824553058037445
Cd 18.80400051387059 15.061744942635181 17.301613587622356
Cd 18.92226012743299 12.331802558495289 15.949691295799795
Cd 16.707253242186116 14.952119367804944 14.87911985663773
Cd 11.584153849303862 16.325543306009603 17.15568899885346
Cd 12.454863897196237 11.370993587514045 16.65639963121158
Cd 16.459741314960073 19.052868533324318 18.686869935618663
Cd 17.24184092153164 12.825113190978882 18.446431351660593
Cd 14.187003440818017 12.705128708121611 18.567666430029995
Cd 13.136837144281115 15.367446429161692 19.441868370569946
Cd 14.636034443567477 17.765427773488202 20.557672672449723
Cd 14.859210223969486 15.386085796694733 22.263930946210593
Cd 16.04999762996116 15.69202629970349 18.504155893658695
Cd 15.814645959782224 12.85836611932163 21.106996755410915
