52
Energy = -23.30946278 eV
Cd 12.72438801635364 12.482041807550777 6.493481229664517
Cd 11.179092850652365 10.168136795159217 7.499849110725542
Cd 10.172134468403046 13.196871252540705 7.983816025746746
Cd 15.23155407670967 12.92550461780524 8.116847288711652
Cd 12.859405006875773 15.011010460883607 8.020096483944393
Cd 14.375311004384002 10.099277372198218 7.178921800559661
Cd 10.1689722923418 8.312601021214304 9.454081865283756
Cd 10.226778158632849 16.03394212556997 9.027953223288277
Cd 17.359641963054017 13.309251894048325 10.164624212976223
Cd 12.7612349672591 11.793137945282195 9.828345762114834
Cd 9.361128095444169 11.245972726849148 10.093524988061414
Cd 8.661365407903581 14.224707403221013 10.700318403343674
Cd 15.131067321034024 15.296104882555898 9.974974235702351
Cd 15.784605038128227 10.449019155374883 9.900275709147026
Cd 13.21824728052913 8.640299360183194 9.609958375414266
Cd 12.757645427642558 17.02752152684212 10.452351056719397
Cd 11.635022975940748 10.276665776662416 12.024687697705929
Cd 11.58939794443738 7.167001868492442 11.869356524706719
Cd 8.761314094725586 8.83167186162548 11.932386249659267
Cd 11.764956470514608 14.151871868724706 11.20548406505786
Cd 7.131696807386039 12.024386437569849 12.08275426883054
Cd 14.587696452105106 6.683412514606537 11.442210474659575
Cd 9.53246110544179 18.035183458884212 11.151901652971288
Cd 17.032968625434368 14.138698527906714 13.04338402984806
Cd 14.367908347049257 12.9137339471839 12.084230244902058
Cd 17.68110479624804 11.187798021810831 12.176995128336674
Cd 9.633218794280147 15.55408879868378 13.2202130130846
Cd 17.13458648196295 8.21586422123777 11.555252379197098
Cd 14.8331310067461 16.15728722002868 12.79384423758576
Cd 12.019109550418438 17.58229400570466 13.273369328342234
Cd 10.09725659601446 12.544528526997574 13.186716384899897
Cd 8.019626069758793 10.250115382864601 14.363542998138676
Cd 7.09380248893127 17.74664401850708 12.924343685279876
Cd 14.574713681562129 9.887518981636457 12.683169408291151
Cd 12.532627586369925 14.685651652708087 14.069489406870625
Cd 6.582129748203721 14.912086272502334 12.90556563719952
Cd 12.78277465428299 11.677782655828322 14.389873961338848
Cd 13.188223467282194 7.624575427966298 14.38115116179316
Cd 9.305221297463653 18.35592259526507 14.802752530050764
Cd 17.789516038037252 9.187235470764781 14.406612088238957
Cd 16.048592998126846 6.783649374563805 14.075779577739642
Cd 16.136744045063008 11.725537187987669 14.744727345253757
Cd 10.512131032709146 8.78547026269663 14.524481351096549
Cd 7.137318802981655 12.958503716071737 15.060918579326897
Cd 11.379288771003544 16.801332713397723 16.23797972637342
Cd 15.150924216957891 14.41110430699757 15.501489207884669
Cd 9.402897385511109 14.47619869181805 16.061698175696023
Cd 15.296238478998967 9.076052704680954 16.11622168901101
Cd 10.11883236674904 11.498830466287883 16.194888157508846
Cd 12.427489195570095 9.59794391004815 16.705392174120835
Cd 14.380732621536016 11.874824730103548 17.17898859655518
Cd 12.194428282767797 13.831786727823472 16.95738374496048
