51
Energy = -22.46939635 eV
Cd 10.534545497892875 9.79306244511524 6.685997705129174
Cd 13.473356019298963 10.291888250011292 7.047049372108523
Cd 14.021581681116869 13.415560769775963 7.850323496899656
Cd 7.889080942187232 9.093040231620831 7.815149495855966
Cd 15.918355958818687 11.1757156900709 8.563422104063411
Cd 8.237481516313492 12.020558482040755 7.471518060127565
Cd 8.885698357323221 14.74300069907703 8.353977854316128
Cd 10.241751169776201 7.263447538847716 8.498325505338617
Cd 11.211495231622267 12.500891047384526 7.586946216855397
Cd 11.688749298346982 15.451171477540912 7.661725783017213
Cd 14.037539048859607 7.867959588017332 8.850125965742825
Cd 13.757490399917844 17.53745378519544 7.837644661890285
Cd 15.90110498938863 9.255251171915669 10.712283849946692
Cd 9.151595651355727 10.62633653813602 10.214216437389666
Cd 10.504076760792346 13.105124286787946 10.607642919574362
Cd 15.743762415632531 16.725559956772077 9.915363441597918
Cd 16.24776786172521 13.853346041831252 9.931456859324793
Cd 11.847041856664685 9.70440078740848 9.669212899210683
Cd 6.156576024951006 10.20980824143696 9.95664214074058
Cd 7.166721266988172 13.277586855739173 10.293372256990825
Cd 13.006952738139772 14.767786011026521 10.536181289852475
Cd 7.497148428387447 7.170134248540612 9.991458296039779
Cd 13.569889333351892 11.813851704370812 10.621674719694358
Cd 10.47543055653783 16.452280491702957 10.250226342022918
Cd 12.102962182683315 6.077096826280055 10.456240727746431
Cd 13.22192500247185 18.17360936789872 10.894589071791009
Cd 10.423067240563636 4.68498798488573 12.493829924254026
Cd 11.873240231307832 16.339526672443238 12.959793168816041
Cd 7.17538590288255 8.691068535745286 12.587938744043157
Cd 12.060091823832577 12.72480058979436 13.089913950524883
Cd 9.676219114374408 11.066825987482304 13.039990162392618
Cd 7.668296794855305 5.611206499797263 12.501680352738441
Cd 15.612303226691601 9.342528152351811 13.646357740702303
Cd 8.658050029025391 15.287298160567675 12.18498125251125
Cd 6.285054887004057 11.552199820058755 12.580340943268375
Cd 12.060861120087031 6.9443621656108725 13.969286682547896
Cd 12.544873168398842 9.80438896267138 12.578538674117326
Cd 16.41560877767719 11.874674584695285 12.109823341111044
Cd 15.02460026020236 14.616247083624488 12.67466792342317
Cd 10.338508257134448 14.587301605978583 14.77351693031105
Cd 14.28720887768227 7.190411370622369 12.041353800757305
Cd 13.387994136327649 14.660951443384931 15.197686775429561
Cd 7.666315135335405 13.440270055049163 14.204094827802141
Cd 9.04522909393528 7.236667048982 14.642077684079847
Cd 10.097389677137567 8.144080359638679 11.773435945230693
Cd 7.540115456031795 10.137943034044431 15.217648017515346
Cd 14.876090107976308 11.98743126942252 14.747558001018183
Cd 13.536692815373387 9.119597709154677 15.655250965074709
Cd 9.400650336003624 12.205956643319219 16.27329563875067
Cd 12.316769759665952 11.981950639162006 16.240746278134818
Cd 10.639544868859408 9.501642375876422 15.643666091086356
