53
Energy = -23.16971212 eV
Cd 11.576131827745188 14.044776115214942 5.448505406554033
Cd 13.024930280685348 9.351551917151669 6.732590159251587
Cd 14.93134986012429 7.897048653890854 9.068743027283306
Cd 10.160062243019947 10.132716141458376 7.139539542367994
Cd 13.63538958553995 12.290450101353471 6.440688438006528
Cd 6.679046860574754 14.537454084445585 7.706578719904483
Cd 11.703612203201198 7.2137413647334325 8.376887378864543
Cd 15.455328988214942 10.670876496507539 8.093228901720485
Cd 9.142499027259564 13.02150935290785 6.986237942371552
Cd 10.555618262319145 15.781113541757522 7.6120366498765595
Cd 8.925588553906964 8.108682697825426 9.060184633073604
Cd 16.223555381310014 13.648045230779951 8.202426431457202
Cd 11.589465732985936 12.404706521488027 8.750140723582575
Cd 12.460755636169736 9.742454847915527 9.915759325784807
Cd 7.518326223461015 10.798626852318352 8.573513291060136
Cd 13.413873338344988 14.820257924120682 8.266933058011102
Cd 17.06293742657698 13.06000763503551 10.991544719350317
Cd 16.788288344527796 9.754833668225386 10.607512672930575
Cd 9.709008723001118 10.549037212891326 10.749591065631739
Cd 14.124882002030771 12.141538878515542 10.389018589422623
Cd 13.279286485441226 6.240266597144884 10.795741318129062
Cd 7.070661686009111 15.942575431834118 10.685012565134434
Cd 5.857999012176156 12.900052204725197 9.943181513047534
Cd 8.183415335121964 17.225297754681296 8.328248939831228
Cd 9.18455716075662 13.61360681098871 10.085546163342759
Cd 11.523737185412314 15.73967613115941 10.532133010599795
Cd 11.639373261003511 12.705449652220418 11.901365157184738
Cd 10.306113665282641 6.16255876461107 11.017926188374938
Cd 9.419168069303335 15.241476230054335 12.714401062773778
Cd 7.973325099301064 7.912264953485078 11.893224421297596
Cd 6.6228868860106935 10.687074157883401 11.738168858019751
Cd 6.686502664019848 13.739113745150254 12.720254442814522
Cd 14.002798754042837 10.198405270135696 12.63465943892076
Cd 12.453404988313682 15.2613717964463 13.487495223421856
Cd 11.386432553633815 8.615984131043355 12.384157556455998
Cd 9.067506730700874 12.022318905616165 13.278394930591656
Cd 10.21011329170166 13.87810457111802 15.290384453084817
Cd 17.022176847467456 11.107818021063572 13.202470498669886
Cd 14.964466958973722 13.279007476114359 13.364901964245632
Cd 15.271934147487485 7.441654906244234 12.645294773727354
Cd 12.822103973977004 5.789746236463607 13.689658862472836
Cd 14.484592496981955 15.166947060471083 11.088490101029558
Cd 9.773077499824977 6.5766730334993175 14.161970871589293
Cd 11.634502333975497 10.846388123361558 14.276458992639007
Cd 6.0255963149000635 12.905743919708867 15.411883243928749
Cd 7.619311547736206 9.540900398222785 14.346100494166542
Cd 8.268143202682472 11.492062314271893 16.541895546018075
Cd 15.696215013092344 9.331685264123482 15.129127637744073
Cd 13.16063419796529 13.214401641531714 15.624457038315
Cd 12.76030708212755 8.100013828882599 15.409733862117802
Cd 11.058769085299565 11.574519411269367 17.312847503872028
Cd 9.953848864917378 8.87024817378934 16.154893878137308
Cd 13.778489479011064 10.549266219798715 16.939961187445956
