52
Energy = -23.17832509 eV
Cd 13.924272128384468 9.866918559386844 6.902328146050587
Cd 13.554645576955366 12.80374463816258 6.5636524750759
Cd 16.32475022220887 11.655139092610547 7.2676691053462825
Cd 13.23122129973746 15.408317065003235 7.784745840429588
Cd 10.25848490688695 16.098233267844325 8.02490201005042
Cd 11.334385499007539 13.213849944524853 8.945051952668884
Cd 15.792206144332779 14.014696684739688 8.798816998732322
Cd 11.275688819162104 10.204953821771628 8.30970781924644
Cd 16.24193066332051 9.313731696486368 8.970425551092575
Cd 8.486812874520409 14.57295398723842 9.876739856356208
Cd 13.374058000703457 8.423030935163032 9.604293520266449
Cd 9.112312349018735 11.387995085080206 9.968921234444329
Cd 13.888045804853503 11.513994587152064 9.87354966957973
Cd 15.310102516068662 16.896452231982572 9.613403529922296
Cd 17.12161136133253 11.872168991774 10.63660445277262
Cd 13.556432556295892 14.235049212909042 10.976032515555639
Cd 9.330028331270391 17.532382607218732 10.57811962102251
Cd 12.29520437326111 17.11636210700658 10.05133792096451
Cd 10.673080197198207 8.783581450869416 10.976483059271606
Cd 11.576527675357902 11.721398802431315 11.810014100910415
Cd 10.825153456567822 14.75583884675881 11.95287398833045
Cd 16.68382630457689 14.86600740889866 11.55384633887351
Cd 16.372320548896717 8.972097980860852 11.777781186198816
Cd 7.864765155552315 16.13538431287545 12.629621484898744
Cd 13.264336964841675 9.27846264948782 12.417713185990543
Cd 8.185027800202834 12.948559188636596 12.383635768014521
Cd 11.588033107278218 17.908391967106894 12.755417772915573
Cd 14.782681580234733 11.982208954577983 12.763489931316306
Cd 17.761889809308247 12.898818142838127 13.455935047390074
Cd 8.497985474283238 9.986711876160136 12.562273774622772
Cd 9.929939355735277 16.847613153817573 14.807563603109402
Cd 17.258261494016036 10.145375344039076 14.410415161400948
Cd 14.34316382337232 16.848557975986363 12.487546028232629
Cd 10.213557886058375 12.01638933048048 14.45110060795088
Cd 15.16043573950861 7.963050752748887 14.281181739684174
Cd 10.825913882522702 8.84719729256907 14.287670755736762
Cd 12.687191521314181 13.783727347811464 13.977739620615932
Cd 12.887586880960903 6.944487725712965 15.83775024271944
Cd 15.585286355569606 14.992183904601392 14.448060811621785
Cd 8.36774381981561 14.398316423627483 15.049933246567878
Cd 13.057009685535553 10.943176562233784 14.958599157476124
Cd 6.840131437260099 9.782181533100566 14.977390225852917
Cd 13.112971372424907 16.75005946724708 15.264232481581884
Cd 15.848288259336254 12.35411499794581 15.902008125619183
Cd 7.471484183644915 12.196053911517172 16.732521084970124
Cd 15.052270752257062 9.35831821506472 16.864517195961408
Cd 11.004008906051485 14.780649592418422 16.563439966840328
Cd 12.046994057106964 9.234162748300534 17.542091607566384
Cd 9.161982763511947 9.694145410806739 16.963336198604438
Cd 11.132381564815022 12.065101484977797 17.41265619042503
Cd 13.91475416309359 14.3831570343027 17.029979071854118
Cd 13.968478803032003 11.662201901696458 18.32253722585948
