53
Energy = -23.30985568 eV
Cd 18.970224403365815 14.51127497462132 13.610928946984906
Cd 18.537463390704154 11.520778589773322 13.917655712328456
Cd 12.218229757074019 14.18374193118828 20.75904815881259
Cd 14.247355321204711 17.114771221736873 10.765416044129802
Cd 13.747411433521904 14.81582083483588 17.643769949310702
Cd 17.19472849804783 17.192621789485074 19.846251880406477
Cd 21.37496060738706 11.893558729035377 14.584307629313496
Cd 21.70839422080399 13.88697527715435 12.32978465524901
Cd 11.764785042419758 12.443807208722054 18.15230802820904
Cd 9.219069513207048 16.03312168920314 15.793435550835495
Cd 15.304150304167795 20.282627145329386 16.67168834778202
Cd 12.275924362533168 20.011296919563357 15.33752925155438
Cd 17.656141038737236 17.164913197445973 14.472514438526591
Cd 19.072661355084758 16.020995700352938 17.992328574021876
Cd 17.31216351326209 13.487664109775569 16.12865204858113
Cd 14.20240188835514 13.07311964495121 15.369194067716563
Cd 16.222980546287683 16.140454885944333 16.823571901313223
Cd 16.9174200855383 11.220247935747318 18.04122065624178
Cd 19.564135012549663 10.678184752703526 16.799736934995373
Cd 14.698851353249028 20.568054284767285 13.64851714662105
Cd 14.947197902771263 18.88218399402243 19.36090291168637
Cd 21.702261032305437 16.891674328734215 12.884427006142687
Cd 10.472366559293569 17.92958877208904 14.073678241314358
Cd 14.828263320677982 15.656500267509157 20.51299247450846
Cd 17.8812093166827 18.77227541897838 17.24771248099772
Cd 13.873615560932002 14.056502839137401 11.351407382219971
Cd 11.886124908902756 11.03393610196232 15.17525812375073
Cd 11.437414451407204 13.169245734318258 12.960995576183912
Cd 15.852493879292789 14.826049111576435 13.791229398133735
Cd 16.564014184293388 18.680629486804374 11.898248472619889
Cd 12.464667828325943 19.064982564363994 12.26041613171506
Cd 11.666547535173784 16.069367789951986 11.952427773842704
Cd 13.855239366318685 11.304453282087787 12.840808959651664
Cd 12.475292968244732 15.449784407763381 14.878191776755031
Cd 10.623397227295053 18.249885173747487 17.342949420929983
Cd 17.186493279289245 14.06988794732952 19.259544675156953
Cd 20.407338083790325 17.132837427957284 15.6298134994284
Cd 14.550619399384326 17.41330929139223 13.910623526686303
Cd 10.537279552349428 15.22568532570585 18.409017610382676
Cd 10.148080362836767 13.320811541530484 15.746871887176018
Cd 14.612794147652638 12.591562600805682 19.619301518305715
Cd 13.665997439678362 17.575968858345544 16.694693081133202
Cd 17.560086367966182 20.180816231646588 14.529635341457164
Cd 13.992606813095659 10.602476256989306 17.3626711107812
Cd 19.03391144963175 16.92215014401621 11.682850839544454
Cd 20.20260667600627 19.439330772466562 13.450796763517609
Cd 12.298915362275196 17.291363153046444 19.719668212977655
Cd 22.51372796560019 14.844709063267253 15.077625858404385
Cd 12.55784161084388 20.402081067416137 18.38087532247537
Cd 16.483438461298526 12.429640519893004 12.008178069098742
Cd 20.252187260406007 13.669112674498235 16.77972595234647
Cd 15.953256911322574 10.613091502183902 15.004982039603725
Cd 16.67080390176725 15.36147453579167 10.881041601960698
