53
Energy = -24.72211215 eV
Cd 11.28124137529589 15.56882179272992 8.442685971982856
Cd 13.487847666488202 10.405944348383583 6.9410759915220135
Cd 12.158069348391335 13.065724529116912 7.125451901913021
Cd 10.291847555830103 10.839475488190002 7.876323776165319
Cd 16.896907279987015 10.420472665438782 7.5294444881391325
Cd 9.012358639106184 13.561420539868827 8.428379132366427
Cd 15.250986530484695 12.851162019370026 7.24868308430395
Cd 8.99088237222793 16.119463385140147 10.314545641068525
Cd 13.861622796973647 14.366289792041389 9.422875102303953
Cd 7.467262552989279 11.10407010630537 9.11697828325016
Cd 17.232779563467208 12.67837823328405 9.5557984680945
Cd 9.158022240883497 8.48364547212816 9.52301502356277
Cd 15.04098127429308 8.340046776373002 8.399070853482367
Cd 12.147345110026317 9.05619016366889 9.381859406094158
Cd 9.578262733451277 10.577708598933608 11.680902476314424
Cd 14.164307555189389 11.40140553487258 10.020626661619707
Cd 6.344260988597143 8.751241792956176 10.726637130446015
Cd 11.379644421515753 12.53793660285246 10.251197471148018
Cd 16.24024542399135 14.813573557493052 11.35051378135188
Cd 8.527315207451256 13.387915214874896 11.397466846477313
Cd 11.4829338971163 18.040460961070945 10.091222761343843
Cd 16.6734003569114 9.78786940094228 10.569344251050403
Cd 8.388517042113234 7.364011382408498 12.287473207751841
Cd 14.188667508285844 16.942183558925105 10.802098086351869
Cd 10.861682016530862 12.641690413453947 13.50529935023704
Cd 9.603827232123834 18.105817131043775 12.47792127246186
Cd 16.75567806988485 12.112106664370916 12.616226243726116
Cd 6.25783449935324 11.435556951923141 11.897255477395476
Cd 15.371457423784967 9.58039365090854 13.315592740944364
Cd 7.455861724950786 9.660379669259772 13.97934373206376
Cd 11.27180409234279 7.221159927283954 11.620408138701379
Cd 12.506519951729333 10.22711623408082 12.211033913321195
Cd 14.29039051776471 7.720060701966782 11.167021566510563
Cd 13.841769690755122 13.155758417178463 12.481756007685311
Cd 11.614349308605878 15.073986798235675 11.872738317678408
Cd 16.00146253609762 13.924945970932635 14.853175465772344
Cd 12.549117116662828 18.416249709845253 12.892867522908482
Cd 14.435576189200876 16.14422407403647 13.670793605368898
Cd 16.323928528955115 11.096674455183052 15.854245062507577
Cd 11.192426916748836 16.519807752351106 14.704629743535959
Cd 13.282894755660825 11.349488352846791 14.842077644251907
Cd 8.636293229848842 15.468657231576392 13.582499127623683
Cd 7.64392854577197 12.720333981786311 14.282615177726877
Cd 13.16342781423859 7.6199608133509535 14.044939441990714
Cd 14.85295348197334 8.548323647988282 16.273485435962918
Cd 10.428887089427118 8.844373722878709 14.10221252966358
Cd 12.929982760408471 14.268708541737736 15.49435182302962
Cd 14.770565913472717 13.058374211258286 17.541926865406197
Cd 9.93697718836212 14.095733405401482 16.077839578301933
Cd 14.076604153813614 10.383330408142562 18.467952818995936
Cd 11.917809522177611 9.319665010322465 16.64333436703575
Cd 9.571421113688515 11.097084000188348 15.885689706654661
Cd 11.763325497198936 12.27909255570089 17.711563847036242
