51
Energy = -22.54750348 eV
Cd 9.393023961950957 16.0500652679677 12.060471371102901
Cd 15.732509190494302 12.792034956624997 13.21166500397061
Cd 14.748954013480207 15.777297128226415 12.832435206167998
Cd 13.225977122266558 15.341183722164864 8.159294965552231
Cd 10.654020427364282 14.48595172136862 6.533770262309584
Cd 12.339125975602444 15.784838271827153 10.872603524516546
Cd 11.986574630502066 8.498107561369725 15.834235581409986
Cd 15.359945797361622 14.382100981446188 10.355121993455054
Cd 5.540208805549511 9.987823172060255 12.085505669074806
Cd 13.703336471875117 12.156452793550134 9.055272480171839
Cd 11.283561788861537 8.451676735821028 6.7580130165500485
Cd 8.662899644794676 10.059557071175552 7.617350935197887
Cd 13.775346384016482 14.012190533109635 15.06813898372655
Cd 8.05289827495067 10.06355320771011 13.674293288435742
Cd 11.177956820744722 11.446920141992937 6.766756161582479
Cd 16.658004300567804 11.561581542422143 10.52414291062613
Cd 7.985649949497827 12.99504682132763 15.269944948410622
Cd 9.360232555751605 7.584275726204606 14.693618146299336
Cd 15.775377077807065 11.983881776794327 5.847694185979805
Cd 7.878908252186705 8.465994275288663 17.050595286037574
Cd 10.154015887532418 10.799067143972398 15.7912397316068
Cd 8.394245560368176 12.998111791206096 7.663388370238528
Cd 10.900938314397862 13.620173837970324 15.444926136030862
Cd 12.705126211518117 12.902693547634502 12.091511524770826
Cd 11.58153419949054 9.820065357577825 9.639272559592218
Cd 5.351311319437641 9.404304538731283 15.241356368223496
Cd 13.305952221340377 13.400893434203816 5.868762870402118
Cd 6.578636218138146 8.537543054763033 9.765295223644287
Cd 9.075392878706515 7.307803113827725 8.566310334183555
Cd 14.396646139635715 8.347186413959989 14.175417668815319
Cd 13.308412391567842 11.137445083413551 14.974962260340753
Cd 17.028592193405984 13.259430068622994 8.09777949885961
Cd 9.942269356030247 15.751586837260867 9.064100357866055
Cd 11.224176301286674 10.14463709853858 12.814283912242038
Cd 11.324044337790184 6.673386847716737 10.326294839638113
Cd 13.856274321234046 10.237514572112758 11.495681281261735
Cd 9.787394691619205 12.966171724700027 12.609392183230984
Cd 7.713136130377132 14.237801943980873 10.386611108654787
Cd 16.546840616840328 9.94618040399682 13.065150572878542
Cd 8.84837471626236 7.605592338139152 11.744937895533923
Cd 6.667661992437969 12.692616004251756 12.65547957717659
Cd 14.00657073104673 9.915542058013129 6.985413399693867
Cd 10.827108962041374 12.795793754675552 9.72976252940775
Cd 6.427131508690463 11.575922839725072 9.413796353434819
Cd 15.873048128082493 8.924820842175494 9.42376400882124
Cd 14.20604126320264 7.216258001607685 11.395497922531094
Cd 11.798688733370385 6.96442579184142 13.162088998665517
Cd 13.478959789438912 7.38614199990322 8.467051604336518
Cd 8.972574259166082 10.589166401007287 10.80918657814817
Cd 11.765619435008897 15.913023250881315 13.773783800691724
Cd 6.841136394185977 11.230533144414744 17.268943257778968
