55
Energy = -23.91092187 eV
Cd 11.686698988560423 15.759183593566643 11.347625560385714
Cd 18.321020856611174 17.243052418505528 11.477266251654404
Cd 12.825936838857604 18.51002405996917 11.454442951978741
Cd 15.31635502311596 12.499411456128179 13.082002443021421
Cd 16.977401242719772 14.715581039123201 12.033484944993903
Cd 9.732137823987168 14.010495620257823 12.761405761060159
Cd 19.57680874531411 15.568457536500198 13.63042252813453
Cd 15.772151927228128 18.876459325348975 12.135118323659697
Cd 18.843463240283093 20.06492723931216 11.799719789314922
Cd 13.108848944375785 12.702886754646743 15.796911476262967
Cd 16.914087277476966 21.69825229829964 10.365992116389291
Cd 20.25550259190024 18.484625527682415 13.954249108276612
Cd 12.524928308408835 13.086435393857474 12.848651265978827
Cd 14.076468423229638 21.182399159392375 10.861770496852191
Cd 14.461156442990657 15.962942073469518 12.678831532374591
Cd 21.3031008348062 16.828094406334536 16.23703405016588
Cd 10.553382968630412 17.74193300296643 13.392839626015657
Cd 17.90548610303219 13.288835022783564 14.579414570916562
Cd 15.352665584175414 14.958282037978044 15.39646958136669
Cd 8.359481703870067 15.548323573891402 14.781658817356151
Cd 19.03858373177697 18.89035959993149 16.728325616861497
Cd 18.22339544878257 15.805003394270404 16.50247305483046
Cd 15.865125022844538 11.852945141806387 16.224006223214158
Cd 12.932973622368568 20.89060335723186 13.563278127971918
Cd 12.259386236248124 15.497924563632962 14.890253676930243
Cd 13.904844950377292 18.19898891635955 14.814085961837925
Cd 17.957910036273972 20.693862459692912 14.45704023854552
Cd 16.91373064058911 17.509310789337466 14.514270623319186
Cd 20.903150867171853 13.335093565271347 15.095462962525385
Cd 16.331577465001494 14.31681399472247 18.26067533168342
Cd 13.229456672636648 21.314825928795372 16.532353598539157
Cd 13.15012902638826 15.223753603267271 17.755543112366325
Cd 15.455072536199054 17.279096023968272 17.32201510280102
Cd 10.831017862175086 19.917125231678042 15.456884066833632
Cd 10.152975390360556 17.1078855433062 16.41919385534502
Cd 21.75436428270582 11.278691336838602 17.02598982476675
Cd 18.76485682447575 11.098934928290234 16.419104779541446
Cd 15.942278943860611 20.192741264635572 16.394478369820693
Cd 19.21085596234235 13.622381471875503 18.206949218759668
Cd 16.794030279663673 11.011560680861958 18.971219082270533
Cd 19.137812896203585 17.006922787529714 19.15147839964246
Cd 22.215861751649324 14.39206352244927 17.582972108333372
Cd 17.24178712021574 19.278764503890145 19.115547666518857
Cd 14.426353589307743 20.122337335680115 19.13259393195488
Cd 13.96570685874445 12.366911079833198 18.746324880499873
Cd 19.814348401680085 10.164163104388747 19.050038317732994
Cd 18.79391213639919 12.086542570612533 21.033305591314345
Cd 12.510807717951502 18.295070881508796 17.604705620318672
Cd 13.33383076073438 17.589492051475084 20.32793987850152
Cd 21.811884913952643 12.275852420748558 19.900414742771485
Cd 21.1314908953682 15.111859178595202 20.29374162401036
Cd 13.598122265305335 14.648300315057398 20.727204889421984
Cd 18.172999195683698 14.901793620120001 21.14850123206846
Cd 16.1102303122425 16.670196213947694 20.289133327683388
Cd 15.849960970206295 12.91913653583612 21.325093221765297
