55
Energy = -24.83283669 eV
Cd 13.364949967110126 15.704842161263933 11.374312635582777
Cd 11.58492417100431 13.3133488497393 10.917205316461839
Cd 15.861633092250596 14.768249443164628 10.177253227851791
Cd 17.036630377434456 12.057549564591385 10.072566636971013
Cd 17.185908901700852 17.317381963686255 11.08399276394217
Cd 9.459890004752692 14.726098862547287 12.324648904935305
Cd 14.108635776706933 11.952212615220818 10.446032772628461
Cd 19.065207369319122 18.367478326776748 13.073053266548646
Cd 14.560204549356337 18.439978359171178 11.798875502721092
Cd 11.459232026095131 11.857584749027057 13.7002582530452
Cd 9.152655248442958 17.344580206462474 13.784409390525365
Cd 14.012719923262443 10.468457716219717 13.124985858318283
Cd 19.44802289993155 12.260668317142194 11.786768894274823
Cd 15.44712756802542 16.39270703001975 13.973649161575521
Cd 21.492044927423464 17.07821650228916 13.885577844028361
Cd 11.956747442198605 17.808020937122805 13.003247250254685
Cd 16.823417712084055 11.179304140331901 12.900061475363094
Cd 17.780335068502918 14.802117804876087 12.60360143312416
Cd 18.22400230557016 16.21833862017868 15.298262130391516
Cd 20.539602909165925 14.082204410838159 13.841617140744797
Cd 14.798780762193608 13.572854050380965 13.192474819435647
Cd 16.453475064358297 19.486617556352567 13.820495598363802
Cd 12.07366317906746 14.949796877907742 14.062373905300063
Cd 13.650422231284669 19.95558050378294 14.414142345444574
Cd 13.39986476135882 11.46885179118602 15.956439015566104
Cd 8.684878794590254 12.338928128806149 14.299132329794762
Cd 21.41442326001506 15.466950859898608 16.32161708480332
Cd 19.259366002426546 11.301616338463365 14.657121742514644
Cd 17.0245362790601 13.30198549335063 15.300892800026597
Cd 8.610021767161637 14.99398459909965 15.456052214088277
Cd 10.566229648239505 19.586163480593477 15.110384583938192
Cd 20.019980898785416 13.00876760672171 16.989521775005485
Cd 18.33067917737969 19.837064338178003 15.968219980611037
Cd 13.06123492505245 17.233730168926524 15.799023203538074
Cd 16.05116991781819 9.976016667590565 15.485224847644
Cd 18.419077732916275 10.479150631694662 17.36239721921564
Cd 11.113788383763985 13.67093432761355 16.60712797476845
Cd 13.944924092308732 21.02365614616659 17.064397892833487
Cd 10.247718543056905 16.91105972036613 16.962545919774296
Cd 14.371548372274113 14.475450289995505 16.10558415114222
Cd 16.75454202028633 15.046083681529165 17.689329707817734
Cd 15.871080631011328 17.789242609603242 16.557353722808262
Cd 20.271356474473503 18.061251386863702 17.121206026134626
Cd 11.368646488922268 19.55314327554616 17.909887803186244
Cd 15.678366510817627 11.67524498352321 17.925146458848904
Cd 16.59142027300426 20.648325706360833 18.26484378209329
Cd 12.821192823285736 15.670623466129625 18.523854115158606
Cd 13.968044859231782 18.532414226405916 18.767174770604097
Cd 18.247093646633616 12.659241730073289 19.46806266719417
Cd 12.888471383699937 12.683773228509015 18.70632452716069
Cd 19.662844899889578 15.570907264807738 18.753328150100153
Cd 15.2440447944424 16.490823800385286 20.303404983072387
Cd 15.288998519390448 13.58044700381229 20.125493765355227
Cd 17.71311420260552 17.949841816330924 19.008912956538875
Cd 17.868430640421575 15.207459863940421 21.067451502395006
