50
Energy = -22.51677674 eV
Cd 13.147015148444455 11.631030172694324 7.015330912234165
Cd 10.74298587404631 13.32709050446627 7.204196625798078
Cd 12.271616931733336 8.973358742303512 8.31989505436201
Cd 13.286685345548625 14.496351068802708 8.122444426552212
Cd 8.309845542046206 13.254594931923053 8.957175826063995
Cd 9.83253362973748 10.70919139531502 8.114156693444233
Cd 16.832879959523886 7.508334261026324 9.05429500179192
Cd 15.202201244733486 9.74875146365814 8.086764757074857
Cd 10.487882521931708 15.168390246611946 9.56338616351883
Cd 15.257723848263563 12.526543634401593 9.227381086183865
Cd 9.983455304684753 8.596140120690823 10.253632866816647
Cd 12.260298731297988 6.5960215242454705 10.38326989608989
Cd 12.215928065880073 11.774079532721341 10.022071713110623
Cd 15.327460406498933 15.266220618600144 10.297313064817024
Cd 12.932171554196668 16.93052637619697 9.7462637111873
Cd 10.680642007782312 17.491678635600945 11.594211330445148
Cd 7.773391456323991 15.701398167138736 10.939376876983689
Cd 9.739496159198897 12.100582748439622 11.591231714135132
Cd 6.511026783725424 13.025237773986648 11.316223331229336
Cd 12.640987468861482 14.21939544782138 11.690154081662618
Cd 13.89274289305849 9.098191884062578 10.952351730966651
Cd 7.5713661062816024 10.373781796879962 9.977239546989933
Cd 16.623308907086656 10.2483038953522 10.847976903004827
Cd 14.983228360346937 5.577244631859153 10.293547337865949
Cd 16.640428915877887 7.27593951718956 12.213789878492642
Cd 6.978950845364979 10.457003054860152 12.838100042210769
Cd 14.094508066692358 11.821040152246985 12.542031548198127
Cd 16.484610217758874 10.002709203912447 13.826960671280792
Cd 16.98386719811942 13.036050257002108 11.712025522696266
Cd 9.922539740061625 14.701140191426704 12.906070469038797
Cd 11.332908393868971 6.748268202411877 13.169596036537147
Cd 16.079938426088514 15.381721257666923 13.165245654401492
Cd 13.733621585240977 17.195748246079006 12.604381713506783
Cd 8.100224327372757 17.50898004131008 13.340678936720131
Cd 8.782368281546159 8.198768364617084 12.912366094565781
Cd 11.546445037746494 10.040059191595745 12.629829622778892
Cd 14.041423334373118 7.97304937772774 13.79809494539923
Cd 7.5444896241346 13.082586304204689 14.124797101826184
Cd 11.656850143333177 12.616625041882207 14.19360685733442
Cd 11.44332164726735 8.617772930721268 15.483438504396931
Cd 15.927804224571002 12.869914559721273 14.823645851536657
Cd 8.559142171690366 15.653383365596106 15.512043292796418
Cd 13.70296199385783 15.084378196766515 14.82366161528629
Cd 9.1772392111062 10.506874654524443 14.880993521989177
Cd 13.961868994862236 10.418517304824633 15.445404198488566
Cd 11.302593480320812 16.945101448224797 14.467221709538569
Cd 9.14843842220196 12.892547359614285 16.6249259588716
Cd 11.476039131543693 11.098435088516686 17.06541352395313
Cd 11.376189224357544 14.82179851735681 16.667634049513172
Cd 13.759829750260675 12.974625236053836 16.923628667166113
