54
Energy = -23.82483187 eV
Cd 12.061959667962487 17.373066476271326 8.829077906464768
Cd 18.56812772606945 16.458302950797467 11.373441828428742
Cd 11.885143602398573 14.759823081734792 9.994835206541499
Cd 15.88603174151863 16.27879774764342 10.02926709302726
Cd 16.818751001457564 18.96564370384115 11.681168092138062
Cd 16.72692606455692 13.924060798330002 11.700436829574407
Cd 13.992307940862815 13.069668214323896 11.051264212002247
Cd 11.582129009578919 18.715045821369895 11.407205563050196
Cd 14.33645447626806 18.81673103601608 10.104497697843886
Cd 13.69191242476007 16.113994066596533 12.149045549329234
Cd 20.048692376797327 13.820479055116493 11.822047254993008
Cd 10.641341388030416 15.907093167995994 12.651135336835123
Cd 12.773332351694062 10.827725341500189 12.586915722409339
Cd 10.947140416366071 18.515062781767654 14.227658403532029
Cd 18.25951215823919 11.369319644877542 12.404877303640625
Cd 22.35795993084574 14.10222418413911 13.900238405850645
Cd 18.67886839872926 18.49182738703909 14.093153187774663
Cd 16.275800666054 16.41104741506839 13.608925634937696
Cd 18.64223949049852 9.389404942310344 14.784476373062432
Cd 18.38606710490613 14.447032420801639 14.356657575466423
Cd 10.675916378055556 12.993005855766707 12.027540836239083
Cd 20.705881885697295 16.444691103591502 13.505997961881025
Cd 14.01712298273071 19.033954138844717 13.29482724333353
Cd 13.69091376097904 16.714169677214976 15.241275692549513
Cd 15.51264604871526 11.787314773168596 13.53097948568939
Cd 16.522365525760055 20.32840489385383 14.521398860070999
Cd 18.370415939900838 12.371194490584488 16.64318491489725
Cd 15.852362310406502 14.165110788790425 15.725357860898834
Cd 10.51162525933168 11.635446118507794 14.646176108938151
Cd 16.18060168756604 10.393417342098836 16.149747619937507
Cd 13.30629710384115 10.99304544264073 15.614392486848583
Cd 20.4083979362796 11.911809745600628 14.449989280660333
Cd 13.106121500583086 13.948165922694614 14.127960944841675
Cd 13.334170584458224 13.687557568118702 17.094432995317803
Cd 11.498775556610813 18.68177751050906 17.016012950549502
Cd 10.785790908123737 15.71760422265676 15.61986345276108
Cd 14.348647260382508 19.524226117588526 16.330833758689216
Cd 16.732359588080012 17.324469644431176 16.511958759795046
Cd 12.640200083161156 18.42161779594488 19.619343661123292
Cd 19.64201090820282 16.746610044000438 16.384767892189053
Cd 14.378813439316378 16.359219806267856 18.036031554574617
Cd 14.20190411832051 10.363907239489329 18.48443237640983
Cd 10.237932288588683 13.165043510376547 17.118061106795537
Cd 16.084204185503484 12.622323400586874 18.525873765265143
Cd 18.14135811663291 14.929499718322182 18.2826272988885
Cd 20.93048482063022 14.103059925270122 16.537307357338797
Cd 11.367625198266884 15.680281621841118 18.534033553952852
Cd 15.706270529292796 19.368893334818278 18.865657900130884
Cd 11.327926259021575 10.887505806109015 18.605003980718998
Cd 14.889050709102284 17.853934723782178 21.438555676923713
Cd 13.06736801417501 12.948473383285249 20.04353304103169
Cd 12.840300848051147 15.685425448493552 21.1973694629877
Cd 17.45490695837666 17.27778376099028 19.883887888848403
Cd 15.666533866538934 14.872705384497634 20.333257590297777
