54
Energy = -24.16575184 eV
Cd 12.651099686831992 16.4095608163183 8.64896324836628
Cd 17.863678631438592 16.380862476491235 11.395348495260695
Cd 15.448097014655925 16.047466015609434 9.584398360159675
Cd 13.677371938018494 11.391714753369186 13.91218278909341
Cd 16.891542044054255 13.624446909769997 10.559316784700238
Cd 14.151492119738252 18.63419112149475 10.118854347460198
Cd 16.241648351008752 11.314685665450199 12.325061635031544
Cd 12.780237774168118 19.119983505516554 12.625747793276533
Cd 17.050146801677403 19.170898811200882 10.174266625366501
Cd 11.28187018355737 14.424831499202877 10.145110726798086
Cd 9.648297792717711 14.118153406690817 12.663425268337857
Cd 18.81323721680048 15.700036460393779 14.090198159053577
Cd 15.844172443807418 9.249435563815814 14.328396661406364
Cd 18.825606946662223 13.047143031310489 12.747116327937896
Cd 15.039259481287617 16.675839769139362 12.822528756198082
Cd 11.658441437447017 11.930882625613473 11.77710137493359
Cd 17.92646011751374 11.333498894783547 15.197564171763409
Cd 14.035551506453558 13.829233688594506 11.466930051397506
Cd 12.546570727621782 20.864869625789755 14.946000480550135
Cd 15.317224844350667 19.489281089589763 14.188478971169607
Cd 11.596995672555366 16.46379707093321 12.344092679421985
Cd 16.14832864857642 14.067065100864081 14.216246343609532
Cd 10.809058345136126 18.40318993861113 14.85861812072556
Cd 18.044574349913912 18.91679248072775 13.065871232331975
Cd 19.72806703061174 18.21581331391739 15.366801222043911
Cd 10.316019963994504 15.52536448607682 15.150918758952248
Cd 20.38588728044921 13.055567753098563 15.260382382002048
Cd 14.502554570969902 20.301459793952503 17.05706706270524
Cd 16.755165434512715 8.976700684909668 17.18531438138298
Cd 11.453207663495501 19.872484478345875 17.6101268913346
Cd 16.57429185121056 16.82096528706002 15.827362063330082
Cd 13.670218032314187 17.33618885086534 15.623486568473973
Cd 11.501107441997073 13.936184694583751 17.31906149732626
Cd 17.466334554651123 19.920683418885865 16.183464589903426
Cd 18.032372656253195 11.2277862555409 18.47210662311964
Cd 10.886092216022382 12.33330113959653 14.740035080690067
Cd 13.197381174367036 14.53619871306803 14.346966207449452
Cd 20.200210977191468 15.654994430830396 16.835190600331245
Cd 18.933122180690987 18.037783106296892 18.285645712424916
Cd 11.223522868341362 16.88809135315374 17.733660146849257
Cd 20.47504971511893 12.970572358584363 18.23953893865329
Cd 14.455462065257422 14.893135313243526 17.11876814849447
Cd 16.474782956142892 19.416905790292088 19.026804859336785
Cd 13.82116920231476 8.542907059050068 16.475859616387293
Cd 12.409249612075511 11.079635398555851 16.903975529418286
Cd 17.50061560747413 14.091228437518213 16.993236506940512
Cd 13.89780788169035 17.80302932060691 18.82360484098259
Cd 15.265006153585183 12.023297520236468 16.576529555532346
Cd 18.694551696632654 13.056181478178278 20.832170040180614
Cd 13.299619559758709 12.582181110100025 19.33693313117328
Cd 19.56914871244491 15.625093937066849 19.864472235639187
Cd 16.545272033540186 16.21594875088034 19.04188694116059
Cd 12.738544572148877 15.38504998883842 20.145285289504702
Cd 16.007890230243767 13.33809542688034 19.692215145422924
