50
Energy = -22.18965496 eV
Cd 13.69155234555298 15.92707280927765 6.26926322974451
Cd 11.589990185734992 14.234979628796655 7.372778651335671
Cd 13.60431001636405 11.975201623199608 7.99940564097939
Cd 16.487078879583166 11.849540064291968 8.682883288214484
Cd 10.572248033618601 11.692938416338238 8.547810359644467
Cd 15.21449904830189 17.22515239972862 8.506623132953612
Cd 16.165524941000516 14.478034292327811 7.27871869522364
Cd 12.56212416897475 10.012288229936294 9.914488864467748
Cd 9.317653989043272 14.537144420085196 9.359991133356855
Cd 11.614613869824842 16.50796531613697 9.36845630204654
Cd 14.042712327194156 14.509073779189302 9.702338699679661
Cd 17.72854977993495 10.755119664259498 11.091510227059526
Cd 15.333232249526441 9.194225880544986 10.100009958389572
Cd 8.297275917317112 11.885159060250851 10.371094868458538
Cd 9.916463085151486 9.323324855229792 10.866037721079042
Cd 16.233549610595826 16.790359575450296 11.314727508171867
Cd 14.523108463324489 12.085173272139032 11.578172693901665
Cd 11.518817745980304 13.201529048563268 11.195599697772042
Cd 13.403675970683894 18.047848702078127 11.165240603780113
Cd 17.04113922535979 13.896158751617222 10.958369494129053
Cd 12.97921721794052 7.8966169632847665 11.904645192478014
Cd 10.949715543929544 16.428935207720652 12.261968339091021
Cd 15.822673620110871 9.229578172437861 13.043196856596294
Cd 13.663050382353884 14.973511523940491 12.644176378717244
Cd 8.474539634527188 14.40443809055283 12.205921158075686
Cd 9.165872240535455 11.470249694186368 13.118134122923673
Cd 17.24139803035392 12.1390870338744 13.539584483891165
Cd 16.824979614930694 15.191518490993582 13.74420444127914
Cd 10.391036264096382 8.488200785850305 13.700958747860719
Cd 8.875542706986906 16.408340343868975 14.288231519199298
Cd 14.646220850196725 17.663882509272508 13.808458653142907
Cd 12.231824593161246 10.906226006768614 12.964231960118353
Cd 14.305810500092406 12.874886281988362 14.543233315475973
Cd 11.324361210845431 13.753327990309616 14.153457903378024
Cd 8.322772248799804 13.438792001987109 15.21031764518139
Cd 13.465721730768646 8.615720115423464 14.771581303035886
Cd 9.160664419645553 10.390627931338372 15.837105847497538
Cd 15.737546924935723 10.425175087887451 15.768988863891964
Cd 11.087276301814557 7.978062877602983 16.541158955839528
Cd 12.099381577684778 16.828459758850688 15.15597072104857
Cd 17.124051822815428 13.472589298408831 16.162773972134595
Cd 12.143321253854605 11.378673685174753 15.91593549362065
Cd 14.99825841302883 15.750123628069515 16.04909365341678
Cd 10.02526599482422 15.471463430343137 16.796403734802563
Cd 13.63246751705994 9.411334679853804 17.786106111301944
Cd 15.079383681196774 12.480892114688151 17.9688213662936
Cd 9.926768679697062 12.670576664639933 17.75341261437427
Cd 12.718107903694763 14.31528753331707 17.12360893020234
Cd 10.482549710658837 9.802318234075763 18.682710318894433
Cd 12.485126934565615 11.85584145202264 19.15511400402282
