53
Energy = -23.7761087 eV
Cd 15.628567506385757 10.50805039933311 7.951334098808758
Cd 10.852527264741093 13.943956004394707 7.805422238115691
Cd 10.589357872882891 10.746029659608201 8.087139024731433
Cd 15.924207608558108 13.501329501440445 8.285876514031887
Cd 13.223058802336944 12.234080117792136 7.665204610130198
Cd 8.124475552511548 12.398284598054495 7.750369234240658
Cd 13.109392804780631 9.065351664651025 8.609798121123827
Cd 18.373142985285387 11.405848201080204 8.783689605970277
Cd 13.377599865576435 15.084495906509297 8.880556801609055
Cd 8.287422882874553 15.294154118087596 8.62386365457853
Cd 10.707145475571465 16.597829021321974 9.880545214095283
Cd 16.709565448399204 9.49779329093845 10.483012479939704
Cd 11.019993017325639 9.093278264494817 10.783031450101637
Cd 18.403378189510043 14.084365132782459 10.089163384113263
Cd 15.950190863737369 15.705105916428442 10.420077969087457
Cd 15.529733518910994 12.484906934727674 11.116807527564598
Cd 10.246145922235023 13.664119902372422 10.821024918780402
Cd 8.71999206110774 10.909505912518252 10.443054666503985
Cd 12.623664441204353 11.841897155106153 10.610584270712957
Cd 13.31033068113359 17.551201790160828 10.710112606688265
Cd 13.118293662364461 14.517569950324383 11.858749325510601
Cd 16.562891815479254 9.667677499639755 13.390260516653504
Cd 6.9677408007562995 13.33290180413925 10.419671488365507
Cd 18.419043687278407 11.705338630557694 11.906795273091442
Cd 7.859481436755153 17.23731089234507 10.895701191232476
Cd 13.978164086672201 9.042435157199415 11.617679320677954
Cd 10.68344271486603 15.680833105160533 13.08269434273095
Cd 12.680018761956918 17.802788545461496 13.659569069128905
Cd 15.489554951694133 17.444611198354554 12.744959768072606
Cd 11.533465542797392 8.74454478227549 13.723078257482523
Cd 7.790024042740073 15.001451503001014 12.73563808539127
Cd 7.81617147433318 12.12840150068303 13.183685244219577
Cd 15.601094574116658 14.567585076575117 13.476532623194595
Cd 8.71809636486718 9.325585926824926 13.034982685836331
Cd 10.963536418198846 12.022023115155683 13.142442700472477
Cd 14.032153906952177 11.571107167994558 13.411546480784985
Cd 17.315712698286486 12.37502376628819 14.505167988974147
Cd 12.684019066437845 13.913362196782542 14.83942694029008
Cd 11.229250763035944 16.611369309770126 16.074391198762704
Cd 14.500143921119331 16.685060606101704 15.875081697647202
Cd 14.34840895937636 8.159730933931616 14.632992019392074
Cd 9.216929381037607 14.11551462556841 15.252122257746736
Cd 12.07267176244664 6.687286819575289 16.051654614279123
Cd 15.477924719725458 13.783722036832595 16.432759497772857
Cd 9.177500279690516 10.926604494536939 15.614769691236631
Cd 12.229967466197941 10.94447975610134 15.61543823553321
Cd 15.384685275686792 10.679196533113588 16.135458831003074
Cd 12.903119852142108 15.144410403818013 17.940994660358953
Cd 13.411491501530532 8.892761200601933 17.68396624385916
Cd 10.68650253496971 12.97690824142939 17.45701004870664
Cd 10.2340208266492 8.713158934356418 17.244870553157746
Cd 13.586850250715923 12.253858615106283 18.06428286654942
Cd 11.446177782627512 10.562246227165113 19.32340193952954
