55
Energy = -24.41300824 eV
Cd 14.590446052340528 16.109217270753803 11.7854974928797
Cd 19.26408018026541 15.921253085839423 10.323428810964437
Cd 16.508381018454354 14.784496408517871 9.76894485545925
Cd 19.16698150198441 18.246478546314034 12.304627739874082
Cd 14.198981905563885 13.168288514120725 10.433037690795492
Cd 12.279947360726464 14.00161541263554 12.445859283549728
Cd 13.262821484815072 19.54778198492157 13.581666655390665
Cd 16.10430690207522 19.231039109726197 12.731002508903767
Cd 15.842735105008442 11.19580758132981 11.789137816039524
Cd 11.906986567067692 17.15960880083826 12.534842386680108
Cd 18.289293757841644 13.381042968604474 11.78212138733192
Cd 18.292666874604432 19.528115588564038 14.88994000623595
Cd 16.796930721440265 17.689841803398135 10.407061913815006
Cd 17.33411704436582 15.984505685994499 13.398356312373474
Cd 20.395018557793286 15.402917497288788 13.039114997740862
Cd 18.321479589250544 10.780546770264952 13.21320377044903
Cd 10.20042351442573 15.445812820686898 14.265419746341212
Cd 11.129845901892322 12.363873362998056 14.889907670420893
Cd 13.321679689618355 11.160224076142198 13.412115840612826
Cd 20.537284214866993 12.577100663004769 13.852765375322406
Cd 11.791564609859963 17.579890057903874 15.78010611679801
Cd 13.019599209402315 14.713543954571072 15.31381513920069
Cd 15.528022504488256 20.284259352137532 15.506827086031029
Cd 15.415100966873895 13.726322486750906 13.773405386276169
Cd 18.75645425670531 10.770767349632646 16.164093908348132
Cd 17.491647982857522 16.788818703901697 16.349543573173506
Cd 20.53197883689708 17.618603937653937 15.009457251079347
Cd 12.665934768814381 15.683884321807227 18.060357469365574
Cd 14.883754281949267 17.081976516594477 14.748437927548007
Cd 19.046859861337392 7.8294029516995565 16.643257516469507
Cd 17.902757005899307 13.775920354626223 15.44347821400641
Cd 15.944858556129377 10.76400754990601 15.02399966805673
Cd 12.784375809053055 20.28684777917046 16.519157893209194
Cd 11.542438134849549 12.884509271116418 18.251831551871543
Cd 10.22074307798201 19.336097208648855 18.39442366312447
Cd 20.714975372096966 14.891678702709243 16.04840006164933
Cd 21.47341881286053 11.975086479659284 16.605169966541666
Cd 9.359852521497919 14.009626830492474 16.67972651809071
Cd 16.470538223183457 11.859287846934873 17.85923453920321
Cd 17.53342414778631 20.39279275957579 17.710633794135394
Cd 19.924343851859085 18.704828572823335 17.703637071210824
Cd 15.474064080374843 14.657208582578138 16.876835170773347
Cd 14.642236931567513 18.069467799147592 17.666299899638588
Cd 10.59949573591945 22.214906940112975 17.28831314270688
Cd 9.596403588258326 16.480896280278408 18.166006817114457
Cd 13.691800184617057 11.703449065235633 16.613936452955944
Cd 16.983714578864717 14.488780744666762 19.563612057420304
Cd 19.4088341508918 15.98012191714574 18.69178055857358
Cd 19.233289164948584 13.013346746049997 18.27687853566342
Cd 12.867937486847824 20.152832301934776 19.60745221949085
Cd 15.672582929077528 20.540606409560144 19.962255258189614
Cd 14.655647715083584 16.295115001153846 20.13387399628278
Cd 14.255832053758905 13.138259763825559 19.481418542530943
Cd 17.176242680681934 17.838798844376345 19.478416610466425
Cd 11.655707039088862 17.44932772044132 20.416713218388686
