52
Energy = -22.94453447 eV
Cd 12.56517537386409 12.595087673072952 7.412969969831387
Cd 14.964436465331866 11.623019872572444 8.92193211731314
Cd 12.211185150872442 15.51068855535076 8.142841443550706
Cd 10.325904282171013 10.53059646515618 8.30761334277799
Cd 15.050003844913313 14.62065485153444 8.118513814761757
Cd 10.068149932720903 13.603063749237704 8.878524324221935
Cd 13.134425765532148 9.56447302669107 7.909891495257867
Cd 11.635654060333213 7.690513421802206 9.645052555885295
Cd 17.04037780047734 13.31471594124503 10.108948988861538
Cd 16.770988854407793 16.657188465370883 9.64011271971507
Cd 7.658913138269937 9.2248531446658 8.740273587918297
Cd 13.768100594640813 17.477210257591103 9.868319409246633
Cd 12.443891464677973 12.534954558401704 10.533887193842135
Cd 7.591477787235129 12.114077760293846 9.59838641836121
Cd 14.302699097597245 14.683771915752489 11.122978466401703
Cd 17.084373783272103 15.124811481043327 12.48905299781694
Cd 11.098580656494725 15.824868949841246 10.947842757412669
Cd 10.579155606867293 10.145934633159476 11.33271775743652
Cd 16.65929264298227 10.322018653172927 10.934593917062603
Cd 8.31600282844483 15.94759408819469 12.238131028578586
Cd 7.649603776025229 10.30234405667728 12.110530709802038
Cd 15.20405937737989 7.778294075657063 9.560341354739315
Cd 13.648977718054553 6.430656895789754 11.67065704939075
Cd 15.632498256353346 17.691218496225996 12.247118070535988
Cd 13.53855891862517 9.90956383252739 11.383812450618507
Cd 8.25315926217678 7.446901577489878 10.992248538646983
Cd 15.637608672979368 8.179998925656944 12.970376685829606
Cd 18.613615753934777 12.513722111418533 12.479008435772204
Cd 14.950982088599773 12.252711722171622 12.714875990622874
Cd 6.853141222227495 13.282168935848901 12.318968931410687
Cd 10.866217804332404 7.240833831671229 12.480555235365848
Cd 9.809984656372835 13.01689043724003 11.83823614019672
Cd 12.534962729761506 14.241446245011185 13.37883027391251
Cd 17.569222571228092 10.262290501417423 13.956605469162895
Cd 12.244951730473819 11.274224156776377 13.749614675945027
Cd 12.819895578446621 8.123837096070991 14.494457854990502
Cd 12.813786077338904 17.497995230225932 12.91488189810198
Cd 14.961750543405447 15.751432764460356 14.607506115726803
Cd 10.502722235899144 16.413343940133515 14.291838624178034
Cd 9.86975419776691 9.382527174597648 14.291744594102894
Cd 7.416946533809906 14.834294916829325 14.919106142395288
Cd 16.865423386441112 13.2398370601486 14.914157459397662
Cd 7.645803704449309 11.585777227801847 14.760327933867917
Cd 14.899807502763613 10.256653117153672 15.212917358260176
Cd 10.212179689739632 13.168577464521915 14.752949189311666
Cd 14.099614732146177 13.044503336406915 16.02944945777475
Cd 12.673791205159178 15.773326869392632 16.50203222146515
Cd 12.510614827421824 10.07480654146053 16.932369096134295
Cd 9.74740371803306 15.398070634729194 17.018986125237774
Cd 9.63122249369268 10.746553647625188 16.922388464057544
Cd 7.851855996387616 13.158010271190594 17.483656679940548
Cd 11.556398923423433 12.972394457476241 17.562171482804633
