53
Energy = -23.91265109 eV
Cd 14.919185480993136 12.79643218122321 7.589985185633033
Cd 10.997927234307715 11.03182387197012 9.601222721539859
Cd 14.032796611154337 15.843272208710962 11.545707841674973
Cd 12.234681081621444 13.79258797920934 8.192770283977003
Cd 11.517748846125594 16.051013596871584 9.923361809000745
Cd 7.934362899902208 11.653943734573476 9.661415027053282
Cd 7.4911715048470064 9.143406098269221 7.920927270769763
Cd 5.068148212617412 9.4532701775593 10.589810473051427
Cd 6.097880311091931 14.939942667064393 11.968128279438357
Cd 9.542087121116086 13.506807302244654 11.23328436363492
Cd 8.547670368822052 14.760721777974979 13.858505173355113
Cd 8.674465535093818 16.595933746415014 11.170226810577976
Cd 13.455096479429658 15.285887390332043 14.51701267066813
Cd 9.667421041892982 12.218338359466912 6.968219245765232
Cd 9.296344535948569 14.69615305073718 8.452702314942373
Cd 11.114370315925605 16.08713696011807 12.89352914478733
Cd 5.1076483505580645 10.845516787733239 7.942494063474181
Cd 6.4265938315429025 13.370753953185371 7.280979733596451
Cd 4.92848212230499 12.636445303934979 10.383813308234542
Cd 6.607455595685221 15.673273042502263 9.174175408640101
Cd 12.48721208717144 13.142847001092722 11.282326214308565
Cd 8.741999253323552 12.31152877441779 15.562397698840973
Cd 7.187076315174063 12.198144680901079 12.705490351165306
Cd 11.266036789553834 13.268414246254894 14.235459914552418
Cd 10.080650960053186 10.80042034289232 12.676873162683265
Cd 6.92352953562711 9.293483876834443 12.91634560159077
Cd 8.713201738471462 9.427745283563578 15.406387270192239
Cd 12.381059675887279 5.705802787037485 9.656754884613093
Cd 8.715199611486078 8.679494250889334 10.63470598220956
Cd 10.238936736160948 9.393668799381157 6.748702475007207
Cd 9.92386006909682 7.046990633084 8.412978497946268
Cd 9.181671344962504 7.291874487269488 13.392544636946473
Cd 11.96191672840059 5.983357275155397 12.968850296339435
Cd 9.729200743065336 5.692712914299071 11.007477213375989
Cd 11.881451179116505 8.768863010627584 11.355249846199152
Cd 14.220343891631352 7.0443031940112535 14.484511161474929
Cd 15.509799900329968 13.632510959484682 13.118400195672171
Cd 11.464754794379555 10.988361288299883 16.258584523146762
Cd 11.550379044764709 8.524595356382502 14.667284872924228
Cd 13.982749022362242 12.691526843945079 15.833575617753676
Cd 16.54115126288546 11.309117042937727 14.71666709711368
Cd 13.180832189690966 10.879780794408324 13.183765698485887
Cd 14.466083527916988 6.985198463359703 11.224390082455292
Cd 15.728770594726049 9.054055605839222 12.899965577070157
Cd 14.409193178021601 9.639892877979618 15.927973024077872
Cd 15.772645106671979 13.896088769637238 10.13040189562575
Cd 12.77381293024019 8.320904756282113 8.247341382013293
Cd 15.258600349735149 9.677827098594646 7.433058607449417
Cd 12.63771328685835 11.100999067143377 6.789133477362993
Cd 16.517522939638635 8.694998165967434 9.942467613770411
Cd 14.052069174737984 10.796657046746981 10.274080016380367
Cd 17.300302219288366 11.431665613415591 8.803562608397923
Cd 17.06981040736081 11.454582641313928 11.745095233495473
