51
Energy = -22.72451767 eV
Cd 11.580365316164926 13.123109619345035 6.472431372440813
Cd 14.500105354931222 13.800909385394451 5.614261254180531
Cd 13.319499480231084 15.82915270739921 7.208323248410696
Cd 14.024983428575409 11.25134834036825 6.96939518271945
Cd 9.335694496065583 11.941682142567602 8.009860994992225
Cd 11.741264595098002 10.055504391330809 8.389389249003584
Cd 10.393471745177402 14.795368837631218 8.740215446922706
Cd 15.16357016960277 9.236694471774554 8.720872855245245
Cd 15.96106084526772 13.126483850555344 8.414049635132393
Cd 9.967273622951545 8.375945879350063 10.085461108631327
Cd 12.994056720925155 13.249217810611057 9.197282546658109
Cd 14.774188070928805 15.639112646490092 10.041832646181104
Cd 7.6840430838957205 10.84719998985337 10.127945399845272
Cd 12.15120768603892 17.204621369026658 9.456153028024518
Cd 17.309823056623674 10.81857222852981 9.994507596229846
Cd 12.997636672088571 8.148643730973854 10.466295595906576
Cd 8.378813620177796 13.803568237887669 10.64792867853842
Cd 10.931344664695017 11.778930109927302 10.76141043443737
Cd 14.13962659284977 11.294071427502306 11.025716125919471
Cd 10.030696588494987 16.308725826985047 11.372567464328336
Cd 12.365021503327096 14.30065930591455 11.861758201141857
Cd 15.807263636772976 8.751031856530904 11.807203215460367
Cd 16.592974328612193 13.47836703019135 11.332494617363535
Cd 6.935832360132731 8.074663939067616 10.701402099811702
Cd 13.11969984005415 17.390040077531673 12.199439568326005
Cd 8.392343191215213 6.476227436177833 12.746496336250063
Cd 14.064339382383706 7.021965412071234 13.503137615906759
Cd 7.409270582322819 12.16884332653673 12.983890539985289
Cd 10.605380926672211 12.429924597314447 13.614962858694973
Cd 15.173179377246797 15.31202561907614 13.124236001430747
Cd 6.120481201919742 8.439970210123597 13.541507830407323
Cd 10.801680479321906 17.252457508698793 14.149658342744008
Cd 17.390737601488066 11.04136823059065 12.960974622205786
Cd 9.303519420102715 9.897482041797753 12.525641102604672
Cd 13.968302509243877 12.35828517568322 13.729616779025154
Cd 8.69637217440686 14.887927678547733 13.645566594447804
Cd 11.298916636192537 6.761766174238864 12.449386853034534
Cd 12.289580495063719 9.939888723473166 13.028459461718091
Cd 13.69675421571346 17.089601188910635 15.159046912432936
Cd 16.956109540050882 13.252237692563467 14.751611057513006
Cd 15.36702847611057 9.741997576740966 14.648129191401638
Cd 10.061211640194918 8.124003615586977 14.81938997282171
Cd 9.686604481948882 15.488333160775065 16.514582007033244
Cd 12.168036495020962 14.569590911123107 14.850507166257398
Cd 7.779784431366087 10.133724674983732 15.211883005427872
Cd 11.583493526931207 13.31536869214677 17.499259714501203
Cd 14.794654130041438 14.419258114734781 16.34582374430267
Cd 8.607579992935678 12.787506183245629 16.08373442073711
Cd 13.906579415427489 11.4308893970333 16.702829386739065
Cd 12.928611673155615 8.483309582980668 15.866777541880584
Cd 10.911364947961014 10.713856286228273 16.086127798767002
