54
Energy = -24.04036799 eV
Cd 15.568055440396241 16.08474393018817 9.180854584663411
Cd 13.46606670603813 12.233605056327729 11.562949801783342
Cd 13.747911927375851 13.725745950347505 8.900346737674719
Cd 15.989208360463941 12.041626480836975 9.89375902550748
Cd 17.397356486735507 17.540440858051316 10.961696901737163
Cd 12.817603338036728 17.268593940075334 8.750152345304034
Cd 17.408437865143714 14.475776886109822 11.054945516628571
Cd 11.235546376266734 14.071798898139669 12.027050569828068
Cd 18.105240605731233 11.299151729256355 11.765091748194314
Cd 11.069598727103884 14.979435222751187 9.232976110635505
Cd 14.95806397903821 10.378600961047939 13.218891015733275
Cd 14.184004823332838 15.321916790007737 11.793450813937177
Cd 19.72035727939005 15.793812074404414 12.372238425483259
Cd 16.288739579182334 19.522711105573272 12.974309435608912
Cd 14.384295438601193 18.40572889840944 11.016906165694087
Cd 18.928909615539208 13.501584172367297 14.107784020589218
Cd 16.35210964091641 16.438216681186656 13.659714805631225
Cd 11.881525977511576 12.404953399781087 14.33265887101941
Cd 11.645354455334882 17.108994712420326 11.779744786590731
Cd 13.548332616443101 18.00824365981376 14.013846963374359
Cd 19.26926726793332 18.643465702383168 13.086650027169856
Cd 19.037978920460944 16.48988401048327 15.305702172224656
Cd 12.683107521528688 9.524471424997675 15.049474096722458
Cd 15.809882853047629 13.351330488468305 13.369055217583565
Cd 13.522558099806663 14.982725597351253 14.67684980769253
Cd 17.5382498115039 10.798227391059468 14.681189442398875
Cd 10.449353162599866 15.906989201656831 14.260895584658295
Cd 11.85581331606268 16.94202115645086 16.65288915591459
Cd 14.992065396531357 20.371924396782045 15.471051687650638
Cd 14.684971391581607 12.280470081039098 15.87057661730658
Cd 15.59260035370231 8.702912147957495 15.641731302802526
Cd 17.76072787774654 19.232228863966167 15.680917726045916
Cd 15.315921985646948 17.218561889881876 16.443879914826567
Cd 13.958271545657693 14.691171956374758 17.586884251743548
Cd 16.676232960613238 14.589033645619017 16.066461268147776
Cd 18.856805471999824 12.252931679428134 16.941281371583084
Cd 20.688299270486564 14.493107210549331 16.846006629330358
Cd 7.98065058195885 14.071680960071248 15.273651027824462
Cd 13.754568068080513 9.24478936944255 17.882871119223694
Cd 12.319146516127416 19.815826348737883 16.685520860305136
Cd 14.710752286796993 20.456381679009283 18.465793445047336
Cd 14.257898624212462 12.028815408680527 19.203657086090168
Cd 15.987463351486749 16.196538071898864 19.571376353950743
Cd 16.546188392394704 10.631736010062198 17.76980009700493
Cd 10.69419636673821 14.212933960711988 16.838656843169918
Cd 18.661698763875226 16.097609597030083 18.362671149558942
Cd 20.07959881049318 19.08160740950724 17.850681930608793
Cd 11.983939631197618 11.628152002349784 17.20986389265106
Cd 17.118811493114954 18.836081436780603 18.685982693126743
Cd 13.51829170105289 17.776209720865058 19.1226521139395
Cd 13.71868125155026 14.690819920888627 20.720139689091912
Cd 11.378826597867587 12.994131312980114 19.881020906169965
Cd 16.895215423221195 13.459146526383229 18.91176640090187
Cd 11.201733027940426 15.896889346657257 19.52951680551831
