50
Energy = -21.91107164 eV
Cd 17.111983345943568 11.94184081563343 13.497313396580797
Cd 14.132778825383612 11.955383011725452 16.720084422445346
Cd 14.160680668545226 11.967307558789921 13.740137304077143
Cd 13.54887399328469 13.483619608450356 11.265914538535464
Cd 14.198215577557628 16.04522769734466 13.042301876508049
Cd 15.379567251033933 14.32852586318644 15.190311223536591
Cd 16.635079196888793 14.589107788505387 12.169323549506379
Cd 13.299146865384673 16.7437354356155 10.32575289994484
Cd 10.763846474197809 14.696893623749924 11.129322772985935
Cd 9.88963100316141 14.260187185817257 7.990896905291008
Cd 10.609274391651088 17.01423368186164 9.026630944844513
Cd 9.0822786573616 18.410917450398205 11.081860237026806
Cd 11.408937618695724 16.95101560939791 13.076219250056184
Cd 12.67247449590297 15.772822762208353 15.650145834379162
Cd 11.650131758074645 13.473911800873802 13.74388481295745
Cd 8.543592784057722 16.096093675495812 12.8639217327675
Cd 7.819840148272726 14.514627227299112 10.417466306774719
Cd 9.64107476808855 15.153653790163073 15.482557761832116
Cd 9.24103252448845 11.952052872338225 15.767647652715393
Cd 11.538075841192201 10.476837042775395 17.023814193819838
Cd 11.53423066257356 13.43558267746332 17.02899091147582
Cd 7.47474484785074 10.370546861311448 13.924831419161736
Cd 7.4831578297297785 13.536774337296025 13.921727517550936
Cd 6.575275432138883 11.951215616967888 11.533221997416653
Cd 9.640927894315352 11.947008609773805 12.232260175443255
Cd 13.573628077116112 10.445296265007023 11.257872163088212
Cd 11.39797570786048 11.953397813882095 9.906374570835027
Cd 13.305645939638254 7.172493634901191 10.31630537838382
Cd 10.610729023420792 6.896060623727276 9.018587864585784
Cd 7.832131897306788 9.395102969887995 10.405058129151639
Cd 9.89170904064482 9.650498094330127 7.986952701315403
Cd 15.64212614925319 14.886129075259852 9.346932800002248
Cd 12.905018035948654 9.346134220615516 8.071240054024853
Cd 16.600725400822398 11.95426209087054 10.364897756267021
Cd 11.607986264094308 11.955739606999915 6.8809297981913
Cd 12.89792945889331 14.56861413417641 8.075311166569056
Cd 9.11608410532031 5.488508293567641 11.089867409268534
Cd 8.543384508797386 7.820307388994668 12.847610528979745
Cd 11.404303007752318 6.952376281826489 13.08543337186031
Cd 8.310854831446274 11.957197343462196 8.945490339902237
Cd 16.635484436889787 9.301903278754704 12.155209866655172
Cd 15.66048699697756 9.014443335941499 9.323760895724645
Cd 14.463780900776907 11.95913375600868 8.303298130226336
Cd 18.87082482114345 11.871173684699299 8.25921211967494
Cd 11.668013779653938 10.438047303340891 13.735342569408886
Cd 9.652693042677871 8.760732045575079 15.461274822601707
Cd 10.784966511774162 9.207384114509281 11.125729957441806
Cd 12.685101875369304 8.143068117849525 15.65018243491088
Cd 14.188337807977671 7.871239527947331 13.035518227359999
Cd 15.385775452895228 9.592184532966725 15.175617375709264
