5
Energy = -0.52741544 eV
Cd 14.216769418337732 11.715624242438778 9.178742763206936
Cd 11.31569190463837 10.77683904499854 10.501153088619843
Cd 10.794846258133239 7.748343005160184 12.010570190649794
Cd 9.011815457897494 13.290974474791131 10.311420420678107
Cd 8.398011875374456 10.204398326028725 11.771715480387407
