50
Energy = -22.013777 eV
Cd 7.097550669652695 14.643044665932553 9.315668178820449
Cd 12.962756520616566 13.846162454955984 12.17145650717198
Cd 15.718832583815091 12.586522521802278 14.168266336912263
Cd 9.161560031403186 15.752677036363819 14.782597549926972
Cd 11.072929415953094 15.474510780747766 17.100536978011586
Cd 15.740166030166213 15.314367610865215 10.880240501561593
Cd 6.624590909447605 12.467531218181772 11.315300773184985
Cd 8.638690862810543 12.001429829909627 8.940615401805921
Cd 9.669725740373853 9.18927794085338 8.150399406539888
Cd 12.414290665018058 14.12239728017365 7.1931841878138485
Cd 10.09684113704271 8.411158156757637 14.193872325381511
Cd 13.309439530946804 8.274810274666445 14.438853964231134
Cd 7.343591540135662 13.101534751177361 14.227632770925783
Cd 17.785311493942633 13.317713909808308 11.959583438771723
Cd 12.31433381703981 10.975173805276548 13.206208024217329
Cd 10.901721773236005 13.295188645459973 14.20721052985959
Cd 13.052986458524375 15.725629907595973 9.600357541511913
Cd 9.540439238461747 14.571110896895062 7.465795541888871
Cd 15.591061603630155 10.146018839779996 8.713431394027651
Cd 11.357670359446626 12.362117471714646 17.178203574777775
Cd 13.623005145940569 11.392814908710722 6.900228843073279
Cd 10.583012237952104 14.117274822191325 10.368581003217837
Cd 13.51823129594595 13.976002413201307 15.790731822610331
Cd 14.916942172224353 13.371572643469836 8.748511485143418
Cd 14.72754464710011 6.795090337303648 12.337859344618437
Cd 9.157766287273839 16.94448638658668 9.305548640583694
Cd 14.0132926290847 10.933533319942976 15.84438163715402
Cd 13.633351978727918 9.32417049770869 10.978923825402742
Cd 15.863802392751888 9.599365697931171 13.33137472301784
Cd 9.154147559017662 11.004965060369807 15.441310845320364
Cd 11.06713103510721 17.014965380421224 11.610514774326221
Cd 10.681912896391754 11.629166584465212 6.80022836295548
Cd 12.711815298366604 8.799930009160772 8.128076414232241
Cd 8.267504928455965 15.159866845764302 12.065075462433878
Cd 10.743392691425246 9.4000219155078 11.095268522856356
Cd 16.714807727626294 8.050982040268936 10.648159565635483
Cd 9.562102014813396 11.891511737188228 12.020694083176911
Cd 12.125232868678962 16.244159408509216 14.222332374610712
Cd 8.445826643138998 7.343228668785892 11.915974878968356
Cd 8.61837936068602 13.692488944253128 16.968548306604834
Cd 14.99184314297623 11.88181581564575 11.332434740047766
Cd 15.102916988222486 15.553772162852468 13.688383983650692
Cd 11.560128024467511 9.498567908530813 16.494258420206574
Cd 11.686738727252417 6.577424153276614 12.378510809228986
Cd 7.408786887926491 9.963273597886017 13.22584279509468
Cd 13.478998162318641 6.3678180491547405 9.690868928097558
Cd 12.179134588501897 11.758088632689747 9.806472151216266
Cd 18.009890431950563 10.731998113985377 10.57114154739775
Cd 7.410468014796146 9.596655862373202 10.231219509839937
Cd 10.415583398547387 6.574790642278818 9.617307831266993
