54
Energy = -23.43173833 eV
Cd 15.392183731646199 13.648685322148529 9.185240889195066
Cd 18.137368056022357 14.41948118579014 10.493793064367773
Cd 13.873133703602694 11.566330066173172 10.68010290863903
Cd 16.98702912721372 11.554052357326272 10.538469715306181
Cd 15.62607537133102 16.347597271443423 10.237429057690406
Cd 11.02593229985237 11.342573026868578 11.254214529134176
Cd 18.69802699086258 12.678012863682332 12.799337614714107
Cd 13.335632237674888 18.20137777168082 10.706851205868519
Cd 18.058454789065898 16.809887787903406 12.14523125212647
Cd 15.609989398496285 14.32852596803636 12.768753072942426
Cd 16.19960755846269 18.983206441844622 11.472113983291576
Cd 11.031161559861433 16.704222848116476 11.765357251486872
Cd 11.85322108788008 18.953664029042574 13.336448537520372
Cd 14.093188311466426 20.816957694088476 12.268899825098238
Cd 15.826624054828004 11.343358646539937 13.211787277046218
Cd 10.411426816375375 14.019263611765954 12.592939144099674
Cd 13.007347023660564 12.437556882921317 13.559894238685482
Cd 20.146286478318384 17.5500141309318 14.000398471118128
Cd 11.668179520954109 15.693141396062547 14.798798724401319
Cd 14.251315598427817 16.807262835860396 13.534741600092222
Cd 11.577948780773383 18.36774006792475 16.182508622986546
Cd 17.418627784856685 12.291399151083409 15.511830223332941
Cd 17.156058794995662 15.658430548074366 14.924098956067633
Cd 13.068663470838759 14.618040642472572 11.028562896131675
Cd 13.864344556477928 20.280103400704242 15.124971635480879
Cd 20.056829720879026 14.523627887597362 14.54431208334384
Cd 16.515629620872232 18.70181963029936 14.411100566691841
Cd 20.48758435274115 16.54442904282128 16.756313808346597
Cd 17.23778524941858 16.889268979162868 17.664565087787167
Cd 14.645308975508408 14.265361436470952 15.809912649062188
Cd 14.409179759245719 11.139457611638438 15.850413116648433
Cd 11.390284329354717 15.154704029883431 17.725235259085217
Cd 16.090240616069103 20.115028935867233 17.072845322471018
Cd 18.903102543202213 19.174475809364424 16.237487011829877
Cd 13.143011960835386 20.221602274455154 18.010172793221958
Cd 9.645236944608483 11.587762857988478 14.039917596565138
Cd 18.361876312116877 11.287048933008872 18.260085981044007
Cd 14.470627408466529 17.141760055559164 16.504716707573387
Cd 11.342850505586515 12.72825057209561 16.116501479551722
Cd 18.713418121889237 14.188488880536607 17.34169849044708
Cd 11.955714011449754 17.682936255482577 19.052831757392493
Cd 14.993486530288893 18.50106497396049 19.55306686429232
Cd 15.552916779446761 10.710403964319411 18.470411461897957
Cd 20.502781585748973 18.809075247889556 18.77773142606586
Cd 19.663343768499146 15.868661026387052 19.68463828062203
Cd 19.85169619412905 12.87511871199003 20.19138995180036
Cd 13.45977259488783 12.801313049373473 18.23383475805397
Cd 18.987623576920242 18.322021160176654 21.44175226064484
Cd 17.76000986244798 19.94870757505788 19.410549451395077
Cd 16.274980666989627 13.446173748612535 19.621754075351085
Cd 14.147667863012815 15.554500993261613 19.08581334686751
Cd 16.689389107311733 16.374397521933933 20.626111323390692
Cd 17.885695602550964 14.030466278454591 22.143277648781872
Cd 18.895667619835326 16.342725896124083 23.59032403121081
