5
Energy = -0.638414 eV
Cd 10.229962905805277 8.206052554109261 8.210920133502668
Cd 10.895374569156816 12.000397499160584 12.34615478192922
Cd 9.304816365536428 9.423026366877911 10.960965988905496
Cd 8.772584684900867 12.31382782369978 9.909171752450227
Cd 12.46413819748836 9.723572479040213 10.23966406610003
