53
Energy = -24.56702582 eV
Cd 11.717093015091644 8.59513460919521 5.724851101628623
Cd 11.695608248297512 8.594075778404804 17.86230875299627
Cd 14.012262223791124 8.16780018132406 7.430687560721067
Cd 14.000229154791251 8.165333128084074 16.169668119859324
Cd 13.203392132014727 11.096707804453555 6.678941094027703
Cd 13.190318441147587 11.09484701820002 16.917277310847357
Cd 10.176934998120625 11.156589932845147 6.715483001653908
Cd 10.164919494703494 11.157855260497463 16.865399033512407
Cd 9.413380313866032 8.275815764374574 7.433374280496969
Cd 9.397828960455493 8.27791666382291 16.146490960089686
Cd 11.69393863653266 6.887805565076661 8.798583695350137
Cd 14.945458723650926 10.456865907829888 9.202914154198844
Cd 14.931252330606139 10.459052421726446 14.396945318384402
Cd 14.351202254840711 13.240025846294348 8.387913916768571
Cd 14.348526160627735 13.242221926584307 15.218529588293395
Cd 11.59355199313561 13.752161848257415 7.247904108491414
Cd 11.584606214393766 13.753261900060822 16.342233910612315
Cd 8.932460850830127 13.410316936233626 8.572836597502105
Cd 8.921585329136974 13.412713289949531 15.016628477479916
Cd 8.540728385741735 10.540260533979918 9.205578039572721
Cd 8.533826174672832 10.54514073700803 14.37109322559573
Cd 14.377515979445922 7.729671551221466 10.34641136421214
Cd 14.375224116455387 7.727627928871746 13.256031350062084
Cd 9.007737526797934 7.749199668531477 10.324842721245496
Cd 9.000158085964747 7.750415072272757 13.25669524994862
Cd 11.69613413865274 7.8993496665646905 11.797247027525698
Cd 11.684621560593474 6.885212049540142 14.795802541724445
Cd 16.787877532121378 12.564458234003807 10.262308843735312
Cd 16.782202472630303 12.564879806470836 13.342720292307972
Cd 16.006649633845985 15.455287572148858 9.44568582706242
Cd 16.00570971755803 15.454879803264456 14.15714050740553
Cd 13.060362784461146 15.880935859416159 9.088668544172176
Cd 13.057560265527204 15.87862918061074 14.505019816734409
Cd 10.075455550926277 16.0360539872267 9.207608544245247
Cd 10.072907204507967 16.035100452771733 14.384033789846791
Cd 7.0546929924722885 15.489212748373598 10.226440336355711
Cd 7.046672339628106 15.49382608095881 13.362463599585235
Cd 6.6008708901613735 12.588000225619913 10.329087885322311
Cd 6.5917554998263395 12.592630852104122 13.251239579729507
Cd 16.431004917692718 9.967845754922209 11.804512113393537
Cd 7.134306524566295 9.907750771715596 11.787451337011811
Cd 17.661195717958492 15.063589610416033 11.801878983234277
Cd 14.691956476882643 16.725128360747384 11.800550954599814
Cd 11.726078818474319 15.766184515593604 11.79642603388203
Cd 8.912579359784303 17.13488968917795 11.796366606737672
Cd 11.719176539544703 10.045203433962877 14.276310377901398
Cd 14.179601166149293 13.572151145070686 11.79872005858096
Cd 9.358769155035358 13.622400173875253 11.799573861936281
Cd 11.727707551393937 10.048636230894726 9.311485555000438
Cd 11.766820178060442 12.935048615618268 10.138535243369965
Cd 13.347248433531485 10.678364744268661 11.795760376611991
Cd 10.144691388541242 10.741749351127867 11.79072132539411
Cd 11.768761045799357 12.931231599459387 13.456048991683131
