51
Energy = -22.72811548 eV
Cd 14.029092064499089 13.645409656859986 16.486344154512807
Cd 10.990765170927704 13.741492843770533 11.840694671837479
Cd 16.540679696350264 19.841574944967206 14.220461884948177
Cd 16.11124553695891 14.710790183738288 9.412707244260812
Cd 19.637185593238815 15.858651178987367 13.539318426842403
Cd 10.736416802610375 14.70590364631397 17.050019816629263
Cd 9.879552490610271 13.385553591949066 14.56193116620387
Cd 16.431245471498027 13.643696573444998 14.695284861613503
Cd 13.88179282646247 16.75450030029568 15.931011572477916
Cd 17.73436957023742 13.503340086225938 18.649290671112226
Cd 13.63405288156094 20.126306263891845 15.55952525032906
Cd 16.64949946600144 16.582554148985274 14.101140577645092
Cd 11.22887096239141 10.865257856758456 13.468369298048723
Cd 13.94655018533781 12.125347613599114 13.711576119795001
Cd 18.865621083913776 18.256439496897436 15.709982404786759
Cd 11.77429952770275 11.630115743288066 16.33217439472911
Cd 17.450763655139344 11.05126585647261 13.372415841384887
Cd 11.017888313694238 17.708868538534254 16.570465650928178
Cd 11.508975203812678 16.789914479571937 11.415203336310546
Cd 14.385896953643282 17.23730669276845 9.966107091258154
Cd 18.239181978376607 13.718745471900215 11.777423952925844
Cd 13.920989518513563 20.616217891800925 12.618480718401324
Cd 12.976438593675788 8.272803095781358 14.35457240419004
Cd 16.257318934422614 18.97061934632446 11.431119687286
Cd 15.439985529539305 17.321107041156594 19.49619688657587
Cd 11.486925906682629 18.948274602945194 13.719363850223566
Cd 15.050542438072398 10.209405203008195 15.696765386146476
Cd 14.01837201840057 17.46596930601109 13.043453072405407
Cd 17.853580562481802 16.551525961505813 10.933577433910093
Cd 9.97126565586912 16.39013974207664 14.067849944537398
Cd 19.13764337063829 18.70090773596197 12.740817967731346
Cd 17.779976573522774 11.472888799687494 16.4317906831103
Cd 13.245201590049598 18.922093081279606 18.225192467213365
Cd 12.605413295381059 16.059761044893772 18.941856162215583
Cd 12.652234443272965 14.838055136590125 14.147910208471323
Cd 15.963197987959889 11.99929724802051 10.762402034848126
Cd 12.388092171757826 13.004336445462895 19.077701012260608
Cd 12.373816736163974 8.921820429667411 11.499679734284793
Cd 15.040545993142999 14.672649968865766 12.359356424448846
Cd 15.010706212120622 14.331346990371731 19.711449673631417
Cd 15.113595621756396 9.434626231173942 12.549809694630554
Cd 16.295520117766067 15.535771259030806 16.959716095474594
Cd 13.08889963428449 14.585640069159522 9.912964224506291
Cd 15.350334789939696 11.535526601412196 18.415598478105363
Cd 12.33782979959585 8.074962018529678 17.152556395931935
Cd 16.0879393459687 19.0336553248296 16.97857788662322
Cd 18.275975710922072 17.315260265512727 18.470063003516085
Cd 19.530101256094078 13.040383146146475 14.467140399957167
Cd 19.333429763473717 15.091237991362714 16.573373871655477
Cd 12.766280674649586 10.114202765417064 19.121857697498708
Cd 13.022538868278309 11.735118636157067 10.816044569309815
