5
Energy = -0.79018756 eV
Cd 8.932222841160021 11.517266761991573 9.048987300424438
Cd 13.751870351117596 11.37956886014736 11.422684116830712
Cd 8.402697873562467 8.802980772473195 10.537302870618403
Cd 10.186089376967349 11.269472845820149 12.007361803964754
Cd 11.333941945298672 9.637533147673837 9.590486296267686
