51
Energy = -22.73668252 eV
Cd 15.785706786585274 13.536561304600442 10.098695469168149
Cd 6.396327749644724 10.512922464569048 12.550286079606792
Cd 9.337067003754683 13.10666417170507 16.850051131286097
Cd 13.470378009334647 12.970287626530025 12.672517289060846
Cd 13.749652171049988 7.623200018439808 14.420486841505047
Cd 7.17399844175059 11.829184758377707 9.885171861262835
Cd 11.690544972340895 13.89170860073781 7.572455853569407
Cd 10.788751943035573 7.888321524866948 14.822430476873423
Cd 12.200408885607525 10.891211129488502 14.675198061099177
Cd 11.743680717821093 11.543967508420367 17.87682594297468
Cd 12.878208408549726 8.923498319814405 17.0366098550967
Cd 16.23401110493651 11.460316729317134 12.231396325979825
Cd 7.670132401288925 9.763311044585 7.4835346900688
Cd 9.533441980831714 10.174998840715576 16.36405200701408
Cd 16.05491837023981 10.842318498639019 6.070555638793359
Cd 14.727065977184331 13.667802164491162 6.9747397147662555
Cd 9.042650144943078 16.21387997005459 12.077710767635946
Cd 10.253344574609502 10.871986685159102 10.098821773121314
Cd 19.055146438889327 13.767277816448669 10.042416941893414
Cd 8.153217108714408 14.956417249178935 14.807854028628856
Cd 11.949236766706667 14.559508175584165 16.948128818914245
Cd 15.599087270874886 10.432249468195922 9.469284051837167
Cd 10.656563032543527 9.699582526853947 7.278458608629149
Cd 10.681156290622518 16.246479026501994 9.456710373040853
Cd 14.244171454118698 12.401888777868527 16.602435135957343
Cd 13.205142440107286 8.551155741219885 9.246761235425325
Cd 12.222147007242011 16.349933960378817 12.098142051651001
Cd 13.317859712796276 10.77913845343119 7.050905300901469
Cd 17.865765381064293 14.06638013969885 12.6218427963567
Cd 7.6810298722339505 8.695242734224648 14.595321463988558
Cd 10.355154382573241 7.733770465830986 9.60251505376865
Cd 7.551709073624904 13.439587334221056 12.344986168335183
Cd 13.075929301507909 12.187425778176488 9.724625448536848
Cd 15.117213627032593 8.560474221161531 11.869315821985666
Cd 12.241471282950707 7.10453410223609 11.919358372798497
Cd 15.194374247101763 10.197890488617103 14.619943460689672
Cd 13.645205032931816 15.734235213452875 14.802319914763869
Cd 13.537648243924632 15.380063329477375 9.531698171641024
Cd 9.685723334797384 10.915488015525161 12.989134919244107
Cd 15.16766910621739 15.632200136634756 12.20116642581448
Cd 7.6005936369276155 8.916960105190075 10.343481240065179
Cd 8.201368350350847 14.639243578424498 9.602751059832814
Cd 9.2787793396359 7.634321795754543 12.354105717205451
Cd 10.790112809620043 13.55496661670722 11.241500696924446
Cd 15.848757597094258 13.654646881666869 14.60659958154333
Cd 17.52272422563668 12.726947272968635 7.759596867564186
Cd 12.50613313352573 10.18929377542249 11.870515519094726
Cd 10.668031254422212 16.49250016705998 14.618528759723667
Cd 7.356952742361881 11.873851619182359 14.994671925386902
Cd 9.167277002756553 12.483742323303051 7.6362845504705135
Cd 10.882336020333211 13.486437513639983 14.143075903253852
