53
Energy = -23.11108224 eV
Cd 11.186373580572889 12.483322511280901 6.9121676283540765
Cd 13.765684782600726 13.614151481465807 8.117432296173943
Cd 8.525806833946618 13.4879266086517 8.143841478763026
Cd 12.882340465880228 10.057712482483582 6.67841430389788
Cd 9.869485182730362 9.786718296761867 6.605151118313224
Cd 11.789878264191394 7.460487388951176 7.676376064039692
Cd 13.274607908449205 16.220797653949113 9.612757527054839
Cd 10.997103145467838 15.165935436937133 7.912736530467411
Cd 15.197229305252035 11.075099984221973 8.199562286721129
Cd 7.650973005155448 10.549660310377114 8.581304820820442
Cd 13.412872417718276 11.790033536953878 10.6688818656294
Cd 15.012972186867087 8.070281636522834 8.143665562324133
Cd 10.636074785473971 11.146312201876716 9.624697451795
Cd 8.83905089136616 7.764330002101434 8.56120688228142
Cd 14.972536858406967 14.312536157641281 11.046568298515986
Cd 8.426626419406253 15.435164983494483 10.45998946095161
Cd 12.417995607857852 8.936052241552398 10.264875451997039
Cd 12.963739225825302 18.461004477999204 11.646689281506521
Cd 13.615411408868322 5.87359271723043 9.498653997610578
Cd 11.19958499166653 13.801630570874806 10.647903534984104
Cd 14.985986964359997 6.7195847959592685 11.882854020519142
Cd 15.783297403767838 17.26146118383621 11.160210354127315
Cd 10.558302985306712 17.4778807703041 9.721799597073279
Cd 8.94460824134127 5.7131635781121055 12.00038334805472
Cd 15.483279040109432 9.576292853136898 10.859518830011142
Cd 9.366278542452967 8.823617650252114 11.204656027466708
Cd 12.308407454799852 15.563446784251116 12.692420864425092
Cd 11.77288826782273 6.966992015907943 12.469213104557587
Cd 10.65119072143407 5.520501832390609 9.664698600421548
Cd 7.79784550538936 12.423812425459278 10.95648769711882
Cd 9.494974658044164 17.38647674797029 12.540218678427788
Cd 8.744984144909264 7.8161682171534865 14.07573410609697
Cd 16.140339354409726 12.054852497259699 12.568158352958534
Cd 7.252516461162742 10.200750586162368 12.991910183577062
Cd 12.744995769557441 9.925617482558117 13.218713142368017
Cd 13.865396713562113 6.9359312530723285 14.5793581344853
Cd 11.669111417616957 18.35901392847945 14.307329271780496
Cd 9.430723960575422 14.357555236954822 13.190717306865798
Cd 14.916957531816974 14.486368949573844 14.157897763213887
Cd 14.796967377593937 17.47732580318502 14.023443274990582
Cd 12.355418731375584 12.803133322531874 13.786068297118069
Cd 7.533725057682422 12.59269056441681 14.723111642926858
Cd 10.166021021274432 11.279109826200283 12.686382054731615
Cd 15.73268921361252 9.20394604214347 13.730985903215046
Cd 11.29987085016962 8.17274762232817 15.530690573538893
Cd 9.211900358150118 10.353599929438701 15.597209675957261
Cd 9.668875020913982 16.5369915807443 15.571721081202698
Cd 15.135867674568779 11.745196043434126 15.3883559285186
Cd 14.136584353483522 9.184307429330861 16.450171177301236
Cd 12.706340555204804 16.133854656579693 15.929526142068442
Cd 10.144941250160631 13.485344815404858 16.064946869198646
Cd 13.207186872099602 13.494221283793967 16.897680838166355
Cd 11.819787071830902 10.939899424607153 16.83915912957682
