5
Energy = -0.48707395 eV
Cd 13.579752435235068 10.994690610688243 11.463614435500471
Cd 11.192763139626 13.215700783936063 10.97365755320429
Cd 8.524807372041632 14.577408672091957 12.346784627318716
Cd 11.471972921890094 14.511323044567138 13.916620412208895
Cd 15.877415152149375 8.958429586462223 12.887093849970364
