52
Energy = -22.77026151 eV
Cd 10.523756083384264 9.937275216438925 5.900513340389168
Cd 12.30501578521198 11.743565125664771 7.998573136125778
Cd 14.509215126625985 13.749483218676348 7.987335853398025
Cd 13.2383473122124 8.938828299885055 7.230871058743396
Cd 9.612121249305112 12.79858588986562 6.88545605831329
Cd 15.396183094034424 10.84023307942886 8.063191871013077
Cd 11.739345050279427 14.78167607886571 8.06478624956769
Cd 10.561102492960016 7.749333428477878 7.84116374722152
Cd 9.014039567263213 14.708866612066997 9.135240623336268
Cd 7.5530742974810305 10.397148445422726 6.48991778166636
Cd 11.069393658230052 12.666437709351676 10.649829100896246
Cd 13.95691393803914 15.151213703699863 10.510804370961928
Cd 13.578278297298162 6.166222085492142 8.517682533530559
Cd 16.593332454637036 13.131233501705792 9.962289665247472
Cd 7.25774434710349 12.387036177303727 9.1910127202914
Cd 14.3469114795331 18.430007868087948 10.812212089282031
Cd 14.011559925728175 11.679507198857387 10.94725547826282
Cd 8.155990193937717 13.886974992559427 11.915820114859034
Cd 17.347896176978534 10.219945163959139 10.19031951239195
Cd 10.929539686588397 15.85054809859703 10.927721114180082
Cd 11.189835890899548 6.071673625713559 10.212563830741713
Cd 8.516475720573347 7.100633566581899 9.807187397373916
Cd 6.625557267865283 9.419993283838048 9.1144888297939
Cd 12.204865068878428 9.320665322075333 10.174643394483084
Cd 9.649004431903425 10.433989492958496 9.162119412503547
Cd 15.21920570844976 8.19927060676987 9.745714976205699
Cd 9.25911438687926 10.48043665913748 12.080958032259948
Cd 6.327533654098979 11.099539323053099 11.676592606228896
Cd 13.392929917537534 6.994863944707912 11.97805009587171
Cd 10.146978422166802 7.615365000108825 12.59513729029862
Cd 5.9312630999694855 9.120297781073177 14.39333568319898
Cd 6.757802111445369 8.036934021040544 11.92985444009563
Cd 12.897909369093783 16.79182195171089 13.012497176915899
Cd 13.030163036233919 13.636722326437246 12.896098312463678
Cd 15.269146305897271 9.245357352982339 12.631365412183083
Cd 12.1349176820081 10.359826000383679 12.974697223834879
Cd 7.79034837508623 14.525290603231866 14.957097148757889
Cd 12.45627526931058 7.583418329479834 14.675157967548218
Cd 16.595311918753033 14.741494281198397 12.419293810054699
Cd 17.236226891201344 11.64964014508805 12.704977881261778
Cd 15.322907080101087 12.840930153530088 14.599461964665721
Cd 10.387141649467711 12.742218089099676 13.664588264181468
Cd 6.586275530201843 12.014242498072418 14.453793296123273
Cd 10.214921258360729 15.808261733702203 13.842990658895076
Cd 8.897078906223689 8.988458608947562 14.97290433807785
Cd 12.669234896713702 15.636025185661286 15.954406336612237
Cd 14.220826551244214 10.125476390934512 15.227720724368261
Cd 10.036640122559533 14.785154945471024 16.843837520976656
Cd 11.403942011453971 9.902377491198928 16.21311967124806
Cd 15.198528118385967 15.953853991993618 14.629778732014454
Cd 12.565983655611062 12.666838737467458 15.942997733754074
Cd 9.134612936659176 11.863524124007412 16.259290879392104
