5
Energy = -0.86036841 eV
Cd 11.69169040620283 12.973289112380195 10.800188618307677
Cd 11.878408091806062 9.720938459318567 9.547494211538929
Cd 10.228087834880329 10.259642107371226 12.160811106907493
Cd 9.094945370698882 11.153575031117905 9.376474272894972
Cd 9.126341835929518 7.866540391094998 10.097353685269177
