52
Energy = -22.21523608 eV
Cd 15.696938116180362 9.445101498317232 15.81486870335675
Cd 14.998681575231231 16.94871118053555 12.772231028273799
Cd 9.173610499999794 8.255938257410566 11.269994612149969
Cd 8.0400709275045 15.427257225913136 13.529206014869276
Cd 9.979833940858802 8.09056795807944 14.48461267172461
Cd 14.397907289549485 10.852843289289394 17.93438463184286
Cd 13.29715440684342 11.200348760336706 7.937550874975259
Cd 10.164887881613717 10.748752884071923 12.887465157051883
Cd 14.3744717168768 14.095850358589551 7.460963141641548
Cd 7.332230760572272 12.32857611245961 8.603360727615668
Cd 7.531867088007417 12.317234063981843 13.781658145647683
Cd 8.62393077465857 14.056708050041777 15.976234558721064
Cd 13.565487650623652 11.350233961062507 13.592668098730817
Cd 11.472384968096708 13.306520872612174 6.764200802351721
Cd 14.080942081934529 13.178619538253606 16.038513311204714
Cd 11.05453981470697 13.077994888255994 14.576064217815334
Cd 7.464779692380509 13.889534649639826 11.129061313139534
Cd 16.283077357876902 12.503982771779018 9.062327052228449
Cd 16.204558197412144 14.725615011136842 14.577333776355681
Cd 10.497387543382057 9.079543520567126 5.883272299090452
Cd 9.058308648291723 11.658864983025213 6.363983146097908
Cd 12.088309944195771 15.291965173044906 9.107786627396719
Cd 12.498538849360218 11.19954321479065 4.759829078351126
Cd 15.867918382037024 10.530504861198954 11.257699304881598
Cd 15.521774370022108 8.295067966483352 13.07944066255817
Cd 8.551787820473104 9.393171521530473 8.482839657242911
Cd 13.59599412631215 16.313508042232268 15.381104405631236
Cd 12.24986750692421 8.743914497293007 18.645839890387816
Cd 9.701513757169677 12.247918845122735 18.009456613767327
Cd 10.538690873035593 11.67154233668357 9.335310604679691
Cd 13.10811225097548 8.109963721133134 14.845648950654509
Cd 13.200429868815966 14.355491611865169 12.87623012572841
Cd 12.415974292426327 17.23165193084034 11.318905554052751
Cd 15.67560628614412 9.459047429813783 8.37670362789472
Cd 10.538600056795325 13.487827714908732 11.670111212743196
Cd 16.4169969438681 13.51468995419462 11.871835745207658
Cd 8.629479145015887 10.445113194980337 15.786940742487205
Cd 9.545376357602407 16.33005795887455 11.027335318975226
Cd 11.847615057529023 7.177080080303968 12.313110757501422
Cd 7.673849291637782 10.866130930384323 11.149926438928638
Cd 15.002587601455941 15.395107337117595 10.155420150493969
Cd 13.326067074562397 12.700556308294985 10.583226728394816
Cd 16.667315412454236 11.657863648969567 14.207572703201
Cd 12.465946791703432 9.994373443610096 11.266190649504292
Cd 9.25494618874136 14.638031470215772 8.487278777991856
Cd 10.900956582793006 16.379913101174193 13.851490032834537
Cd 11.448900515618314 8.550505543622425 8.806646999803904
Cd 14.325379078839246 7.768646763606362 10.364020657108208
Cd 12.474287506113448 12.92258286593025 18.76220521130985
Cd 13.557449671412842 8.720976625119171 6.238759138618301
Cd 11.405719607297245 15.046683683023437 16.93114157203624
Cd 11.708419321980822 10.519229854194363 16.107499240664037
