5
Energy = -0.79800611 eV
Cd 10.19103657819203 11.278735517302104 7.720600182397799
Cd 10.830255321582674 10.778554069680714 10.83333865604276
Cd 7.818664841871752 11.329445290125566 9.838047387467455
Cd 11.541145211286501 7.413246937178053 11.728076584585514
Cd 9.338808743200032 8.560151859222266 9.226573998486076
