51
Energy = -23.24045028 eV
Cd 14.432579639697831 16.660668324545277 12.297961377441858
Cd 15.546284038551715 8.122393357718208 12.702543021499753
Cd 11.815917956069534 14.844095319034334 11.458653485851704
Cd 10.234300649179799 12.531089716962391 12.685655000913663
Cd 12.269255865866967 8.99995094107837 16.575971789290293
Cd 11.138392984838472 13.988524494787015 15.276123618492562
Cd 11.64989041485038 9.873050146482248 13.510795631059755
Cd 10.096470996039573 10.069550782528705 10.893424988395845
Cd 8.520798274740747 8.085690414375845 13.02156993199509
Cd 13.234249362413799 12.413945995494105 12.789988913036392
Cd 14.785486991623074 9.81560639002183 15.058452744976744
Cd 9.379572233639479 11.373282506266856 7.6115058230207255
Cd 10.210212861788069 6.753806920164985 10.920314789286744
Cd 12.390248642944139 7.447670818856519 8.931218618427435
Cd 13.69381642334205 7.0687616800801925 14.782923097751294
Cd 13.15193508668591 12.060388898703538 16.18897967350592
Cd 7.8060193945378655 12.471089267635223 9.875736186898875
Cd 14.261941661799943 12.510224936794067 7.790333992847394
Cd 13.008231299588841 6.758027137118988 11.827166699322056
Cd 17.04103491299029 9.29934281541945 10.364226525338774
Cd 9.432972314683582 8.391003822535422 15.900389307788855
Cd 16.52057506222401 10.950876818621284 12.840014047055094
Cd 12.226374690232376 18.695058325719025 11.767564580671477
Cd 13.91505077554381 14.749872857816612 14.656529272526154
Cd 8.729910056655061 15.021424447498196 10.993594890755668
Cd 15.952899586267149 13.944903422794987 12.60721076272314
Cd 9.391411232753311 17.896725625985056 12.168563227283299
Cd 15.91741500865023 12.56463831967254 15.263886161725804
Cd 7.082182490681658 13.07563477949596 12.774636357370346
Cd 10.309139842404992 11.288203995454932 16.323201707837256
Cd 8.045722388663606 10.619059058795346 14.379408987642265
Cd 11.8130213114793 12.31613316479137 9.95441749989619
Cd 11.642717547410783 12.8344657185995 6.488616325611863
Cd 11.690228158916492 16.603257183608918 13.833811544296529
Cd 9.746101207682043 14.277232289946843 8.38963491982834
Cd 6.852543278460004 10.26098899727109 11.673923586912808
Cd 14.98592679349732 9.632747097957658 8.150230412569718
Cd 10.956549288721991 6.761196331149198 13.945222553068668
Cd 8.196643219380336 13.230171561194652 15.64535502977439
Cd 12.583852593690002 15.148113778625245 8.095928975519165
Cd 9.652353314064687 8.364660333265688 8.229499135980733
Cd 15.166810275890033 7.1432960445836535 9.834565335854995
Cd 13.706675486076488 17.61972035677032 9.460884980602154
Cd 14.556849732130706 14.542843107653445 10.109917119988676
Cd 10.676262939200015 17.119486514770156 9.598311739417866
Cd 12.096749488665523 10.114351029321853 7.672508275200209
Cd 7.042893944860049 9.895086308343739 8.637388265032776
Cd 7.469548805874486 7.577732045645113 10.26639136963261
Cd 13.357025722830794 9.948999174086165 11.03983559279602
Cd 15.922644892681385 11.997471583862804 10.145805576871549
Cd 8.903048845767911 15.41318834006891 13.848144192068569
