54
Energy = -23.8220666 eV
Cd 16.22348735189199 14.456382110712793 9.153931651795284
Cd 13.636032730533193 15.51425078022906 10.376883113647954
Cd 15.377777988188527 17.37125516846796 8.601356672807093
Cd 11.91925614982496 13.596742449446106 11.976770913215844
Cd 17.66039985019908 18.58919879288134 9.939228543869236
Cd 14.92859462764424 13.057155135880148 11.838590144717436
Cd 18.884701335495084 13.708159046991964 9.960658790109001
Cd 20.905178764853787 11.867512066789372 11.082411771082452
Cd 13.48123688718763 18.538004141139158 10.619116781535682
Cd 15.801893801736673 18.831834879995363 12.349475842595723
Cd 13.644710027598014 16.385373340976685 13.26458210527139
Cd 10.576992007863831 16.078238827005762 11.261029704244383
Cd 10.766655288186008 19.03425695571442 11.560099515013224
Cd 18.641044019792115 17.90666698910769 12.915086363103693
Cd 17.80959065844619 12.797930834711577 12.725785680317383
Cd 15.081829224542044 14.165901539098673 14.780781118566763
Cd 19.872710844493383 15.145487845922322 12.981385688676017
Cd 20.68733432837755 12.191435919942476 13.996812488959614
Cd 16.55370109650078 15.69745909127694 12.104902698942974
Cd 19.62310935888504 16.499416560211973 10.299052451707318
Cd 18.38757749917408 11.675915848130057 15.70239236917026
Cd 15.833706919233347 11.182864606569417 14.228444010046363
Cd 13.017983554339338 19.316462631773803 13.694345176502523
Cd 13.629555982780028 16.219068685686594 16.355037946696356
Cd 11.534398048184718 14.473914225557493 14.823203619957312
Cd 10.542651976971381 17.336692976649513 14.06877264770353
Cd 13.04445317369628 13.00193920676906 17.030246262027813
Cd 21.258082888482654 14.564655564495913 15.581473736399827
Cd 12.819578809959918 11.839206208845464 14.135940078167687
Cd 16.168541542542478 17.423785781329855 14.919326809681941
Cd 19.205171340468336 17.95275929261675 15.76234696306007
Cd 10.158205008833871 16.19908826853658 16.79497459167794
Cd 11.914321446032579 18.724764904410655 16.535440736571047
Cd 17.98028805670705 14.812464136335269 15.452491939979902
Cd 13.962761146410882 10.202721517210163 16.307034215325043
Cd 19.821239420459783 15.831079550888584 17.742454204786984
Cd 14.631950474138419 19.867940877593973 16.12377155645114
Cd 16.774938037492177 10.068037619445576 17.539687789456032
Cd 17.181966116798726 19.44464969944418 17.433050508539658
Cd 16.46721515028645 16.260806429170877 17.638803286447597
Cd 14.128643119878976 15.038140155171023 19.02494525450559
Cd 16.265064720229017 13.215576049898397 17.42677701131409
Cd 11.38207016703244 17.450377377924276 19.200232370546704
Cd 11.042062113085885 14.331160026230629 18.89935247154145
Cd 14.391986819377184 10.87114488678647 19.11914607892086
Cd 14.432045582468023 18.394068748765147 18.73010194703031
Cd 18.26664347181591 14.908256312369899 20.065711346705136
Cd 18.607290229267775 17.95002921273664 19.52556913173264
Cd 13.402845307927802 17.299992069246272 21.32121963855731
Cd 16.060341158597904 13.043589556435995 20.49249694666404
Cd 12.839509691450239 12.484494168631013 20.910369160680126
Cd 14.547141952914929 14.724503313537088 22.388661681630527
Cd 16.320555296807036 17.1049865565237 21.13014738946081
Cd 11.572570559993956 15.021794183861735 21.777682207961725
