51
Energy = -22.32360712 eV
Cd 10.482408848840551 11.394651652673927 6.06911542058823
Cd 12.76748310622986 13.183493592957634 5.6773855603326275
Cd 10.068455079692152 14.255023201608678 6.849793999018158
Cd 13.272461600904844 10.207306806907617 6.285855676822283
Cd 14.61966821365221 12.605870056816288 7.9862190818795975
Cd 7.759035457858939 11.547641572636866 7.36481352601628
Cd 12.907307983646646 15.352684555688406 7.636850770700208
Cd 15.839661113516785 9.821079989800928 8.165535961102423
Cd 10.140498088088547 15.888850099126545 9.446589889062412
Cd 9.924676619201371 9.589250540404965 8.292793581524343
Cd 14.387584449583004 7.461686349113091 7.004675842929777
Cd 7.699502864808962 14.432481478047638 8.5946060280652
Cd 12.9451276495111 10.063969835162226 9.452752040115545
Cd 5.757395959002349 12.498300963184393 9.749007288822158
Cd 11.68866642361137 12.817292305557645 9.191847771651517
Cd 7.024569264419442 9.56081320532688 9.51263931697238
Cd 11.676837374315198 7.260968364048517 8.515743362687646
Cd 15.972046199760106 9.751017797353182 11.163469368414457
Cd 9.004829677252012 12.167159250284424 10.157768232779475
Cd 13.129369803102252 15.495979330512732 10.542888899542978
Cd 9.126720256660676 7.408028331981626 10.33414573686516
Cd 14.238712714681025 7.248055598894538 10.113265976272073
Cd 10.80484875975788 17.57531869371 11.727162748663389
Cd 13.180314946761108 12.157316691301217 11.672869168257526
Cd 11.708170261172844 6.418539511910389 11.51076841741027
Cd 10.602512435891283 9.997666230564196 11.324342696763889
Cd 15.038029235787086 14.678085834852101 12.589366651170156
Cd 13.15778749697949 9.136217859805813 12.485135771533235
Cd 7.287391392289281 8.866055088816898 12.281854958657833
Cd 10.047033258470584 7.787135065138455 13.43977659829025
Cd 12.468130273042245 15.855733477383238 13.596626125985281
Cd 16.04732896018759 12.734279790456352 10.534795790778155
Cd 13.97861777015675 6.007960448514664 13.356539018542412
Cd 5.591926950186985 12.248609518838405 12.62747025994055
Cd 16.507075908824763 6.904375526967547 12.01459483299723
Cd 7.470158041492452 14.817276226044411 11.602971818411348
Cd 8.616841665622534 11.492804802159984 12.950817048292402
Cd 13.202511036534027 7.312747618337534 15.848007957177998
Cd 10.713843641727145 13.771857389827948 12.034444319653511
Cd 15.696031623837548 11.654638045224242 13.518470674630105
Cd 8.051217624370212 9.178894394189781 15.132515674780356
Cd 11.412977407627451 11.427917898292145 13.987298088183724
Cd 13.547028474618822 13.36049773603751 14.877533003459886
Cd 6.190715746142196 11.481524726445723 15.479915173510102
Cd 10.971157636290656 9.210197674561238 15.935560012875502
Cd 7.6626929218208275 13.894754213738132 14.520519413861877
Cd 9.354800274807817 16.14790448524312 13.788464930200002
Cd 15.658949622411534 8.576108404861072 14.3238928475972
Cd 9.176237627380612 11.768076022115592 16.396330786066482
Cd 10.72877878887806 14.13553877192372 15.682224648248798
Cd 13.789741872358702 10.486233378416568 15.747837635662908
