54
Energy = -23.72744538 eV
Cd 15.544904711339095 17.909433621591983 11.141211041740323
Cd 15.903119361433125 15.335767100262284 9.293057235852148
Cd 18.976722531124558 18.851387935591116 11.335560837648332
Cd 18.147117577575923 17.182416773853657 9.004586652157206
Cd 12.289621961599973 14.554076460943415 12.187438335030745
Cd 13.38160509614464 13.541746723560086 9.577717754021839
Cd 13.13915067008617 16.47919660891109 9.994188303656404
Cd 16.016311541964114 12.293393160125035 9.925710767060266
Cd 17.643407279923213 16.814483810771463 13.258120792154573
Cd 16.66155398134672 20.39696217249353 12.23593314637005
Cd 12.349920647519893 17.55786122402429 12.787916242389828
Cd 18.814745016106762 19.706730360949 14.467681783076277
Cd 14.81640214965038 13.894851203456625 15.50285753973622
Cd 18.143249135823176 13.861992187160002 11.144539884693145
Cd 20.182211437119122 15.98850672051685 10.969157109162339
Cd 14.059184597444517 10.225652705664848 14.545871599679044
Cd 14.079083872897659 19.665951975083154 13.641897102046151
Cd 14.166004804739918 12.069458269977195 12.277187006136652
Cd 16.260981545760984 21.12769380457859 15.038864332136862
Cd 15.088583476409925 16.85626539884957 14.78847160018398
Cd 19.27048876916179 14.390707202087576 13.944286678398472
Cd 15.391037478757584 14.96177802801491 12.47360528805907
Cd 20.142593592427453 17.204974364432488 15.026939081951358
Cd 11.379022037538489 15.599667234458176 14.84623925840023
Cd 12.131728834267504 12.662137829634503 14.551986529971469
Cd 12.59899770520372 17.88634568493232 16.254204610866484
Cd 16.88111400052968 12.53314010328546 13.795283306344835
Cd 17.343774894192272 15.297777083537378 16.26401410173313
Cd 18.92152428446128 17.705904853668784 17.726509108195692
Cd 14.036324611856598 20.4822372779908 16.797729600695657
Cd 14.167106204336113 17.121577571885688 20.443063997417266
Cd 15.782880570233067 17.827831613621637 17.428904821779682
Cd 20.44563878295045 14.792572572154938 16.67509688188436
Cd 13.156418151886422 11.351719929852312 17.086037517397042
Cd 11.29071783625435 13.849820290151314 17.28640833566946
Cd 18.92688725606552 12.059068483945472 15.943992823310062
Cd 13.975523866944366 15.421533662808688 17.92403790940908
Cd 16.30613118621435 10.751835252663598 16.39212437520649
Cd 15.629705670089972 12.897219718446221 18.35236446276197
Cd 17.345093751028326 20.58700979551199 17.61318305629655
Cd 20.543277389090235 15.536034584484412 19.470994477212415
Cd 18.56896153430815 13.282318000830744 18.56691724359407
Cd 12.394302993895858 19.207952580402225 18.954647148938047
Cd 16.836433791050478 15.77389659402642 19.327733578134218
Cd 12.626575114252772 12.39465373004883 19.69590665817338
Cd 19.115334525352324 17.06513295325706 21.47715574026874
Cd 11.19388204943116 16.51906614941652 18.72482612445797
Cd 18.246562714685957 19.50776028188266 20.124922223811723
Cd 15.043432504246411 13.578319648218471 21.280658728877228
Cd 12.248418359445132 14.920389141361355 21.072797467798214
Cd 16.7171481419095 15.412712801050587 22.797626816152032
Cd 15.220634688153355 19.850499420623414 19.73914309081675
Cd 18.881475814316488 13.83353519138357 21.52216214688836
Cd 16.37693109327834 18.219003745389315 22.100489338020175
