54
Energy = -24.05039093 eV
Cd 12.167987954726001 17.757347223401037 12.223136190777414
Cd 18.325906780127102 16.99798694888058 10.974169912695439
Cd 19.463492359197353 14.28319122031237 11.094666242993036
Cd 13.99754815496908 19.87623380416367 12.967232723098027
Cd 15.324397817177248 17.401344071308014 11.658747377682573
Cd 17.157389956788634 11.587645337600687 11.299382563652916
Cd 16.39818902247652 14.519082434262145 11.423780813625545
Cd 20.507512179309153 15.786714369729252 13.506720785747536
Cd 14.317883874443785 12.02843871068975 11.905260737130781
Cd 16.30985304830396 20.52412821633356 14.589286408605268
Cd 9.658111737093016 17.325210048992854 13.858112841975698
Cd 10.3473026664212 15.26106633780569 11.87799151526779
Cd 20.852434675935832 12.754653724736134 13.793888610745352
Cd 20.116161649068502 11.421096398503193 11.164683011305279
Cd 13.392781235283014 14.977113019837256 11.522684146246123
Cd 11.715855960716961 12.75981614630858 13.046603690164085
Cd 11.951477508882341 18.470534320307703 15.420105472782854
Cd 17.51257856915422 16.293381295897237 14.037022852730658
Cd 9.239027150190056 13.94129311763627 14.274508910266475
Cd 18.3150762677018 19.037832964692967 13.095601915931399
Cd 14.833558033694496 17.322309201381024 14.699798074071362
Cd 16.110610575779422 10.496636879761967 13.958401789270159
Cd 17.88329487810801 13.297239206780384 13.957233778221479
Cd 20.137610589849952 17.496545226784953 15.973641633669416
Cd 6.813931113603509 17.731922789569705 14.570960068726674
Cd 20.3018951868403 14.425056779088361 16.242185382464616
Cd 12.52105154901049 15.531733337824335 14.383268903230787
Cd 19.14793362093429 20.258234367325723 15.758728047337863
Cd 13.680313981307329 12.533057125546726 18.144701142383795
Cd 15.085955673874262 14.038463035035118 14.204298138006479
Cd 19.052567665305386 10.273406002505709 13.653604491896523
Cd 6.586827328182897 14.814242058485448 15.287781770439324
Cd 13.596225766033765 11.435719967407856 15.142550229488995
Cd 17.17025460135269 14.662911230136984 16.59999050643985
Cd 19.39063109188601 11.322674268941983 16.38644481920947
Cd 16.978357451688698 17.74950536804856 16.58460995706048
Cd 14.32989613899879 19.77770247282086 16.695077614322052
Cd 16.321207536743902 11.736907492407818 16.6848781703198
Cd 19.158557874809937 16.26180509879303 18.540156002074127
Cd 13.138547777489125 17.553076004042897 18.300829426464137
Cd 19.19750514799857 13.05484151192685 18.713494780723707
Cd 14.234817223205779 15.186780316613476 16.756187006829386
Cd 16.947726805835284 21.3435106451196 17.453514114642388
Cd 11.539758692169658 13.301417963301748 16.185741241756016
Cd 18.819573832506755 19.265079526275066 18.651328914451877
Cd 11.737619586618521 14.92700598197653 18.88732896789151
Cd 10.397095851068734 16.098037085581247 16.569853434572078
Cd 16.248608558559187 13.03696786928199 19.45263922599299
Cd 13.856585380978329 14.518803903769308 20.812779936404187
Cd 18.287623866285152 14.716092048423357 20.982907616151152
Cd 15.885573813779992 16.10969307875893 18.97964393997071
Cd 15.73689242692798 19.093796583878873 19.234845204208384
Cd 17.630428282573458 17.76589074473705 21.102334038132625
Cd 15.967534979557014 15.656366567791343 22.512216361275016
