5
Energy = -0.38017832 eV
Cd 14.950586866912058 13.46381636070326 11.623719262858229
Cd 11.893755556466337 13.428974962332298 13.159978652083032
Cd 12.088695177701402 8.43718700361694 8.748629288220164
Cd 9.484571173545387 9.748705170706591 10.543338926155096
Cd 8.882176553794503 12.028256097309681 12.889350490301275
