54
Energy = -24.26872268 eV
Cd 13.484721694859742 15.054493028693036 10.995161159382462
Cd 15.250665731763325 8.73650829971987 13.22510529576316
Cd 11.887117992212913 20.016293499589885 11.380706247388781
Cd 14.094462991700867 18.085861883635484 11.204551386362128
Cd 16.461943778063258 16.476995706697302 10.900743447914083
Cd 15.759049046876996 10.479883993546727 11.052739488086754
Cd 16.062761938279873 13.497525625994621 11.197302521740145
Cd 13.401971795930399 12.205324528480157 12.00362926409678
Cd 11.2350666932824 16.8869279965263 11.71199877572469
Cd 18.714015933060367 14.78572889639776 11.71776252245388
Cd 9.819306887758408 19.088633828438006 13.288520333680669
Cd 12.034023248873067 20.735709732988955 14.347253929814656
Cd 20.140960480391275 12.20602033796548 14.340008957318354
Cd 15.074778536221151 15.168130972645596 13.748511729960644
Cd 18.94892299218695 17.514216779859233 13.180187179328703
Cd 18.318188545547585 11.725615461734979 12.125149833328738
Cd 14.53930531209345 20.887158870351456 12.643578490221815
Cd 16.04746884266051 17.972350652007155 13.587449119717387
Cd 17.723544168666997 14.282511401870128 14.727417996761258
Cd 11.867959332520433 14.334414033807557 13.640555672398039
Cd 11.86686943349712 18.675946730079428 16.588519963978094
Cd 14.425504411490897 9.580108564740355 15.827684391940132
Cd 9.274528752771623 16.434395614860097 14.108020122175082
Cd 17.235095830756794 20.750728268630677 13.753183164209847
Cd 20.810943814093815 15.104353780537101 13.726980509004278
Cd 14.5719787448702 19.70882050659237 15.612188016441317
Cd 15.50504344341862 12.245280140274456 14.309220100955391
Cd 13.012485227421097 17.41665480988824 14.107386907156892
Cd 17.624046163260807 16.91308335426801 16.058289146140265
Cd 11.33902874106084 15.687145134369059 16.31721144035815
Cd 19.588052686745087 19.857088850807067 15.19920317080314
Cd 20.763181226664468 17.2993689671078 15.824000238358243
Cd 8.709077843312468 13.893283673630833 15.242028487258828
Cd 14.648656899889229 16.594145729856677 16.58378797992052
Cd 20.528194887238268 14.402483743825751 16.605148587748104
Cd 18.629939571246535 12.038804749207634 17.025205003912642
Cd 17.70618625667761 10.262162108231257 14.791309380339115
Cd 19.524613463390438 16.54234700410563 18.492116846895104
Cd 10.452774397068026 12.314694524179354 16.818027803908716
Cd 15.891051723443521 11.308149075208089 17.659305568766896
Cd 17.154600842489923 19.751499308038028 17.032881860661405
Cd 12.345968120091866 11.420146881348959 14.631169427934676
Cd 14.333135040731628 18.98206382565024 18.57640709537308
Cd 13.843864986845524 13.77532628985014 16.270614102889986
Cd 16.56958848828616 14.435984443817711 17.50331072880405
Cd 19.69433227139888 13.585934285164948 19.342724908855157
Cd 12.059718780776558 14.053719534308845 18.827771914003673
Cd 12.211845339410198 16.98589219244945 19.033292393528384
Cd 17.197692993733586 12.328174976390084 20.27403954688212
Cd 16.895497394306116 17.827574586796974 19.33985571969614
Cd 17.645445784504943 15.307926585965037 20.652875758477812
Cd 14.335929778300518 12.567912578340497 20.003115737458202
Cd 12.870598660500058 11.08977922055317 17.858344135858324
Cd 14.717946651642242 15.568369024260637 19.83610108214773
