55
Energy = -24.40168469 eV
Cd 15.4471015281544 12.810670879935955 11.582754300397895
Cd 16.544897058633367 15.616006689137365 10.440025645740338
Cd 11.16412472442154 15.72818660575139 12.069592765123963
Cd 12.649059096283077 13.321848673541853 10.927258008077748
Cd 18.3736071208586 13.274678690645638 10.941377517724368
Cd 13.639490492214147 16.012953246167957 10.404458904875797
Cd 15.259511281960746 18.418010382174245 9.497703610038844
Cd 19.53192933193366 16.1424195824201 10.653682311454338
Cd 15.301223641709722 16.911048392418856 12.986056379241688
Cd 20.3103540709953 14.554841188469405 12.93370727631748
Cd 13.27589357765141 11.249077570112336 13.16761608685613
Cd 13.013603672719137 18.838121563136276 11.43682353558612
Cd 10.746061557076613 15.338949297976352 14.963146521674883
Cd 13.761573541126378 14.529777735605789 13.79795650581635
Cd 15.68998752703385 20.20399073304634 12.04381274382769
Cd 19.0868579365237 11.124499288965914 12.835640156873232
Cd 17.854070233040336 18.516037785228193 10.979595058093068
Cd 13.357336490473712 20.21276897010166 14.108741303034996
Cd 10.66197228521316 18.47475123235434 12.974840540053755
Cd 10.614157955749393 12.84619229065867 13.037629515721475
Cd 15.222774999359997 13.07408295912635 16.024148711882226
Cd 11.938580858887619 12.527417321854852 15.60306774664496
Cd 21.255495506114933 12.710785273552332 14.95870894821392
Cd 16.938810979629224 14.351876478290432 13.676167505176679
Cd 18.591551273603987 17.15224650350012 13.554706586475252
Cd 16.64399428235093 19.054897352861285 14.631773151663761
Cd 16.168585410292913 10.65120072543863 13.86133570588365
Cd 18.146492925942827 12.139762240971901 15.53494000656988
Cd 13.154858822367569 17.30028184216099 15.079447860182297
Cd 19.174686650779464 15.11126950619778 15.622867791035047
Cd 21.29690852768759 9.767825733214831 14.555513015110758
Cd 14.986978547495115 20.334751171547456 16.680608752707805
Cd 15.885942991298867 16.06329134705149 15.95848747140387
Cd 13.967009715918422 10.161722483110871 15.952475339123518
Cd 12.852368745876346 14.84569545201837 17.240813618564268
Cd 19.313116831926912 8.827239353844648 16.469743899068185
Cd 16.62670462029731 9.632937351684454 17.013354443247035
Cd 15.46628347607901 14.465709935677173 18.817037579551798
Cd 9.546033631922192 18.722611518804115 15.556176760774418
Cd 12.208148302340543 11.281779721041046 18.21286560792039
Cd 17.54191251339077 18.395326513609106 17.323686500070288
Cd 14.174607311340557 17.549493516151152 17.916164474535776
Cd 18.177976996407796 15.574964629933879 18.25586288935449
Cd 20.68220142208099 11.473555773217422 17.63443110305423
Cd 11.969557500390819 19.829915835910516 16.870071835908725
Cd 10.627550107593857 16.8775507159407 17.560909057830322
Cd 16.441389842819056 17.22361291986997 19.989147880831286
Cd 15.204046748613843 11.335631897076624 18.958948542315312
Cd 13.00284958312835 13.278031604570312 20.11421339693999
Cd 16.289739071302762 20.31108882634666 19.487912257882478
Cd 17.96010222467539 12.513355957162055 18.49151368976888
Cd 13.489262645751365 16.056518960170553 20.841656648977605
Cd 11.78609878621782 18.288526136212422 19.780660011413055
Cd 13.363972321837899 20.855589003411428 19.313226021974053
Cd 14.34635695985789 18.860386899972443 21.400700760766483
