52
Energy = -22.70404094 eV
Cd 11.653072851870075 9.701261723824356 6.3681839914077125
Cd 8.991422642185622 13.478229323337974 7.17572277075562
Cd 12.410515518239496 12.726444431800232 6.463971657728896
Cd 11.379084641108493 15.43118587605289 7.006239402597676
Cd 8.77605212615101 10.466257190923871 6.837494499653726
Cd 14.405830591184301 13.207218017532945 8.80740792915613
Cd 15.25072908440446 8.186070247469585 9.584600524276057
Cd 6.2110484744461285 11.92865133389205 7.585100960792725
Cd 12.612831979244268 7.423613550513662 8.214656712964157
Cd 14.395489814119474 10.552227935342005 7.170293035365461
Cd 10.789600812398618 11.83293748907748 8.944433620602219
Cd 6.965958624167563 9.429781255097755 9.18263064646159
Cd 10.371593328363675 14.585199674117435 10.017182293820174
Cd 8.991850775814461 17.21427425541712 7.896831171545711
Cd 12.582421989121796 12.754607293101468 11.245352357466725
Cd 13.090636130288296 16.05220083245901 9.303640447142087
Cd 7.191744041502124 15.065574520498894 9.127989509837155
Cd 16.562874541948638 10.862042946791899 9.216503683054288
Cd 8.238981995723899 7.475378189469866 11.169310145837965
Cd 8.151658852703475 12.118390819378078 10.319277497358764
Cd 13.910101633803453 5.694625132639586 10.640551326949815
Cd 16.478144461175454 13.127158680997194 11.139962632536797
Cd 12.892920827836422 10.084376449363551 9.830527788598605
Cd 4.944182465504059 13.070519676878336 9.97093790853352
Cd 10.925402209314447 6.2069824691335835 10.484925939153108
Cd 9.942105688073392 8.588993097419527 8.862198738003825
Cd 6.725175462810191 10.032563600123503 12.12781535752402
Cd 12.510823137197264 8.378773212962354 12.175122945011427
Cd 14.581877866215603 15.244735953181836 11.694666340290633
Cd 14.818441818683041 10.701135177181563 12.029110878377198
Cd 13.375642497934715 5.2778949558955786 13.531473519643436
Cd 10.14419950710668 10.084556526410761 11.502958792333086
Cd 6.328660713904838 13.003075421354763 12.600728312604101
Cd 11.658721083341188 16.392956441344104 12.026726735995817
Cd 15.431517396749799 7.596609551412833 12.763609884829908
Cd 8.304676609151636 15.365858956510477 12.01470219012956
Cd 17.82659737418255 9.397690752697512 11.889572204665049
Cd 12.770732878677624 14.29904534231489 13.986589667886436
Cd 10.501212235895308 6.456440783792938 13.44412683248507
Cd 9.95294087114127 12.797451921205015 12.743220618514995
Cd 8.693008257666861 8.6350870950302 13.926565841074082
Cd 15.427491788425634 12.888825120892049 14.04488108709252
Cd 12.062076632188518 10.928077633351698 13.699577637290808
Cd 7.91059133545739 11.359738805496246 14.7192240256562
Cd 12.570734701984442 7.828662031042264 15.196144445268253
Cd 10.177164539437873 15.521973989277766 14.467497055387978
Cd 14.830274081044651 9.878259290956896 14.904185239739384
Cd 7.4923901509784585 14.41592679077843 15.023648165903143
Cd 10.284661645081748 9.878748263800707 16.04037081439987
Cd 13.22354824081119 12.456472246520843 16.22493391131189
Cd 10.194842198814134 12.919060769564629 16.05449567072814
Cd 12.926549801786773 9.836985881731325 17.442933561620663
