55
Energy = -24.00001848 eV
Cd 17.555538794397506 15.732418632505926 9.224735828510275
Cd 20.308231524561293 15.546539957249975 10.090603901262554
Cd 16.491478096207306 14.024991110861428 11.40468205679333
Cd 15.521099439438984 16.976850952173482 10.988441232418777
Cd 19.179998807133074 14.027272416346023 12.588446792736901
Cd 20.891179043169263 16.67280534322651 12.661005432393614
Cd 18.65263079257395 18.10724168467248 11.114449672842696
Cd 12.840908127518784 11.744349564569394 11.158097177318124
Cd 15.449201832370697 11.47745153224591 12.419511041284293
Cd 11.68550765564303 16.03609177880237 14.459502307837218
Cd 14.221059709575286 14.927331015416824 13.061592359950913
Cd 16.482474780190987 19.35880012438753 12.665988666654286
Cd 17.307785592262405 16.376839578719594 13.55803992744503
Cd 13.62570831677812 17.96897717279024 13.055971879104689
Cd 20.182972457138096 12.437426151893415 14.815009692236563
Cd 15.045638109612494 21.627667972177584 13.859269635348987
Cd 11.460193347468396 13.494421212869435 12.985878600619854
Cd 20.6548400976804 15.432154324483509 15.29813075468582
Cd 12.154566333067894 20.521760743198236 13.501526143843641
Cd 19.414552989987023 18.497602505180804 14.52623380920718
Cd 14.28902258477277 12.556195791961759 15.009145292162236
Cd 17.11597758411774 13.982201580754758 15.255098844468485
Cd 12.394904600338958 17.927753806718602 16.527511212855558
Cd 17.482149402298205 11.005027204467837 14.37144076213472
Cd 15.581695407285546 18.334954135319798 15.527870682586693
Cd 17.680576152894183 20.761165151440167 15.164174340021994
Cd 13.516077402196233 20.648588229086283 16.339776972941646
Cd 19.444176097154365 13.87781661564287 17.48437214167797
Cd 16.122005722324833 11.70651728630197 17.186292547154494
Cd 14.471079463193092 15.537420697501693 16.078650671898018
Cd 21.372353276963214 17.888151881775926 16.900362148715654
Cd 19.021736292243524 10.81132377487873 16.912325559573347
Cd 11.416724866606916 13.154182306645813 15.866256883371484
Cd 17.968598938145032 16.6818301798572 16.59187723505251
Cd 16.879440308677932 19.490548454741205 18.074591503851863
Cd 11.03025692016605 15.40650383957344 17.648490354904713
Cd 13.427204017307147 13.241751446918853 18.028621232454928
Cd 12.775058364895859 19.45969694223 19.083294144677307
Cd 15.967931809614857 22.78875230602469 16.526961065706647
Cd 18.190651636261475 12.024136921673996 19.476226670783284
Cd 19.703817338484615 20.19301608004398 17.472923496182464
Cd 14.85680237012936 17.182237438854774 18.561273220470763
Cd 16.498265984065423 14.672314715277208 18.280084327717514
Cd 19.019578238678058 17.729216942864827 19.329600743029633
Cd 14.895070737883074 21.58742802991209 18.99355489095279
Cd 21.553321289608267 15.743327566975687 18.83864593565304
Cd 19.22146111761384 14.866208947922377 20.376341088066166
Cd 12.0034002134848 16.558639211341397 20.08425881628412
Cd 12.440721527200612 18.83208877615487 21.9851225584719
Cd 16.768345437924566 16.56804673159162 20.985891661098023
Cd 15.145471389526197 11.818930732015167 20.060107437960813
Cd 16.90640613126727 13.531750080798618 21.70117365726945
Cd 14.213532876363498 14.675653184894678 20.56867974888877
Cd 15.435963774931217 19.281645224129957 20.825225399489288
Cd 14.338648449188918 16.759977580520115 22.72065340956048
