51
Energy = -22.91120536 eV
Cd 9.89830341372578 10.351152297151042 17.816935504667825
Cd 15.230958330354094 8.992748418381636 7.9451997022276
Cd 10.799433614989482 16.084917029222925 12.753668556511778
Cd 11.450995513645745 7.970159284814499 12.14961599742704
Cd 15.134099357667516 9.089110794183139 15.032107794253871
Cd 15.843627984693994 14.32542838848232 15.111027084504432
Cd 7.744150863915979 16.209324500802037 11.86911979387166
Cd 16.180906386860453 17.003359666301773 13.646938792096
Cd 8.866385163554718 7.813611554577011 13.77670230113528
Cd 10.223494284507181 15.28708880107926 7.51666886538833
Cd 7.559671857219154 11.41835986016811 10.143305997477665
Cd 10.860880035329956 10.767995630862861 10.926295046301442
Cd 11.91922788503623 9.929731226977806 7.913060708759382
Cd 9.999277650798408 12.310843341703347 8.204367208190952
Cd 10.618751540674692 10.427257650486272 14.062897093271278
Cd 13.358785033701974 10.465003885908725 12.736090694572765
Cd 10.208691821683624 7.666109558757942 16.46697387306296
Cd 12.650292538478055 7.267701159754183 14.75830788803867
Cd 13.626354148872048 7.965579336048282 10.112196304874434
Cd 9.515789799812957 13.027415529043836 12.410206137317562
Cd 16.32014680623284 11.55495445652549 13.590209990140767
Cd 12.182023062478631 13.055601261575509 13.786234230938907
Cd 10.346410814961889 15.066006533694027 15.518070180417846
Cd 12.699292898858136 13.552181309812251 7.332342871201108
Cd 6.270725543930296 13.46696231362283 12.021787279202464
Cd 14.912077880682988 7.342621384084717 12.695693203800365
Cd 12.527773871765433 9.774781726087344 16.428124000634515
Cd 7.641486151866706 10.722125956477825 13.100310381829871
Cd 17.350813554962762 12.702090118409728 11.018359200236544
Cd 8.568039456852977 8.678455455097966 11.01753472742051
Cd 8.83804750505675 9.575382207665799 8.110039243868789
Cd 13.623697762826497 11.490192859494577 9.948863569027651
Cd 10.038829644490246 16.872193926201668 10.05060350031286
Cd 11.753246838635194 13.788600099504526 10.644036442078452
Cd 7.465435967232867 14.826832382351107 14.416153667344052
Cd 14.523046887619376 13.538130733089094 12.096237169509234
Cd 16.543770828429157 11.581042353979361 8.43229566699091
Cd 8.706800740168685 12.388626745015076 15.57680604658832
Cd 11.532850878386373 12.654968504282298 16.784742778588647
Cd 13.32258897193445 15.782232791811438 14.5633358035516
Cd 18.14517923738745 14.597349647402718 13.246452374781228
Cd 16.56101736386363 15.828206321915452 10.903065584176723
Cd 14.323799332760181 11.990501049553178 15.827974409768906
Cd 8.230213936033023 14.285022381280475 9.611507391420828
Cd 15.055355589011263 14.15755151168102 8.994565397000628
Cd 16.12617520634216 9.741518043739273 11.103320472311946
Cd 12.746912729908844 16.21151056541866 8.86660303325457
Cd 13.624755980716893 16.470559585400178 11.647868468861345
Cd 14.156808384563716 11.234488708278448 6.409530318826155
Cd 10.755412170160664 7.507202060291845 9.250466859208107
Cd 7.742544290491017 9.514566605683303 15.980537906888202
