52
Energy = -23.61150508 eV
Cd 10.109674526406128 7.920145120134821 9.239252448617414
Cd 11.73494691434442 13.659037238459577 16.92802429004593
Cd 10.049704434107298 10.812332357615904 16.92994124497145
Cd 15.232934822920395 9.652438771159032 10.636421418637829
Cd 11.680719751412957 8.461399253616964 16.696191014105207
Cd 13.27070244948791 7.87809109020888 9.239278251662869
Cd 14.579661090699434 13.357256449731777 16.690929308120523
Cd 11.734569681960306 11.721321448996143 8.638625120303077
Cd 13.276620287828452 10.80069609825101 4.926541770979305
Cd 16.755630117832773 11.645915049195935 12.204035431054798
Cd 15.833883827238052 12.224705629921282 9.23602869870629
Cd 14.051355597556507 13.022065754864169 6.8163912147681405
Cd 8.884725101710192 13.424764393860489 16.670413515448722
Cd 15.099729436419922 13.637894131941078 13.768564417952895
Cd 6.684832850334301 11.757862859978228 12.186058609859597
Cd 11.670958687299052 6.376526343759449 11.1746712267779
Cd 13.257178830441514 10.836254142756298 13.620689120179035
Cd 11.717987987119113 9.897084138462336 11.113747145713175
Cd 8.179895882011428 9.736794975194066 10.624599784405424
Cd 10.163901378992794 10.858737704484055 13.60085339511924
Cd 14.278581109328686 8.18206199271292 15.314958725417002
Cd 13.36891482263474 10.767658774436743 16.951616349501784
Cd 7.103097549001792 9.138938229408804 13.39498326641536
Cd 11.7645428729228 14.70919600736805 7.748096130853701
Cd 14.287035073623663 14.978388236207564 9.226056306833062
Cd 11.70168494809911 9.059052423461944 6.820908745575644
Cd 8.3768516087524 13.716788292650627 13.750951658932822
Cd 10.144182543779817 12.66135348902431 11.096212862913106
Cd 16.06757260716103 11.208353979810108 15.311066604173122
Cd 13.515957688296723 15.73188662067854 15.29268205666334
Cd 10.180148197005929 10.841596166514552 4.919232108403828
Cd 14.306579853558151 10.193540854022352 7.761230771404735
Cd 7.6255903331654 12.316274504681724 9.215040486314379
Cd 11.775084290827106 17.037664053096538 13.383459346672723
Cd 9.127395912341443 10.257841358563553 7.754531478371855
Cd 11.768567721089587 15.800149573485266 10.615266207790352
Cd 9.135889703999762 7.4220675228795985 12.202446282561995
Cd 11.730140868803222 13.527473811645102 13.599110541086043
Cd 14.256026388264095 16.079269559417522 12.192588084293547
Cd 16.389713197999964 14.358481562217598 11.162950703630544
Cd 9.240187409566504 15.036873922801266 9.213242664294878
Cd 9.442682828607534 13.077383374576188 6.8056436181086095
Cd 9.99991488480929 15.782015758071005 15.28865081636088
Cd 9.085522996303784 8.244675213435837 15.303827948556656
Cd 11.682746157018318 7.861333292529541 13.775452682347794
Cd 7.356977317906077 11.305105539953722 15.292906729314582
Cd 16.283430536600637 9.036530887179563 13.414890318008545
Cd 14.22504652010687 7.359763598940038 12.211286222240899
Cd 7.113730868910483 14.458891563432593 11.137743970319748
Cd 11.7585095237104 13.502178968131608 4.916162034367629
Cd 9.27744179007072 16.137566500043903 12.177642202171358
Cd 13.321951031681754 12.631968527624586 11.111447380883154
