50
Energy = -21.4047151 eV
Cd 11.460206118030085 11.988240345927338 5.2863040162237676
Cd 14.4257311652603 8.995892887690134 7.868269665831789
Cd 9.11171926914889 10.655121401398944 6.687644812406808
Cd 9.499916660248457 13.69319942257805 6.920521444315512
Cd 11.823277252430476 9.17641837742132 6.365933545230221
Cd 12.509126256849889 14.254479423586373 7.070421721440003
Cd 14.089930057452019 11.742867646378352 6.668714343572426
Cd 6.978881342275451 12.251501940194622 8.064683162487295
Cd 7.25548460819234 9.309190538298267 8.62987742430779
Cd 12.323460463446242 6.9462705043356925 8.510589471201243
Cd 9.568743831262692 7.7705724005373575 7.9581915166629855
Cd 11.426070851050767 11.376806790966844 8.677065004403769
Cd 7.962578385439491 15.048706027305553 9.159644040340915
Cd 10.769469826626612 15.74059232186352 8.884304669167841
Cd 15.765910817891312 7.54473221365243 10.337648599284828
Cd 13.477397508183069 16.01072229739704 10.194618900355739
Cd 16.874295956028742 10.146840442936814 9.266607368646286
Cd 15.115586707443494 14.234909706882602 8.47159494644747
Cd 10.017513966521902 9.585135964777985 10.620990265410471
Cd 9.160876780250241 12.37411807716918 10.26832650332116
Cd 12.99475438800203 9.23622346405333 10.594836708937454
Cd 12.022740214954595 13.313427254164443 10.939119250364916
Cd 14.271828340029016 11.724142340497368 9.691191596757587
Cd 5.992295307667359 13.386588144708192 10.660231608802485
Cd 7.4935284437683825 7.630905152191048 11.11850130923144
Cd 15.461019590730018 13.88414011753342 11.50204777248808
Cd 11.8622169644212 10.827919889286083 12.708906796880312
Cd 6.591968221550588 10.54628549665322 11.193969701620285
Cd 14.773873306954346 8.490994051720273 13.32095477777978
Cd 10.288565443772155 6.545947198327263 10.901521457768244
Cd 15.934021817332436 5.617349952382191 12.81715229852414
Cd 13.240338183554972 6.2234432757436675 11.324730638299457
Cd 8.098088412203717 15.12741958935731 12.186796871070218
Cd 8.533589856550211 10.122605903372827 13.406084092313082
Cd 13.33432806960155 15.086551980635774 13.193847560452474
Cd 14.439832464617677 12.416278930123868 13.912356981383615
Cd 10.814120260939891 16.323339011702444 11.763577678546307
Cd 16.077203802900726 10.81442952740157 12.09223729125192
Cd 5.7711771937856575 10.123283685705257 15.330595775824309
Cd 9.945007568405405 12.964736489538986 13.063145770873614
Cd 10.436757372945884 9.355946766872663 15.561936452308773
Cd 6.850773826315993 12.641717563481732 13.568820394659852
Cd 11.898381252885248 7.6997707145754175 13.521953248838594
Cd 8.962468032584058 7.207606536653203 13.653507943558244
Cd 7.921925850496577 14.875550682210399 15.616845236423694
Cd 10.765103384291844 15.39582632407987 14.621924534085817
Cd 13.29320661433437 10.101480357561874 15.356912035044717
Cd 9.152546084157423 12.03342766986394 15.973101193356019
Cd 11.998077220268055 12.800400350404791 15.512995130208122
Cd 10.484767611296567 7.956625773251279 18.298929396639696
