55
Energy = -24.16178741 eV
Cd 17.84635883541132 16.490685612712625 10.571400257716485
Cd 15.020879948184515 16.66814774491199 11.548286934395524
Cd 13.277742171221888 14.19776649959156 12.049747950545408
Cd 10.675256019916754 13.489995025135737 10.719726131993427
Cd 12.578990521921986 16.91907865248315 13.187176672136653
Cd 14.644363301171735 19.027534013361937 13.852686733707122
Cd 18.83502797053016 14.257208111356402 12.627599157895721
Cd 15.926565132830746 14.023560556811944 13.447152697537959
Cd 20.59403624443138 16.546591103410066 11.74597916985555
Cd 17.085663928953213 19.217603424184727 11.83607696669039
Cd 19.859777246012282 19.213370405684472 12.971273193020417
Cd 22.886288546972853 17.792031249508586 13.248106370375805
Cd 22.893546083345523 15.39025539665561 14.992083328256191
Cd 14.759180462680938 16.25342446465781 15.460518176133327
Cd 10.533912613014367 12.451124775289722 13.596975802001324
Cd 13.263464289986178 11.220806298571032 12.997387104420236
Cd 14.924669428393942 11.037465202206134 15.488089766494872
Cd 17.7722984176033 20.638287937983364 14.53719238985319
Cd 15.034463187984864 21.6330995350549 15.321166201113252
Cd 11.732794353085442 17.954155498312055 15.85445613256914
Cd 17.14807265619846 16.79978391166761 13.804061572500999
Cd 20.49767150512408 13.56625482727226 14.945839929698854
Cd 11.842203671108216 10.638386308071212 15.742165870532027
Cd 10.719385219513615 15.290922987018009 14.907451937773834
Cd 17.86078424105891 15.03021362878231 16.366089502760946
Cd 13.297586488081912 13.735622034291598 15.169412216956596
Cd 19.954846840027713 16.598263625847498 14.864956669780423
Cd 15.451039999792089 13.645545200289376 17.264717170578823
Cd 19.624725288346482 20.78476171525679 17.080052760091043
Cd 12.287260720614274 20.787055626459036 15.989156745644282
Cd 21.5745717568167 19.367922028338626 15.430165476917349
Cd 9.695916843931533 12.807769143288192 16.435479928132608
Cd 14.855307377490528 18.80057173025071 16.95252527009354
Cd 17.679931103777967 18.109735460817443 16.395778429055028
Cd 19.684526329923855 12.040224416195537 17.36038390759872
Cd 17.6561807370678 12.237154092377828 15.015470260673917
Cd 12.214933409937013 19.48646114651449 18.691954113887462
Cd 16.795946790344438 21.39288575334012 17.708830503861513
Cd 20.689886201147342 14.847108002840525 17.802026041008997
Cd 16.99516025324031 10.951014145940944 17.802343350517518
Cd 18.934634222163165 16.33801505884692 19.92242902827203
Cd 12.30403910879042 12.785795981459925 17.98735853782269
Cd 13.896437616456929 22.170863106960713 18.162605494780426
Cd 15.630017452927 12.126019034676533 20.308027278259633
Cd 14.04211134493587 10.46303766464065 18.465164912526774
Cd 12.628732241884732 15.808402016842194 17.64983279952062
Cd 16.043531695522983 16.383277985288558 18.368933478732398
Cd 20.527781560663108 17.78140138127381 17.753922216821895
Cd 17.981075748087296 19.07944633813563 19.239753965275757
Cd 15.099786282820805 19.935732136994247 19.8500736196631
Cd 13.619884040347742 17.283324098657047 20.082139385292326
Cd 18.027855343301937 13.620055538689025 19.275495986008085
Cd 13.703671380359962 14.342133541213224 20.112153171288956
Cd 16.384465993426677 17.677091701314485 21.40362332007623
Cd 16.40787920352277 14.768676494670565 21.539663383291288
