52
Energy = -23.56670711 eV
Cd 10.70367792701746 12.638655928060238 12.29372099695726
Cd 7.97322383920925 9.637873945931334 13.35695348628263
Cd 15.091683925500963 10.175288191946406 14.471855382845497
Cd 14.396117736891739 11.046504246232193 17.322857377964453
Cd 9.004398509056225 7.776862502195103 8.509097684507378
Cd 12.955119177904288 8.693545665913408 16.39223167744435
Cd 16.621861456828064 12.00674820424374 12.675047093041469
Cd 13.866529227974333 15.151250339246227 14.898184080650822
Cd 11.332350369022734 9.758834404948034 13.480180866481042
Cd 16.524171835155766 14.89278046194572 13.578912141552658
Cd 10.189787355026514 9.944270598485726 10.739564659650442
Cd 11.392851408273573 11.195738705349145 16.985218396474206
Cd 9.177052983533633 11.84468175551879 14.970205912295503
Cd 6.8320285373510865 14.462340394441632 7.355352007732116
Cd 9.831359569031163 14.904318684369585 8.07167135870221
Cd 10.948953721189294 14.220800999906402 16.027503578851015
Cd 16.84602879196007 14.355452027900474 10.702575194296719
Cd 12.579868285159634 15.414634180098709 7.32883259391302
Cd 6.389809491419182 14.544430237425948 10.260149697604751
Cd 11.468044456023362 6.461520014227397 15.223334006284288
Cd 6.891793902067256 10.032141914642413 10.553547088985876
Cd 13.199430031259602 10.258963555264327 11.198235091003482
Cd 8.69991369731547 14.759261270892337 14.201837338191682
Cd 13.763126603611557 13.187175368644318 11.708496736916455
Cd 11.450421892312619 15.592440838450287 13.224998551318032
Cd 8.933242593403847 6.819435157588631 13.921594052033043
Cd 8.147323883832643 7.391641520679306 11.228120407237444
Cd 7.565923788946172 10.264628620694072 7.675444583579156
Cd 9.133838537489648 15.153873667649792 11.221847835462333
Cd 12.080958635962071 8.052578024773966 8.961481878908037
Cd 15.721135121655056 11.625640338512918 9.785713442292893
Cd 9.682228574038648 8.90650173414279 15.989697766125591
Cd 13.54173272552445 10.436392735303965 7.396936047650495
Cd 14.101786404624441 6.91985134202663 10.866582679630145
Cd 8.857155408993904 12.548586272094434 6.375998996957721
Cd 11.96845790288163 15.618987258193517 10.26934201239581
Cd 15.273416986468858 8.776118960662112 8.987471501483252
Cd 14.372524769202656 16.29487812069987 12.100629870680029
Cd 12.786053052234813 12.241624392212843 14.33347579490835
Cd 11.222033219299894 6.970571274516811 11.80655063947898
Cd 14.816244296047469 15.76649761098412 9.197553320905794
Cd 14.572651851875568 13.230134149932798 7.62837097643986
Cd 11.78173392629834 12.81540573473274 6.174932109012754
Cd 11.945573427148512 12.474586548810391 9.468032068591109
Cd 15.811414280691096 12.923449483401559 15.636874830758627
Cd 13.722785942727027 7.695149218152308 13.613371384712895
Cd 8.946241986363457 12.41121558576527 9.661567423320358
Cd 5.414117388261383 12.076767601286603 8.89267633529085
Cd 13.374008263933995 13.8246873481789 17.69528708570713
Cd 7.56267261863974 12.533252761923944 12.405746325652904
Cd 16.07902108182019 9.12719211982861 11.815860591866516
Cd 10.559685475686562 10.247404855119276 7.46184391311747
