50
Energy = -21.79881945 eV
Cd 15.069517660203436 14.042359813712924 7.963635599482879
Cd 12.168229919399673 13.679984995856563 8.986581574798546
Cd 13.840442038725982 11.184364903642813 8.594305252578115
Cd 17.612686959225957 12.81737603619128 9.01959074204797
Cd 14.110974018723933 15.830665514534457 10.398345631435829
Cd 11.16971762050728 15.637257780732876 11.034513732614261
Cd 17.027653243173795 15.814544988721 9.472553173670686
Cd 16.507120922152566 10.197686989143204 9.776035811049956
Cd 9.537287831194249 13.126586731238518 10.541254475727856
Cd 11.236031724604857 10.592287960393817 9.699118499415134
Cd 19.73925821708677 14.261718883465006 10.446106452756133
Cd 14.044340395794832 9.932638202287382 11.483788311205403
Cd 15.019363163768977 12.98650135723515 10.966196047341478
Cd 12.252139476797252 12.550996201422478 12.04176599717936
Cd 18.865259765450155 17.00992142283244 11.490893070979554
Cd 15.966120619797104 17.267032401691793 12.42057439926012
Cd 18.24911662695193 11.533975532948903 11.80219921841377
Cd 8.78257291152311 10.142351218797033 11.204114180029087
Cd 12.973614373038089 17.323649655705356 12.78068748911798
Cd 8.627637092439462 15.322537209335184 12.53765189513658
Cd 7.367736592759382 12.410101701089822 12.448969141380624
Cd 20.440162521915408 13.340917902365199 13.214285455857288
Cd 11.35083096841434 9.495399043933167 12.638119983660753
Cd 15.588869393332917 11.661997459271921 13.570134230285149
Cd 17.154456356329362 14.404683035168896 12.7299487383406
Cd 18.30090180182367 12.248614769700126 14.897391192370607
Cd 13.99686458797012 9.281136344976325 14.447672573413683
Cd 6.586649976340521 11.374193817280755 15.116332269992613
Cd 14.314918306228718 14.556934467813957 13.624164181106988
Cd 6.96179461789294 14.276440551699498 14.725505077240614
Cd 11.37948926961403 14.728047151727816 14.00780148037011
Cd 8.405956025674374 9.17178789586773 13.984873267059097
Cd 10.11932046161256 17.86972169121731 13.280624624180339
Cd 14.710409967418116 18.0099370419513 15.092276606766003
Cd 10.10055452555598 12.0591149092295 14.19595693422828
Cd 12.936445407924897 12.207010323261265 15.032998839864158
Cd 17.09087294000132 16.323240828439896 15.35790462657625
Cd 19.767725256843434 16.070274091890393 14.158410751281695
Cd 11.78804430444702 17.54414255619312 15.832122833033907
Cd 16.020028612182067 10.826773552061871 16.406225051493614
Cd 13.59809146363193 9.618735534766438 17.455273395132117
Cd 14.017090258637689 15.485344892633584 16.4838370083196
Cd 11.239894519092099 9.314208213574263 15.595534121496973
Cd 8.756003464177082 13.23730589311988 16.755709049597574
Cd 9.132337652592215 16.207337109929227 15.64979240891931
Cd 8.668167464651905 10.245130643351212 16.786709606364877
Cd 11.392605590159382 14.47231806335031 17.152627619356856
Cd 16.484971587587285 13.799437868592017 16.67626058417445
Cd 11.213789555180947 11.450282665616845 17.809665621066994
Cd 13.953808499466886 12.69286871005426 17.85083770284215
