52
Energy = -22.86366691 eV
Cd 10.607342739114033 12.016589058529298 6.6054151387725435
Cd 9.040126252921894 9.686205757161671 7.295906750782998
Cd 15.629833795483062 10.618153957657913 6.2423423806045015
Cd 10.332697487326676 14.757401776759538 5.73663700716025
Cd 12.454395606297796 15.828208226711327 7.375815942921468
Cd 11.118113878170375 7.402252425491398 7.506105324991175
Cd 12.700779474672936 9.846973105190294 6.7091252350162405
Cd 8.239773594756452 15.63057429672812 7.7112417923451675
Cd 13.829648694985206 7.949793466297767 8.699961897754758
Cd 6.648977633713413 15.076968572977163 10.166526294053451
Cd 8.958998388455855 7.745820857084225 9.559545245040056
Cd 14.556733164011245 14.55587476732669 9.248577137790935
Cd 10.750290996038293 10.438183609932777 9.766610997342697
Cd 15.936305713200014 11.80950426990954 9.036131462404157
Cd 12.879688330701864 12.288134095464144 8.52077204285573
Cd 9.30798718057563 15.589147661605901 11.666227491646618
Cd 11.885214311089225 16.282802210086125 10.347826757392918
Cd 11.725276337104674 7.539831998776353 10.899852460778789
Cd 10.41397817177857 13.875154076292183 9.28768558223778
Cd 16.464513754987692 8.978365518481136 9.712081779032149
Cd 13.729352160938417 10.421554095940364 10.923744993684993
Cd 6.276235505027528 12.139784378757938 10.921325146908968
Cd 7.982349989726999 12.454255669792756 8.385016777494714
Cd 9.305584815650514 12.343167298542856 11.643058103860477
Cd 6.6991520853753785 9.803421102829477 9.176698253962382
Cd 12.299764825129627 13.013469097986107 11.552129463062856
Cd 18.03792177204675 10.9533588922961 11.408564966526335
Cd 7.898529088922954 9.607592341424636 11.968856352341648
Cd 15.655578053637564 12.87066323339724 11.9085651684698
Cd 11.13375337386677 9.996009385281175 12.678281310750478
Cd 14.635135295359856 7.204185958409343 11.486120994268477
Cd 9.124981433662336 6.854932096329615 12.31967866022577
Cd 11.679194161317547 15.52297795017567 13.49626287878655
Cd 7.114524184896889 14.039395563118637 13.049638116614142
Cd 13.487274479161108 11.402039435546945 13.863388959242583
Cd 16.114003470491404 9.422213426845891 13.01986408458779
Cd 11.380596532556263 6.796402915772235 14.050762609132848
Cd 14.240461364599376 15.57089592754316 11.965398799607998
Cd 14.613168167760959 14.154129344325444 14.475612264650065
Cd 10.721247058622003 12.661868168704078 14.264800744037917
Cd 6.854275194102381 11.126826721626307 14.305741399867172
Cd 16.5930919815557 11.715173719001012 14.871640061290284
Cd 8.915327744577667 8.724993248958897 14.737840533781736
Cd 9.450611161563714 16.014778167968093 15.514413486548149
Cd 13.957261920513249 8.046395917048518 14.322598092035426
Cd 12.206864313986223 14.468662477753476 16.351004442756732
Cd 7.992421860174636 13.536095583043766 15.78732334007238
Cd 14.702705004279535 10.020926823207741 16.488829098848363
Cd 11.746407903106501 9.54452421997971 15.690745527698288
Cd 14.801912351539304 12.953144257694825 17.25195337925998
Cd 9.334215672776011 11.08173965706888 16.567008993359845
Cd 12.040858417693745 11.823920065170105 17.664181125343145
