50
Energy = -21.11432371 eV
Cd 10.691324035064143 13.75448078386565 6.887392861690005
Cd 13.652357942584828 11.5083627640276 6.957384829768306
Cd 10.684971959317256 10.753847333652244 6.925910285299098
Cd 15.540796805031052 10.053211527654563 8.839554100546092
Cd 12.783864467054293 8.808859464015079 8.048438933450688
Cd 8.898986427586548 8.605350053917837 8.090240603135399
Cd 13.678387599239512 14.461075841856124 6.956123693143202
Cd 9.036525528612996 15.042961640577104 9.546566387119833
Cd 15.440244000408532 13.092190833987887 9.013432780440578
Cd 11.70131364687168 16.07528541428313 8.491948809965216
Cd 8.567044497311358 12.33872315996879 8.433701556866422
Cd 12.19600094022434 12.741749248468663 9.536529349127274
Cd 16.468659296501038 16.191343543243438 11.923894740490807
Cd 13.512812667271856 10.569558273358945 11.055507880552671
Cd 10.733684110682237 10.188103737172945 10.120234393584777
Cd 14.197531516500248 7.559222719916679 10.460887403614683
Cd 11.277909061548744 6.958293309028146 9.973939124133702
Cd 8.355901078840784 15.30490044919129 12.50330315274061
Cd 14.455671593031422 15.805571660822539 9.764283720173784
Cd 15.656045975337406 9.111517922041353 12.793171548386617
Cd 7.209297977266345 10.229821263071583 9.951706800932959
Cd 14.260446193155826 13.356229452344433 11.932314763676738
Cd 9.516630344041404 17.818487118157282 11.099395725774738
Cd 7.026082442893126 12.913541204473571 11.212908777913905
Cd 12.378567153820184 18.07528003945187 10.722917641395348
Cd 11.77343163755432 15.066045451170673 11.351469077520045
Cd 10.732963078035269 16.717965892280148 13.79570409509877
Cd 9.994465246282825 12.424167249386393 11.721930122653186
Cd 11.700262594270828 8.566458009241755 12.634887589565588
Cd 16.77482147825084 11.470258729250725 11.25612892982503
Cd 8.83019645350175 8.07446838122509 11.33876865281271
Cd 12.202321835268087 4.566034204364941 13.21189523516914
Cd 9.687997000649176 5.94949114923496 13.159873006149375
Cd 7.314045265122048 10.13079683921338 12.918869492042834
Cd 13.045212596060482 11.074931293562107 13.795859483814263
Cd 13.743222000068656 16.77361606945707 13.445292193634392
Cd 14.147226992002569 6.652749750917519 13.37311238545555
Cd 7.703340041283609 12.721964039078198 14.251750060997287
Cd 11.499685411247091 13.502743711191414 13.845071998742673
Cd 15.65102447426363 14.527792537392783 14.361591756771269
Cd 9.133036748099004 14.893682599178284 15.485371019280413
Cd 16.22972434259942 11.6528748915621 14.155530732598397
Cd 9.989150707919555 10.577421835474224 14.335488681727949
Cd 11.10205839643733 7.602931911790902 15.459220227387794
Cd 8.165865874909407 7.982761648278981 14.927954287137654
Cd 14.066084387345521 8.726369451017026 15.447971380022482
Cd 13.036906321093374 15.026714674979416 15.930644800154171
Cd 14.231564881140596 12.256806727018386 16.341146481371272
Cd 10.854637757210844 12.899587048192599 16.820101974671875
Cd 11.861728888190703 10.235428815998233 16.784708140479278
