51
Energy = -23.13502882 eV
Cd 9.498666230984918 10.783101056854308 5.710223749201818
Cd 12.391374450854666 10.539961968531522 6.169991503550425
Cd 10.984891643838443 13.397469577790066 5.458623783184232
Cd 10.621105208192043 8.12242314621124 7.045721666149514
Cd 15.241338325442024 10.542321332713389 7.245891719132693
Cd 13.40787383616243 8.332479926383852 8.054921908128684
Cd 8.027141069815137 9.315104150824743 7.959245101392378
Cd 13.333066616052092 13.078597251515971 7.378125888821836
Cd 6.984990534842575 11.849855858238568 6.8777291411132095
Cd 13.457908474064531 14.244994551774138 10.216887382718655
Cd 11.588780572667131 6.451421422157096 9.563264318605816
Cd 10.3761039820937 11.774198617446997 8.604936076556873
Cd 8.65197694265887 14.220256084396947 7.12947650581069
Cd 8.719699310547199 6.450774232020647 8.770886922256116
Cd 12.877411163679817 10.849553289019646 9.806366070367513
Cd 11.17617095919902 14.897481697336639 8.499317833716145
Cd 5.741761477825894 10.912530222664195 9.384756509106575
Cd 6.10855788539979 13.94981500435767 8.908671201983939
Cd 7.155702167632273 8.446140174445802 10.60190053342478
Cd 10.31740245455838 9.246598384862232 10.278119132436268
Cd 15.764620470182372 12.743016209253568 9.182146935797414
Cd 15.930044740244188 9.90440112042869 10.286799009206106
Cd 17.578487533310753 13.904556299627288 11.127890968213286
Cd 8.322724892559599 11.89152257362763 10.666039145239989
Cd 8.599550012285086 15.038049819132896 10.17040666016838
Cd 14.279233738589166 12.054322193922232 12.21527742215552
Cd 11.058614342743995 12.634069349813926 11.575922887076665
Cd 7.114113945133573 8.267490131646957 13.616974034013676
Cd 13.502699147445503 14.87275147523344 13.13798261956121
Cd 9.13925896199502 6.553606252753345 11.75178210655017
Cd 14.225587795660015 7.471242500738627 10.751818683978557
Cd 11.129504292745006 15.84191851006608 11.418258670831683
Cd 17.197601385015318 11.431931212021286 12.954427970915509
Cd 12.269810174381037 9.72494024931919 12.539668491782171
Cd 5.550556008015747 13.224114139038333 11.841411803178804
Cd 11.984498534539117 6.578850896578401 12.504241267974395
Cd 15.256409738047102 8.966363754844341 13.129909915315718
Cd 8.271391170784003 14.042186655299684 12.946442360305063
Cd 16.35613114735617 14.432980854702166 13.824840690580922
Cd 5.350355086934075 10.210236059114447 12.197027508439426
Cd 9.43190459532803 10.375390323539063 12.923614024476995
Cd 12.29016512389584 12.336010814831056 14.480176025799107
Cd 7.949948261979361 9.628467208329123 16.16142013941587
Cd 9.405265309320255 12.440520988777976 15.388383333918693
Cd 10.739392583141171 14.89194986206501 14.22478109335363
Cd 12.889016042789 7.514827382718806 15.13407067536346
Cd 14.005025804934714 10.209705928006157 15.575715804328281
Cd 6.741032997725368 11.671301751852132 14.293125854119939
Cd 9.83648426009465 7.543891326692145 14.521110749206338
Cd 10.997002633636152 9.889704306481757 15.911804212443478
Cd 16.083373912154553 12.216329849476018 15.793199938107156
