54
Energy = -23.78277305 eV
Cd 17.230288706804824 13.035531701654286 10.466212890646496
Cd 14.330386863348199 13.593744033495506 9.762352773639682
Cd 12.390002037103207 14.837739480676568 11.703731390729736
Cd 16.28085042223715 15.899828966364197 9.6650425164099
Cd 18.733327454906274 15.849680820707711 11.333287960380687
Cd 13.952565652334021 17.175328664089548 10.924223517284156
Cd 13.856494360587975 19.88685552864123 11.888154075451473
Cd 12.825671074312828 11.889020565581356 12.039745913529478
Cd 18.32714386338077 13.392651056806326 13.22895753501138
Cd 15.686951328482698 11.892661956686586 12.81305462944792
Cd 16.802664088965166 18.14526481990521 11.741810629229553
Cd 15.86420915468712 18.0988322408625 15.918986281901775
Cd 15.66663865395139 15.120141214406516 12.906844766054505
Cd 10.369277577376874 13.667543300425427 13.583250079714142
Cd 20.597840702698065 16.767498228648158 13.346861955424764
Cd 17.642248907059642 15.873840540598207 15.06186621608713
Cd 19.35663606721236 11.827064382823652 15.62078651327723
Cd 11.168957825485272 19.654948336295842 13.149387655437758
Cd 16.22461734596785 13.371390946317836 15.92299964195645
Cd 13.738601267429765 20.11308821452055 14.975097770463863
Cd 13.82760788831467 10.511230948362336 14.794226587341647
Cd 16.345668101425307 20.54573886698527 13.449606527775654
Cd 22.981053420929953 16.117750391128048 15.693664238804246
Cd 18.545811549197733 18.823603323476497 14.35619290941056
Cd 10.56799662330942 16.797632153873646 12.946046309629512
Cd 20.760170444530694 14.226407327764559 14.833393091652212
Cd 13.646600948275104 17.02886848980841 14.012066184557407
Cd 11.46773293819795 18.473310436732778 15.97715233957297
Cd 10.973022876181172 12.406860274720476 16.37382356087648
Cd 15.20991945716571 9.514735140744374 17.33351987205957
Cd 16.15152168459641 21.795175408224274 16.039571165450813
Cd 13.964809480511743 19.15805674129792 17.995837594794885
Cd 18.948264658481378 14.380659232073906 17.403917063587908
Cd 10.885443508697366 10.659329313539853 14.04093297203157
Cd 11.257053340084362 15.508390404988159 15.862257760208417
Cd 13.521964140261042 13.67762482800766 14.595049517668203
Cd 20.25646937896724 17.173817937147692 16.457655476682305
Cd 16.948237193923045 10.28255466543796 14.979813935482102
Cd 18.25898744866181 19.29283216419298 17.363330824160197
Cd 14.336496059284359 15.618873332375797 16.675020025777282
Cd 13.812067113529524 12.18237475687236 17.500281417126573
Cd 19.448554092565427 17.02101533785599 19.35993857007868
Cd 16.69240649166409 16.241940175540446 18.32729243934296
Cd 12.130274768582971 16.868440227798885 18.541225880352716
Cd 16.059039985739826 21.294048771502023 18.858259690925422
Cd 14.487495932192267 17.202360398682963 20.39104347548807
Cd 17.428758952660512 11.360528133080381 17.969561871500513
Cd 17.0023892780528 18.841804603473943 20.02802059913852
Cd 11.627254045624385 14.000474296522828 18.70027481002878
Cd 14.469726340452493 14.19834782855027 19.575780539021896
Cd 19.03013037100551 15.240433134294598 21.63627509471013
Cd 15.903521480065717 15.001403226433647 22.083979754419286
Cd 17.263690289992034 17.56893374881579 22.61299253005083
Cd 17.387576583444204 13.534879201084731 19.82243087911123
