54
Energy = -24.33648916 eV
Cd 15.025865999700468 15.754299463757757 11.163662810939021
Cd 18.904108773828106 12.345135939037586 12.16285178883881
Cd 18.31956721365406 14.975719706184584 10.404083331153947
Cd 17.19390659626992 17.747691902153907 11.063362457283473
Cd 12.134544354092592 16.185891248932723 12.204948442016311
Cd 13.136530962274474 13.411515432615191 11.247629415617837
Cd 16.10401872082202 12.954824062088726 11.163259022792328
Cd 14.093437192397523 20.75316566025508 14.006635401545934
Cd 14.098270802501512 18.413437159310508 12.105688993722598
Cd 10.1163984781999 16.200220388349795 14.340466511995759
Cd 16.572096206609714 10.475588057018713 12.818784280940068
Cd 18.722083578599786 19.669796645497136 13.399186633114022
Cd 20.88668370108315 14.455141112737577 11.881503034681666
Cd 16.308981797301676 20.453271911678943 11.981173845432664
Cd 19.37366756759226 16.799632195253995 12.875750368731651
Cd 17.02561377976241 14.840274111318925 13.534951803398894
Cd 11.733601546845387 13.634221665408347 13.832959324826527
Cd 14.555498625269884 12.550714925956768 13.89516779717115
Cd 22.034285319994776 15.62561976244353 14.304262559536362
Cd 12.627093796377084 18.315633792778115 14.896864506474651
Cd 18.269515920992593 10.947470465380075 15.225621833355357
Cd 20.567981437455664 18.366344314920646 15.22432285082325
Cd 8.623720228968292 15.849551859955666 16.90671446376379
Cd 19.657698880402158 13.556374325774895 14.815954040193008
Cd 15.15795142921502 10.13500045306056 15.454880204406688
Cd 16.837574998981722 21.477431220353683 14.945684001511035
Cd 14.232920573451587 15.596006292313131 14.434310851939575
Cd 10.448058207103736 13.50226934960506 16.433799748664466
Cd 22.47205626361864 16.980323167839664 16.917152321163815
Cd 12.373084149424551 16.063860629307683 16.92249819693114
Cd 20.39311482839735 17.334959032240903 18.954890885401
Cd 16.283784258526502 17.791612804754887 14.408799986531136
Cd 14.90442963509774 19.772470364741988 16.698527474504026
Cd 9.82754428407619 18.5633141513117 16.168943173640418
Cd 18.40432925287518 16.176147036736296 16.02995635003015
Cd 16.545739795795317 13.649963997636299 16.21213142332244
Cd 9.83901164324494 17.617859544436993 19.053084753783338
Cd 13.583249779291046 13.408112368910514 16.720232776790937
Cd 12.192306960817787 19.245788779246517 17.93453269832423
Cd 19.111936044653856 12.26118654155756 17.833708536970512
Cd 13.840740295397621 10.642919152987762 18.027568811835312
Cd 17.985247383844534 19.26129518253467 16.68407469497976
Cd 11.276018239291368 11.787605807212309 18.706386523983724
Cd 15.503230804643213 16.565986428850778 17.062559333912038
Cd 20.761265755016158 14.613499144714352 17.402613282521656
Cd 12.563984563898646 16.740829956267458 19.946836706678134
Cd 16.804808382813977 10.501712768583388 17.973944005194532
Cd 18.135895425411228 14.910140725829791 18.93158856586622
Cd 10.434679017350229 14.701758293971405 19.243520628780963
Cd 14.750318249867576 18.738448789329517 19.48861999364006
Cd 13.119669444994528 13.690217429953162 20.180910610512125
Cd 15.490615768542533 15.817694551005662 20.062805548541775
Cd 17.582001507279532 17.893090996956037 19.2988502692345
Cd 15.79579491025475 13.01349226311655 19.147315456228213
