50
Energy = -20.49181301 eV
Cd 11.092936081592923 11.407427233326409 6.7499302678206465
Cd 12.794736425273792 9.1771056258696 7.6145463335072785
Cd 14.768812215846857 11.510262757278499 7.278660485552645
Cd 13.203128897660633 13.62627821812818 8.523231329105107
Cd 16.498800208416654 14.231501890587468 8.764043562504698
Cd 7.71444388600742 10.948432346136917 9.341800109640507
Cd 10.134218406741745 9.27072351996679 8.912656111327665
Cd 9.600299961822314 16.332303925069674 8.615539735039757
Cd 12.391076512996984 11.134121807245727 10.26398774732034
Cd 10.075240680087484 13.246048498713634 8.863368435893282
Cd 17.51572287549269 11.410665286776178 8.330838393002919
Cd 14.938852613303807 9.005492093816883 9.593836852899248
Cd 14.505349627967755 16.076474251519336 10.12689053217767
Cd 7.645178239629345 16.661048104862036 11.013131120265713
Cd 6.88470664813968 10.708607130933174 12.61667678293078
Cd 14.973907745510116 12.385366941829616 10.731747135152034
Cd 18.191235309166387 13.247958579149795 11.155262390895375
Cd 9.790386112256057 11.041639924993946 11.673852002671213
Cd 12.412450046821062 7.882121059050326 10.865848317240287
Cd 10.520495290376816 17.752689188572287 11.203630315662457
Cd 7.270966019645481 13.734943578187371 10.128179622203241
Cd 9.555131182025502 7.9628625750713065 11.49392941436511
Cd 11.772921114929993 14.982882857729546 10.681951226222411
Cd 15.097988388789316 8.488146959380524 12.670930272459282
Cd 17.111281353812846 10.263047572101131 11.100300905509352
Cd 15.409461804048908 11.405561600404376 13.582155225214716
Cd 9.222965420869505 9.026683101788802 14.222681427594011
Cd 9.494886537612429 13.890886838031793 12.108464694011875
Cd 5.38842306122487 13.64559792668238 12.472452613548457
Cd 15.574604149133096 14.722588696850554 12.636722662555322
Cd 18.725525237782403 10.94860313844365 13.474956442741139
Cd 13.214707838720145 16.434009339273995 13.017130122350785
Cd 12.920657686283068 13.102765532386488 12.762140107253009
Cd 7.360773656803594 15.338059210195429 13.971168057733022
Cd 10.117695093698767 16.40135280837667 13.819536265176147
Cd 17.68967034140025 13.66379794222851 14.324176826564807
Cd 7.646144333684918 12.45222081289625 14.880440530998447
Cd 12.121204900253177 14.9863086533049 15.397914490176175
Cd 12.349788883635068 9.994149138958322 13.133113193771512
Cd 10.61602251700849 12.420201531696312 14.419374123167037
Cd 13.425547494339439 11.993652923844277 15.67012298833455
Cd 16.793982149212475 12.351430956719248 17.05621942108234
Cd 16.8637603138955 9.499162567902173 15.467408002717766
Cd 11.292113691666028 9.636122692287037 16.20343173474046
Cd 9.130293735119722 14.779954993310813 16.505311302193395
Cd 15.009052906539763 14.59183899200632 15.905691043855255
Cd 13.788274175017392 8.337437705974233 15.338987437005187
Cd 9.967528701820902 11.976287534434505 17.382362712074364
Cd 12.429269548041386 13.59625282436856 18.186088403791597
Cd 14.80887870570583 10.138419339166305 17.56867949780745
