55
Energy = -24.13078766 eV
Cd 21.776846914697007 16.178127580871386 11.955539962049595
Cd 19.270482969760003 15.735284186376523 10.206500496522253
Cd 16.941770654568504 17.703456333844542 10.554101329956508
Cd 18.112934130306616 12.791014565135379 10.73899142073224
Cd 21.011659593459445 13.340309794444503 10.964593228394662
Cd 15.127410772555935 12.134830981546477 10.585897282590897
Cd 15.352073582619665 16.18226081107659 12.716119436422623
Cd 16.00221280539048 14.94403217638001 10.026125999202984
Cd 13.96282487588004 18.8569881726023 13.685454637806497
Cd 19.335038301296404 17.646621546474034 12.746439224865899
Cd 13.104718088127093 13.78420792257655 12.0861119613287
Cd 13.607590079423193 10.351686744546697 12.381280016762346
Cd 16.908294458286715 19.248805749018906 13.132758910900215
Cd 19.771222198338673 12.216869624692979 13.579297859784152
Cd 12.345823981002786 16.599368301064583 12.544033951780696
Cd 18.173713513485822 14.814900513477246 13.040493734674389
Cd 16.921140346709176 10.870945223888382 12.684043483388335
Cd 17.06279271447098 16.772350307171386 15.182140818997325
Cd 15.458558204411899 21.418139028528568 14.555214712337055
Cd 15.692205767807808 13.397256544768933 13.920743697403783
Cd 20.233532466068365 18.507387980391357 15.531936825747595
Cd 12.779849929341331 12.240838646962382 14.71888304085678
Cd 11.65278911567503 17.57003199529834 15.291105047968978
Cd 11.063187781525562 14.669981651438915 14.47134667038662
Cd 18.056719744817364 10.829470294147955 15.42848044941394
Cd 15.033191470694728 10.350746296676713 15.067219478968605
Cd 14.052841996271546 15.498166479392179 15.389182662781241
Cd 22.251342711069345 13.795166067682302 13.744165526368983
Cd 11.941803176952256 13.618981526877041 17.268144172387288
Cd 17.793088086076803 19.966415849277933 16.061069507707575
Cd 16.220218754293438 10.212144644602876 17.729475254866742
Cd 10.857574976696371 19.297336029763393 17.59752285546935
Cd 18.799021836624252 11.697343448928375 18.152783663020553
Cd 12.93678363862138 20.74247092067442 16.06369410351435
Cd 15.906319399444738 15.711414393419556 17.897164972615897
Cd 14.965387381311725 12.982199036402445 16.91186826360775
Cd 20.26940299827321 15.512701151636223 15.10128039161538
Cd 17.851424439996613 13.90058651492635 16.13780531840755
Cd 14.858360257620534 18.22968264736246 16.52573949608797
Cd 15.669661673564532 21.686194860827708 17.47509429259978
Cd 12.776060496334846 16.577696455095772 18.005930009846004
Cd 9.515638851129893 15.435378592666302 16.829927087074672
Cd 10.906629462242414 21.353200765286818 19.874971863694245
Cd 9.562903313728405 17.099034651888307 19.156639102471566
Cd 19.113167659409953 16.801436299348968 17.752623118577883
Cd 11.376320444658152 15.402810053024591 20.946478483175035
Cd 18.491215591729205 14.338190038401711 19.36879281469643
Cd 13.63350098845524 14.036609807087437 19.656654727280998
Cd 16.17225172139424 12.323594687476104 19.80584461321158
Cd 13.89208418138084 19.950125755418 19.04979810274201
Cd 17.912332454726396 17.034038325141836 20.52658560618318
Cd 14.690799284543104 17.312330992843858 20.44466812129318
Cd 16.83279994310893 19.008582396295925 18.699496232010755
Cd 11.866849871546929 18.399956665740543 20.622115271619226
Cd 16.06000301556507 14.854671036598365 21.34400375331738
