6
Energy = -1.04775468 eV
Cd 8.929692089779392 8.85387046968891 9.109110773656683
Cd 13.225731891419645 11.862399075968671 10.866890451136603
Cd 10.706751430078034 12.906063774256957 12.425372739074922
Cd 12.751771276032072 10.88223177871986 13.9128331488573
Cd 10.19128932837493 11.922618452211077 9.07814057728608
Cd 10.831707986667823 9.822513292188422 11.545746817404364
