6
Energy = -1.07724394 eV
Cd 12.856731099943694 8.588190093961707 10.179841118028827
Cd 10.16595716167652 9.894632434488294 11.71980244671863
Cd 7.36424214731808 8.868945599866825 10.178536936821015
Cd 10.16640828275593 9.890574324777326 8.653618372665234
Cd 12.380530279601624 11.818930906500922 10.180468591347305
Cd 8.158743562702679 12.031663508300982 10.180345068417852
