6
Energy = -0.99911041 eV
Cd 10.507076826663042 9.616187328343836 7.694116405165032
Cd 7.502861393936635 10.109356807344394 6.696767828994972
Cd 8.03024082136226 7.616809504419207 8.613250857560747
Cd 8.473588035221981 10.490723452886728 9.925854937731243
Cd 11.701870638097402 10.058112017086422 10.970829605912325
Cd 9.465036674846981 7.789485280047699 11.77985475476324
