6
Energy = -0.83485032 eV
Cd 10.761270919053064 9.004626959881525 10.814362029359572
Cd 9.542507134401086 12.147122757565405 10.03604801739146
Cd 12.95920087372311 11.671252635210324 10.921726422633434
Cd 11.475334552194123 14.512607761331257 11.017038256869006
Cd 7.629231840289994 9.643648099141448 10.601464573724313
Cd 13.458485285126418 8.950526782026115 12.525393041822534
