6
Energy = -0.91904884 eV
Cd 15.67311694724089 13.88373257396801 11.736455206511089
Cd 10.931868112523071 9.761817774158429 11.452991226329898
Cd 12.363518216243794 11.341362927990275 13.859635355911543
Cd 7.713901535958867 10.240567183858692 10.454404885556954
Cd 10.10889257722862 12.71511015352025 12.001743122511852
Cd 13.033163430210374 12.09228858859804 10.895919395725702
