6
Energy = -0.97498738 eV
Cd 11.422166217182628 10.875596106467288 8.671678362869782
Cd 8.530540863512858 9.617230697462976 7.88132019551678
Cd 10.208370024996281 8.589753985655957 10.415913874071915
Cd 12.885820924461818 9.74494648683488 12.081529731752518
Cd 8.777358946402643 11.514147864476154 10.355488018266616
Cd 10.817275464155795 12.147740372435234 12.932591585521605
