6
Energy = -0.99272914 eV
Cd 13.205669752422084 10.744785894885167 11.714835777957804
Cd 12.299720724371696 7.631151069037603 12.759065197238483
Cd 11.048418570940669 10.921781389278227 9.089039956534792
Cd 11.42250021222682 13.498305877851411 10.752764424221358
Cd 8.269340351029339 12.82221131028217 9.56816088711105
Cd 9.913944541280914 11.041738087183887 11.963296009035323
