6
Energy = -0.68191563 eV
Cd 14.695120313477211 12.585599774202905 12.628453286758385
Cd 13.864277709780833 15.42918883371576 13.843481223941973
Cd 12.806543985620289 3.07979982046881 15.344693576263207
Cd 14.336958676290722 11.862843385104743 15.724035016221183
Cd 13.040361923312382 -0.005994404059421075 16.29806280999604
Cd 13.412985792266133 14.404570120924186 0.39495193878941476
