6
Energy = -1.04845079 eV
Cd 14.717426302588681 10.095187058987834 11.191495580628166
Cd 8.22518718295622 9.819388463667948 11.181606156897976
Cd 9.863461149184829 12.186320172255904 9.630813792796244
Cd 12.937353555728622 12.910955362287709 11.184912175254151
Cd 9.860348005403738 12.19346209022953 12.71364295967744
Cd 11.48270864317572 9.881171691608891 11.183689839886961
