6
Energy = -0.47347712 eV
Cd 15.360789499471073 0.8931019840306949 13.039581367246283
Cd 15.696776935184726 17.809409562523438 15.141078737233277
Cd 16.48845022209154 15.176284847087226 16.90361288269245
Cd 16.548330577044922 12.393097911224293 18.54965011912757
Cd 16.091795067546254 9.566452309747453 0.557365442382541
Cd 15.53052088829211 6.702747400059191 2.150533202648882
