7
Energy = -1.40438569 eV
Cd 8.154353214285774 12.327182499999958 9.970088500000074
Cd 9.890901214285577 11.73147850000004 7.339385499999959
Cd 7.028031214285756 10.37335249999996 7.704914500000113
Cd 9.357629214285733 6.356899499999948 9.896206499999971
Cd 10.343842214285765 8.235344499999911 12.28257449999992
Cd 12.164049214285688 7.877005499999911 9.677012499999996
Cd 9.457184214285702 9.494727499999994 9.525808500000096
