7
Energy = -1.34268632 eV
Cd 8.87284702296026 10.311775525705013 8.251794413426547
Cd 9.69476344736882 7.184735167122991 7.381616147483279
Cd 12.110201164635303 9.530838688434617 8.269324905534976
Cd 7.454849562992442 10.594736121891927 11.255733791703955
Cd 6.836659373547287 7.8651896403975305 9.223185363723827
Cd 9.8711885145595 8.422187391501268 10.481113982089207
Cd 10.713539679587411 11.644586230598042 10.691280161689606
