7
Energy = -1.18539061 eV
Cd 8.402744035502996 12.114967108478629 10.668452585635022
Cd 10.526237860343372 13.935715918793234 12.264473945270185
Cd 13.72184577844731 12.83473615740233 13.339964738298619
Cd 17.0814899412109 12.244414871205398 12.455532720245559
Cd 14.48316100839654 10.984083641250352 10.756617505718683
Cd 11.309891451827989 11.032492535731807 11.473753086596819
Cd 9.129300782794795 11.508584959559155 13.696524944553582
