7
Energy = -1.34241654 eV
Cd 9.934179480569167 11.740827736843576 7.969786751757592
Cd 13.153781789574248 11.327702341463196 9.168038264242321
Cd 7.717273505018479 10.728738082013942 10.440663522403467
Cd 12.96205936580193 10.048833939278959 12.401542397063308
Cd 10.64859087674671 12.127409408541816 11.215413541481139
Cd 10.69914918800383 9.263343268670916 10.089976928652513
Cd 9.55451856169282 9.67755827785413 13.189286075552843
