7
Energy = -1.21923518 eV
Cd 11.453670362140707 11.77176020398334 9.738514234331655
Cd 12.710286892187586 9.109659522206881 11.243761246500448
Cd 9.905471787237246 13.761783557236598 7.636792965109086
Cd 11.04996555274439 6.242595999594664 11.131577943625308
Cd 9.596772487900044 9.128073391708629 10.326568946661885
Cd 10.410602195647646 11.07039876653764 12.64762537086281
Cd 8.274443177738517 12.149570954107709 10.09116103631056
