7
Energy = -1.01467225 eV
Cd 12.623870794025429 9.768043805759271 12.379322722075468
Cd 7.430351658557443 14.507986632357005 12.950775732210372
Cd 14.504144152640603 8.225746890648619 10.229927824606516
Cd 8.240740254541024 11.15028355975275 12.422313682562354
Cd 13.690764107999264 11.326658451464594 9.754094363963771
Cd 11.439419988857713 9.049458159591783 9.494483347447554
Cd 9.521837081701197 13.405254564038831 10.35710646006249
