7
Energy = -0.90838183 eV
Cd 12.931755637686022 9.370179753575137 8.586368909735569
Cd 8.42610930721898 13.069642347581354 9.431769952951983
Cd 10.174073870464918 9.341590501086921 13.646910003150374
Cd 8.224795212939982 11.826374188397253 12.593785243681536
Cd 11.01799499979448 11.896977147125469 7.559698732898588
Cd 12.40897586419969 7.819599214794936 11.574736247458311
Cd 11.098104876310044 11.11433376962465 10.881391755112427
