7
Energy = -1.34187907 eV
Cd 9.480529829351477 9.479306386324012 11.02899057627546
Cd 9.480645027564977 9.479306386324012 7.929640738344869
Cd 10.398853557926746 12.308432284752273 9.47937516112876
Cd 7.07121051123006 11.228181233149755 9.479158712909475
Cd 7.071228237708944 7.730404063455666 9.479158712909475
Cd 10.39887926132106 6.650186692163425 9.47937516112876
Cd 12.45379196122077 9.479321453830996 9.479439664655557
