7
Energy = -1.35698848 eV
Cd 9.952438952600737 11.24937522089763 12.737809824691272
Cd 7.640470434247868 9.783985374484038 11.023867959951595
Cd 12.776901688587168 9.894794968965218 13.500357281222549
Cd 10.888578679967916 9.02606146126639 10.88795898105793
Cd 9.531980532470659 11.624609300027316 9.33230858770177
Cd 12.78553049019601 11.728902113649626 10.956565404021354
Cd 12.172228159482916 12.764724135307496 8.062317899787727
