7
Energy = -1.11776509 eV
Cd 9.606922886867164 11.824742904492322 13.387176324853307
Cd 11.96139914696295 12.169839629708878 15.502079983771221
Cd 10.815247089448174 9.248639053117603 14.928023523957856
Cd 12.478274982704706 10.846325821362315 12.701856923092262
Cd 11.298954213648788 12.787406244219941 7.34301476517901
Cd 12.042731933413952 13.134669097090661 10.485122256993103
Cd 14.456226780077374 12.672173667719305 8.355075614721443
