7
Energy = -1.16311967 eV
Cd 11.511854240234017 7.995803908020902 12.591245526303922
Cd 12.800469226939937 10.635877824038111 10.974771992830714
Cd 10.400628366685856 13.66626487876513 14.347415691506857
Cd 10.726364194621521 10.404430714004482 14.617256581525096
Cd 13.410774256524185 13.604890766759711 9.585079640973213
Cd 11.532496383332928 11.583567567110252 8.210719340119992
Cd 10.718351705779058 12.910566981892972 11.08841360057842
