7
Energy = -1.38756722 eV
Cd 11.67393687456554 10.835461428453515 10.535952225103696
Cd 12.527881136498339 8.026102974690401 11.591885099015954
Cd 11.784657009342693 13.349266057924543 8.646990416524664
Cd 10.004280612086086 13.455269534921438 11.322494470219237
Cd 11.616556429488766 10.240702789389687 13.69641167520519
Cd 9.051456638990441 11.687343004716125 8.853871057210043
Cd 9.454215177217375 8.880497879982139 11.76858350896213
