8
Energy = -1.65409996 eV
Cd 11.86968810369816 11.288314328104196 11.15849097009891
Cd 11.071695807130947 11.802978520078652 7.928324688988242
Cd 11.515434185280085 8.536515669374078 8.598440483802301
Cd 9.576042605191104 11.061000156293128 13.40730423043561
Cd 8.606898643898278 9.513531687923354 7.9368938038730645
Cd 9.382971933351437 8.978708536907599 11.121256531163317
Cd 8.961731717634281 12.27494984755985 10.516022720392831
Cd 9.03418993000518 6.612912882652802 9.21332497273952
