8
Energy = -1.63705681 eV
Cd 8.853720034566576 12.131515109595862 11.131601441823692
Cd 9.01150735723776 11.448641418394304 7.96262984323683
Cd 11.77189827035288 11.28421140713486 12.254249399222424
Cd 12.062647591034567 11.234224259444403 9.035585636355652
Cd 7.430703653878806 9.544940233948154 9.8463990649278
Cd 9.500581436920065 9.015932501313122 12.299417191646379
Cd 12.348328826006272 8.590910336415545 10.813472066107973
Cd 10.146078874670021 8.501705215109224 8.44709696817541
