8
Energy = -1.15534878 eV
Cd 16.079642601024275 15.67469316972685 13.880536185509404
Cd 11.281109336407319 0.36360003075325864 0.5637808334637925
Cd 14.063877917820705 12.881069209384007 3.850150408475769
Cd 1.476286564104743 13.682219126063696 15.722956878293713
Cd 0.5795877273927925 12.447179648778711 2.29779480502149
Cd 11.623504610747505 14.690088973843325 3.0736087074071894
Cd 14.383166770450655 14.689776034754981 0.7424819282484334
Cd 13.263101361468996 0.7923029238158468 14.335347099780057
