8
Energy = -1.53082236 eV
Cd 9.371280423217042 9.88268984210709 8.475838064792363
Cd 12.66451282779231 9.731895860744983 8.396634322104669
Cd 6.212242755842512 10.233616757233463 9.200069220218548
Cd 11.32335627877065 12.042883524651206 10.270056102394028
Cd 11.21732916207172 9.145368338862893 11.268105098243321
Cd 8.343688461993805 10.96673142509219 11.567377668299073
Cd 14.23597334279915 10.791334488682464 11.680183059657667
Cd 10.959257825783075 11.533120840895846 13.469377542560467
