8
Energy = -1.73687198 eV
Cd 10.223982343566812 10.137636048186558 7.196730630411922
Cd 8.9194492665101 10.757122194394414 9.940983871834542
Cd 12.24594467618711 10.527301864194754 9.506273864352524
Cd 10.727564331218193 8.746932800094358 12.14567487148783
Cd 8.047175332403235 10.447943544390892 12.888029929522029
Cd 13.720369247873668 10.027668207948444 12.191177531402934
Cd 10.588086665374174 13.022176614772228 8.458977787958819
Cd 10.983178689908513 11.795244017073616 12.456710187252465
