8
Energy = -1.64527181 eV
Cd 13.813377103139292 11.95055938313338 9.385775117271729
Cd 10.824460914498262 11.203754499174098 8.951693300379375
Cd 12.867157716470341 9.432400194007457 11.10478923869782
Cd 11.988022101444601 12.351251991434207 11.904909367841238
Cd 9.40581656363518 8.824616847705164 10.944336849287554
Cd 10.561615254597957 10.080570614602005 13.768939116690149
Cd 8.499308210216405 11.798141965964556 11.441233497836846
Cd 7.8964843822569195 10.3319404975616 8.677113076913798
