8
Energy = -1.74508901 eV
Cd 13.236077429626235 11.01946600004479 8.30815817936548
Cd 12.769838069990248 10.788749918183441 11.524472909861045
Cd 10.396573991722384 11.82494054197974 9.215717360375802
Cd 11.560844349818915 8.600676397114608 9.742034740051324
Cd 11.463971111132025 8.15444903647763 12.96520397008802
Cd 8.669381045958314 13.200727323548632 11.451955820356996
Cd 9.381303023325597 10.193173257576854 11.931174534902844
Cd 7.41538363985282 10.953255488162881 9.590543311368997
