8
Energy = -1.55157072 eV
Cd 15.719361241368853 9.697978084461726 10.405351698069769
Cd 13.200048003207348 11.944669595306955 10.163849273110982
Cd 10.699256393148026 12.03641046350247 12.205042802484053
Cd 12.863146558029792 9.500894179582655 11.95996319070578
Cd 8.201022315172363 13.59410691795348 11.228813488276261
Cd 11.430372931953942 9.556007395394728 9.14417080758524
Cd 7.883172134290686 11.132871922167604 13.100919074631497
Cd 8.565574942643407 10.663819666648426 10.038505538603049
