8
Energy = -1.62764758 eV
Cd 13.90737447569722 10.336860854700127 10.68512415781621
Cd 16.172457910900413 11.915709077240775 12.506472187950106
Cd 13.01782124550092 11.915712090574281 13.25391774540548
Cd 10.802662998055002 11.915712090574281 10.566566498150442
Cd 9.917875971779791 13.472362130699498 13.145973522678032
Cd 7.648026332655376 11.915709077240775 11.314012055605819
Cd 9.913109767858836 10.336860854700127 13.135360085739846
Cd 13.902608271775998 13.472362130699498 10.674510720877892
