8
Energy = -1.73483549 eV
Cd 13.610354569578757 11.468502493192592 13.215498173730648
Cd 10.390439388680502 10.919689165807252 13.398239885020166
Cd 11.350872781486185 13.37618480106023 11.818494653618833
Cd 12.867929681922185 10.031671070112662 10.584184180822506
Cd 8.12705585891476 12.801566986320422 11.967050773447685
Cd 10.682477170128934 8.109342398496873 9.40488081870921
Cd 11.695137219742184 10.61120155168704 7.731269574639516
Cd 9.76489717120725 10.987793425352816 10.13279687995133
