9
Energy = -2.12762101 eV
Cd 9.24629833452622 13.431001889757429 10.288069498253758
Cd 11.922693076875325 12.760136702941168 12.071354661309272
Cd 9.123039342988093 10.66586367923637 8.889079604190577
Cd 14.082177649030186 10.740425012461257 10.657846192717104
Cd 11.870120257315737 12.283545426576863 8.881401839437538
Cd 11.915761200663924 9.51690460233248 12.585077088758307
Cd 10.57832463294262 11.624336379478054 14.55824508569263
Cd 9.063840419990923 10.74434211209035 12.008968434509782
Cd 11.79139851021744 9.019068501313432 9.437047016054597
