9
Energy = -2.11818805 eV
Cd 9.931146318583348 12.546527393234639 11.730053708910335
Cd 12.032783882391701 10.463306769388364 10.241461554282715
Cd 14.454543443010822 11.93352631809982 15.012021913782668
Cd 12.07990288086474 10.635119183378668 13.613439653943928
Cd 14.764256418255599 11.40248295070189 11.951396728207815
Cd 10.727236796174202 15.461895431095602 11.896493324675175
Cd 9.727802648656422 9.486219419485492 12.033654407919974
Cd 12.461964251525375 13.746247398754464 9.913278490238731
Cd 13.031175225540224 13.810637875785753 13.052726029157034
