9
Energy = -1.56043047 eV
Cd 13.057994983518201 10.275319845860613 10.730003879432166
Cd 13.464099741664375 13.636302273185049 10.810266004199091
Cd 11.02635202819199 8.831600138791076 8.520281937979021
Cd 12.589776210550259 11.767416814457436 8.011219640450634
Cd 8.540632507450423 8.293420663708567 10.545388145102502
Cd 10.670869714848509 12.26123295498609 12.278573133864446
Cd 9.178331692001633 11.312492845487284 9.18938546516214
Cd 10.75341185242131 9.014621018731313 13.026005735933909
Cd 7.835307417008104 10.316115698987677 12.913936965224963
