9
Energy = -2.01187091 eV
Cd 9.649899431429622 8.803545162500962 8.274249416419657
Cd 12.648767781127685 9.315768689139832 7.732237823670966
Cd 7.8189429781907664 11.688470803199317 8.341719475387423
Cd 11.09101048406833 11.72769863349446 9.241541626879322
Cd 6.923569055610445 8.851313798317106 9.639862794884309
Cd 9.17324375405155 7.1299058026167375 11.219847191838138
Cd 8.75735681833659 10.525599445311094 11.409972881079977
Cd 11.28656248873849 11.95340635103034 12.46532555998511
Cd 11.837298769368784 9.190942875312277 10.861894790777482
