52
Energy = -165.35652366 eV
Al 15.855958475989896 11.11091364561661 9.268020952588396
Al 14.365837818008245 9.993889383859202 7.244664828758803
Al 14.18007412503966 8.63816996966288 9.577372547323014
Al 14.633854273220456 12.863703910936009 7.676670462183862
Al 12.323612747408154 11.702271589761635 6.771116242065375
Al 15.60918084733092 13.233305907160766 13.050464384673665
Al 15.372918090084667 10.840297293681575 11.86474660281319
Al 12.701833270882156 6.620942971952085 8.284437132485737
Al 14.75783976194789 7.878912564999727 12.17143392519126
Al 14.48167933129661 13.359857477845912 10.504913287784973
Al 15.095191684530793 11.561861218925987 15.069950701608489
Al 13.118519005017893 11.245400203750902 9.46508913001902
Al 11.754928664937855 9.159729011168924 7.94818536053438
Al 12.391566681915483 7.0884815540520245 11.027547058548043
Al 13.263231378610138 13.588989160111197 15.073298405903573
Al 9.743183813843247 10.789124940134338 6.220452647896711
Al 12.268966212678148 13.833847333807743 8.711489697270284
Al 10.150282409141578 13.512015090552579 6.99012855403109
Al 14.093395448673428 15.310868025661811 12.553061289410588
Al 10.558018503691956 11.497691262930168 8.874721705464305
Al 13.104681324247426 12.132409855939054 12.853147610028714
Al 12.871158096079293 9.736231131936465 11.66741534865136
Al 13.826009842569823 9.422532001423171 14.250916468415786
Al 13.660063503439565 15.954430232296213 9.886099224910641
Al 10.497233318355226 9.317548482773441 10.710484634164402
Al 12.321982333257791 7.179178596060441 13.778228007804612
Al 11.594532790365715 8.502068102534716 16.15360667862854
Al 10.24858034238089 7.019898300955931 9.379246621885668
Al 9.922479418752463 7.289068531606951 12.419119186404904
Al 10.985513391811207 16.346475278936435 9.495741997915356
Al 11.13397732623061 9.712525988030649 13.59642336033458
Al 11.8882449604363 14.29130720850162 11.341739025543419
Al 10.842255758769316 11.805839474724403 11.526431359618728
Al 12.131153167400392 17.138461821168544 11.860715874999064
Al 8.971442422957221 9.301603527635482 8.368608544277901
Al 8.006231617454226 12.108611166443248 7.990088728615311
Al 9.208050040178705 7.9562533458538365 14.952092046373924
Al 12.316921980843858 11.127892997150015 15.741538967695245
Al 11.646664972100861 15.342063253777305 13.936200304488265
Al 9.577281776677413 13.957162604728566 9.752248846593021
Al 10.72638909505565 12.669064555551868 14.137688517665962
Al 8.626815608577228 9.744866439561463 12.817957738762816
Al 9.685486157917516 10.617102591711001 15.616353013369697
Al 7.97112881470056 8.064892864499885 10.622131844062464
Al 8.666248275659372 13.271784388970854 12.225766746898636
Al 9.70169647017594 15.811871432935572 11.925112375979095
Al 8.253078977640905 10.908146842062509 10.477315408086342
Al 7.047481742390227 9.96470076322461 14.931243719687021
Al 6.847864156372006 13.198692294040853 10.216473228127953
Al 7.9756660534004356 12.51501504948567 14.679184791298077
Al 9.080139372879472 14.855236583935348 14.403523063710095
Al 6.531458964417758 11.502441329658604 12.537260862701702
