52
Energy = -165.1469748 eV
Al 15.51473171627863 15.02818199123009 10.547075895039708
Al 16.158786367362357 14.209974502487865 12.99821690730595
Al 15.13421530246829 13.70367144291826 8.207842072377778
Al 16.762146759883308 11.537034259467482 13.215554692592393
Al 13.56892020288931 16.503271870080454 11.579815669962493
Al 13.095965390704752 15.09892008612018 9.267659708649797
Al 15.54433677898315 12.168983592475344 10.394230548176052
Al 11.268745728209963 16.880016220870424 10.114790756000787
Al 13.023833254912224 13.85817224908842 6.753873660761796
Al 13.76012604748669 15.118774560010689 14.037512854957749
Al 12.854444210832648 12.32258769045142 9.055746638601716
Al 13.586009889562781 13.488238973224435 11.667718563858193
Al 13.997756434151244 9.948591611674217 9.873170232580485
Al 15.339377400243595 10.13487261731895 15.043476970518846
Al 14.421783472440753 12.551363385797158 14.300964158805456
Al 11.229214092214967 16.023759572516738 12.864163656224346
Al 16.53791824941725 9.840820258165559 10.999592388638504
Al 10.723991201202429 14.504057592886955 8.107789770977751
Al 10.914375708147237 14.19107062115817 10.798454954166676
Al 11.20409605209826 11.855491798504463 6.835529583080621
Al 14.345526822786614 10.59765833742867 12.465385205709747
Al 8.976179033220303 16.227845153983772 11.18674028430153
Al 10.032773137482241 12.063440635540148 9.292744947396823
Al 11.554117863215867 13.311857015540523 13.342100769511346
Al 13.782304964129494 11.480665887821926 16.782100647421604
Al 8.798484581218718 13.061426116041183 6.991692036383965
Al 7.076301664411445 14.606334786201897 11.962473432008682
Al 9.127358135892376 14.630915525592796 13.695085940582846
Al 7.320763217463701 11.541419635202592 8.442493522182534
Al 14.877307141169902 7.814498685313198 11.597830338557717
Al 12.467965527689227 13.579408351793345 15.89248045725333
Al 12.291599721989984 10.843194397942979 14.285165382576084
Al 13.93878085126518 8.031166862998058 14.120999590561714
Al 8.313270892176355 14.059161671408319 9.601135495470794
Al 12.367429268498263 8.963465981804424 11.989539436418392
Al 12.616766911667911 9.13025262790245 16.39254327767333
Al 11.771448080367191 11.437562932414359 11.43044361195401
Al 11.488715869474586 9.82290399048385 8.871829034108869
Al 12.874797805228585 7.3882262388711615 9.695476704090074
Al 9.190198863196498 12.377047538363993 12.083164034050384
Al 9.988280149275417 10.129310042009976 15.568990443937041
Al 6.675740469567001 12.19949005059094 10.914644171546637
Al 9.939637956008424 12.773608358121635 15.361654831815356
Al 11.243940299201139 8.036169931084617 14.449791318696404
Al 12.44872298354044 6.312979836979375 12.293857274287044
Al 9.947858857169253 9.742330737135957 12.66644442641086
Al 10.364918125261022 7.82320532269779 10.531854141309228
Al 7.351960450840581 10.365854965095165 12.681864039292005
Al 8.655507772104585 9.953299469070883 10.14242654192032
Al 8.310030813671913 8.440105112026552 14.370643047074102
Al 9.684007557902387 6.618101021719947 12.911102323117744
Al 7.797874797181254 7.8631765469270585 11.584932452361418
