52
Energy = -166.33871011 eV
Al 16.416102420462195 13.515735383159425 11.385407138576987
Al 15.849326554951176 11.551785562146168 13.080200862604707
Al 15.863799822994746 11.200259091697196 9.72453902760068
Al 16.21449748019797 15.887219675208108 9.69466662929767
Al 14.322203029612451 13.834463919203861 13.331279665116034
Al 15.968598444721858 13.55302633549156 8.56807277124862
Al 15.313470619268886 9.390906421844244 11.57429234961503
Al 14.760853680964601 7.504436797400089 13.265663983999097
Al 15.57869673536823 9.581828750383567 15.015001108539092
Al 15.551749737537428 15.99350383631461 12.203351975666301
Al 14.393705258015277 12.058124721696977 15.460753145101021
Al 14.331203670588863 16.425047082924692 14.505298783812249
Al 13.924724692410896 14.455326322699749 10.577333788647493
Al 13.892232159227417 5.51506019362611 14.761005651288665
Al 12.842594029974718 8.325332362322081 11.358903761056398
Al 13.497442219280543 15.163060182936439 8.026491341594808
Al 13.574104695046193 11.737042465571367 11.410963937605798
Al 13.513101289622902 12.470255294660472 8.657649306748004
Al 12.489190681265455 10.265320212198757 16.279648130118257
Al 13.644942041635462 9.780897552241775 9.198812161888238
Al 11.670898930771255 15.872679441696102 9.919431274901962
Al 13.22639798318098 7.906945773142591 15.626564914092867
Al 12.866616716595699 16.482675948915254 12.212573819414702
Al 13.356627320878355 9.951941945484771 13.606164397031797
Al 11.734149159555058 13.95970682035001 12.16922487357719
Al 12.020909623733417 6.6720989800867905 13.397222537430702
Al 11.129013928907156 10.424755577597633 12.237416806001814
Al 13.028230583225751 14.42557032733923 15.688611821775453
Al 11.622584544484138 16.452609121205175 14.568438771938535
Al 10.127812001451716 16.16044359415643 12.398449992992974
Al 12.016679284791131 12.238880654843452 14.13189117775369
Al 10.74786955246994 8.868586291492619 14.534615787356879
Al 11.673562818867698 10.906486269030077 7.593549645236335
Al 11.165746798473082 12.104142165285115 10.134327525526126
Al 11.569863882718206 12.626355028832263 16.882571739697788
Al 9.645439722002546 11.244304415117776 15.329977465363894
Al 11.112376793445726 13.71676411115767 7.919868589907995
Al 10.950207599167491 9.340200442166049 9.744528632352312
Al 8.579156366209263 9.753906458910471 13.076258356356735
Al 9.50454199091256 12.513909190490857 12.737207541012248
Al 9.602200061120435 14.331144694608776 10.404589586343343
Al 10.240518615156514 14.224837185858195 14.820465654646217
Al 10.16837044752906 7.845541901205069 11.900521156508809
Al 7.8917362417643195 14.758839456287333 12.717456874128587
Al 9.645318275992695 11.951921933139456 6.106013311253498
Al 7.771544418137435 13.10511032049902 14.94207801086978
Al 8.588246007921814 12.774358837560152 8.464910944921948
Al 9.055087995825497 10.120983754912395 8.064839880119171
Al 8.61906554494466 11.03974568968381 10.622064531439204
Al 8.287604826687188 8.423845539764597 10.126978107580982
Al 7.107239092709087 13.325222414147941 10.577425969819341
Al 6.828608751092442 11.763618695176632 12.761189926393254
