39
Energy = -83.38681324 eV
Ag 15.139040112728903 15.810887701074025 12.496647873933675
Ag 15.619627635447005 12.975144062909214 12.60847599645498
Ag 14.856892959677136 14.106052370730428 10.187452944320581
Ag 12.489923145084223 15.0687407326642 9.070229020713692
Ag 17.608828999485993 11.67798927035351 14.332319804314055
Ag 14.739191754572058 11.245066917567662 10.555736552850405
Ag 16.677723660837724 14.31822228952465 14.771063155311221
Ag 13.971699155769947 12.457446133281538 8.16085749437785
Ag 15.59265372260695 10.163093311921672 12.994696620564358
Ag 16.102077698724052 9.406423080016687 15.554687756930619
Ag 12.44958599253897 14.052578785360485 6.478136796286198
Ag 13.515717932065007 8.867868543866415 11.681869767714133
Ag 13.92413582054814 14.474621804700577 14.617362846789835
Ag 14.53999235180288 7.59866696932727 14.00023707359861
Ag 12.67064316854853 9.88253894658909 9.201003417273284
Ag 11.989461037059835 12.420692257635839 10.239419312613627
Ag 11.676936833198862 11.409210739529975 7.020802327956173
Ag 15.039419946607874 12.028351887480184 15.297198596373219
Ag 10.250495129804404 13.511248551830507 8.209332617956806
Ag 13.026575169281895 11.70197440373615 12.887121098471061
Ag 9.94313074347743 10.659563539762086 9.062533818093565
Ag 11.710076679069296 8.027456785378464 13.709175254645919
Ag 12.700322014158042 14.601935370230294 11.935586064652453
Ag 12.299871127340001 12.427537249038933 15.642161982326845
Ag 13.312177450747024 9.846100005512001 15.05378868831425
Ag 10.140625297418971 14.854030444673107 10.675753808110594
Ag 12.753328454538831 16.809812015269575 13.76504992153359
Ag 10.93355777840889 9.913720407552745 11.63103339744481
Ag 10.454820077309705 12.66428166359906 12.530359281489911
Ag 10.614953497182663 10.504685859870817 14.52444176420642
Ag 11.555576521720951 15.122347608239425 15.873901729694836
Ag 10.348131742053095 15.415109659338983 13.429192296671557
Ag 8.399422232584064 12.748358421231059 10.15151839220622
Ag 8.962448055579648 8.603452265479 13.314616403609822
Ag 9.608930070331665 13.201979218270962 15.146859560613656
Ag 8.05932223122547 14.028393766554835 12.703795349309043
Ag 8.169723105098418 10.14229277824772 11.1639754002448
Ag 8.071914316585877 11.277239295276823 13.730791649826207
Ag 6.234369851524351 12.128208359117922 11.74413763494453
