11
Energy = -18.95767811 eV
Tl 13.031884612054288 8.305505284233716 10.812141517756165
Tl 14.107730676466335 11.307311360514412 11.530517441330042
Tl 10.087571188282059 7.222131793087966 9.921376439733717
Tl 10.870182845524461 10.128101898473675 12.21140968096459
Tl 11.353152261917101 10.37479533835276 8.946657246352169
Tl 8.577619418432244 9.408335059849303 7.656901206067553
Tl 11.752761033846662 12.8797529114821 13.615341272570548
Tl 8.662993559884606 12.792811313288455 12.205313782708776
Tl 11.545899495707287 13.023046744625736 10.343509146089756
Tl 8.658305281555208 12.491232488693237 8.916764342176679
Tl 8.22694487761017 9.751431466593749 10.945546828810098
