14
Energy = -26.06906041 eV
Tl 12.020194440745032 15.08316418406858 10.59589730739856
Tl 14.623381174574243 11.382371795410798 9.448673200997508
Tl 9.23465124089408 13.457808528596367 12.887468955868961
Tl 11.827694423687351 12.058990747520399 8.452373881970406
Tl 14.323367802556142 13.21211268637192 12.082157003671401
Tl 8.986729739169164 13.417152962942465 9.771057492440237
Tl 11.535975118318097 11.911623398119133 11.481472910650819
Tl 11.58486237745723 10.372068110184099 14.61340713651973
Tl 13.84232080666201 10.00147042859111 12.452703163894503
Tl 12.00824100996686 13.541137292446042 14.39206586109643
Tl 11.994449441271952 8.925447581998542 10.151657314764854
Tl 9.195929115725471 10.105002086025777 12.588091409053126
Tl 9.09602448884155 10.315186622360425 9.4793492499142
Tl 11.112307375077311 7.4038687280129345 12.824094452951185
