12
Energy = -21.62241399 eV
Tl 12.586081998420562 7.624644779245479 10.12935295689913
Tl 11.393404366753392 8.22893262394199 12.905656685837668
Tl 14.220398926455715 10.227000934143446 10.071201511097406
Tl 13.220247786060284 10.795133806007694 13.01395402071584
Tl 10.596909109484587 9.967317962993134 9.766306351636514
Tl 8.12291042461346 8.896353619441214 11.971890307816217
Tl 12.243790865282225 12.631667819042745 9.698594719300283
Tl 7.70171430712301 11.620752667515541 10.252210576029016
Tl 10.187759132006654 11.332595087360561 12.603571770312236
Tl 12.686965949994743 13.98052369869682 12.665723503498903
Tl 9.520026407078978 12.125991797548668 7.69041406691174
Tl 9.709669396760516 13.91256381385226 11.051554143352035
