15
Energy = -27.93099036 eV
Tl 8.28213369108009 10.749207869040053 8.740033199760411
Tl 10.445122457345066 9.340292530184117 6.411931653235076
Tl 12.795661211121095 9.492887655794487 8.788650994870789
Tl 12.44150795238484 7.299042402926503 11.425886724622849
Tl 11.117950376613722 13.39261302624262 11.353458586794897
Tl 9.88339173412672 8.522184570686763 13.216284166449677
Tl 13.972948583357928 12.310973752135123 10.05988398181665
Tl 10.642324404154186 10.345805084893321 10.87946500499506
Tl 10.985899898400898 12.209292375819299 8.296834651492555
Tl 7.32724649131876 8.620293496839356 11.329412890019597
Tl 13.234367601714478 10.403910213888878 12.491084783491841
Tl 8.097695439773128 11.782888323289662 11.913569246108091
Tl 8.373000057681333 14.122307093242059 9.564017611844083
Tl 9.795230427360359 7.81224070773039 9.304222890559773
Tl 10.622691849896801 11.613233073616634 14.242435790267763
