15
Energy = -27.79032489 eV
Tl 6.938487080330838 9.665644702869336 10.359399756226262
Tl 11.748183094075108 11.755318952485553 14.084074527422876
Tl 10.944642789927496 13.467192269977412 11.116030460237518
Tl 10.061601646861275 10.517293190701563 9.840233748914537
Tl 8.05026659342689 12.940334517443027 9.734137114304962
Tl 12.35971428834417 9.371570007509701 8.035036570047783
Tl 8.62558073770331 11.825665215072688 12.790722326685975
Tl 12.194510176909308 12.56916728270382 8.165589699433449
Tl 9.492217522042484 7.254259258975204 9.956207498328034
Tl 9.811851912611523 9.020364349018667 12.558009751873247
Tl 9.173119702656443 8.86508217489121 7.172695694369751
Tl 12.86790125435708 10.914898926409613 11.193263280415378
Tl 12.883904656532975 8.774228261328053 13.897128775861173
Tl 8.897726377837492 11.902262912103774 6.957648023258343
Tl 12.574412832475083 7.78083864460172 10.763943438712058
