10
Energy = -17.35571184 eV
Tl 11.661304393843844 12.438826836509543 11.59564259927062
Tl 11.667995867815295 8.926277242691192 11.690407008363628
Tl 11.126106062249915 10.852335251113383 8.85062805706073
Tl 11.021970430251121 7.458915437477091 9.17596231059077
Tl 9.360385713605325 10.760987517020851 12.937743998897488
Tl 10.150598905588968 8.732707127717246 6.508838357415276
Tl 8.403862043628045 8.224281000995878 11.457604808284383
Tl 8.343047117229778 11.184690885692667 9.812726340366623
Tl 7.777446202019221 7.907649965624835 8.561241261932121
Tl 7.768705255121492 10.794750726510731 6.690627249171775
