14
Energy = -25.70118216 eV
Tl 14.732509336156538 11.15876596796046 11.88889493490133
Tl 12.8673247190848 13.695513160271195 10.81561081303842
Tl 12.303798754161251 12.19122749808839 14.189027658780407
Tl 13.724357694393841 10.347803715189487 8.912348966608498
Tl 12.657952977831918 8.87132779098044 13.362555283778487
Tl 12.003115639176578 7.886609353497847 10.131972333233144
Tl 11.45548629134006 10.980416752455357 11.275850180952837
Tl 9.30587589606944 13.22775658436955 10.402566794072834
Tl 10.77117005606666 14.899707280460744 12.841912825756069
Tl 9.252505141854211 11.76440899043715 13.310728912677773
Tl 11.606559490701084 12.495668324703031 8.100739511971687
Tl 9.39417798659671 8.694874762688746 12.364069557179015
Tl 9.746342858244983 9.984491133689462 8.886377400029609
Tl 7.226003394122016 10.666677917594145 10.672400837163707
