14
Energy = -25.26497988 eV
Tl 12.502772572615504 15.156442458237835 11.882424080690756
Tl 14.488771262504502 12.917759207465132 10.081700500369775
Tl 12.756521748546811 12.243196648537609 12.93599454073331
Tl 10.812929794874236 13.103822347648471 10.260807284440327
Tl 9.487697448570348 13.921309675919387 13.25500161883516
Tl 15.121821859773727 10.301238437355083 12.32974298943962
Tl 10.542483652442645 11.248848785475557 14.767750533703735
Tl 12.268692779562006 11.565646639518597 8.087472862860425
Tl 12.611900091215373 9.808152511717696 10.54195733243368
Tl 12.342370242061248 8.703167903661553 13.760012194498387
Tl 9.58565738756853 10.4307780247461 12.007122601964122
Tl 7.769393336331934 12.493238294902191 10.53854169012747
Tl 9.457092221345341 10.044741397659804 8.661391156030966
Tl 10.474355767009747 7.6058344966952465 11.03554701637897
