5
Energy = -6.69502381 eV
Tl 11.856238405809462 10.639365274421081 8.033335658744114
Tl 11.501728071410401 10.248889422935802 12.425271753518524
Tl 9.574385513641987 8.290909288804178 10.850879529968996
Tl 9.68795849795626 11.449701341432572 10.167102519864969
Tl 7.600509982801466 9.591929277169104 8.726342620651094
