5
Energy = -6.889721 eV
Tl 11.552801993196884 12.542197041141927 9.66387790981876
Tl 11.215047440511604 9.704860370880231 8.21392886637868
Tl 9.552861949017307 10.716235505897854 10.916036112316643
Tl 9.392531751012093 7.788477456379299 9.3031111138506
Tl 7.787321459845298 8.549648326019126 11.953256529151172
