6
Energy = -8.91511703 eV
Tl 9.223804286333143 9.220919757018534 12.191890624836711
Tl 11.396939886357773 10.734617536261812 10.770871736525725
Tl 9.571820721211695 11.970124492225416 8.725216043801296
Tl 13.438452244830007 12.951574007346963 13.00874628370735
Tl 10.522171941855031 13.034152392780562 12.415835924698792
Tl 14.244718295693046 10.50918122074029 11.315295983079446
