6
Energy = -9.21294497 eV
Tl 12.919947261716729 10.314097107737203 12.38590119288676
Tl 11.492466866910732 12.983519356218974 12.010863741854198
Tl 9.396794592419463 11.576673239529482 10.459466571639947
Tl 8.095327927564787 10.535088107319016 8.00691046531889
Tl 9.502934415183486 7.847453859186999 8.407253002850577
Tl 10.773957596056949 8.964161261540612 10.842645134696435
