6
Energy = -9.45518362 eV
Tl 9.815462299832138 7.920206265937155 8.149487434099314
Tl 8.261441816187368 10.210116541992509 11.554068338790595
Tl 7.7208431542463085 10.304469151515391 8.590134246761467
Tl 10.801866492384796 10.963568304946936 8.020067523076714
Tl 10.389469349391648 7.863524830146609 11.108014449325932
Tl 11.339271681797191 10.927807518561448 10.991302333351102
