7
Energy = -11.27890719 eV
Tl 11.460077303533089 7.752343536538079 8.25966483575165
Tl 12.27574264948263 10.547303713902629 9.638991037513131
Tl 9.902772702812927 12.548095670054346 9.50039943845162
Tl 10.7460279319927 10.90428928830916 12.321387664499063
Tl 9.968185007548332 8.166707258193506 11.068097764938596
Tl 9.080168098993244 9.896256183211072 8.093541428008225
Tl 7.786389323474366 10.410528372405937 10.900359660332489
