7
Energy = -11.01956321 eV
Tl 10.456557207094779 12.344439576475596 8.2460129569582
Tl 12.335396684612693 12.942325771281833 10.659766682762443
Tl 8.205896521628441 9.936531434516038 7.772244887727444
Tl 10.312990688901802 10.136829759373223 10.237034678671712
Tl 11.930493336490466 10.622987901014103 12.698891738227378
Tl 8.20420116963992 7.836365571634895 10.067415709437238
Tl 9.92911794396762 7.979636614748669 12.646664986455477
