7
Energy = -11.60556921 eV
Tl 12.734470212565517 10.502830700759151 10.207250854855618
Tl 10.753176449115902 12.800544240866493 10.040723604270196
Tl 11.370930776350486 8.72078838816157 12.418966869409498
Tl 10.822860549614429 8.658576822664822 8.832118000644586
Tl 9.54297900719719 11.294215766246408 12.387970045266488
Tl 9.03283985073473 11.212079208257752 8.061081296114756
Tl 8.279836834399315 9.313251505926313 10.542263983666402
