7
Energy = -11.60474864 eV
Tl 9.374021518142364 10.032001141901707 10.110873093006923
Tl 9.478205370529118 10.322137507808227 13.246137814944197
Tl 12.044090788135616 9.0321928137051 11.02206302223389
Tl 12.89411688922588 11.524949547553872 12.712208560632456
Tl 13.395376190336824 11.550960349891684 9.542040238842812
Tl 10.430750652114792 13.164326861291356 12.29994478427825
Tl 10.554968619800276 12.708389636791203 9.292690229040195
