8
Energy = -13.46302854 eV
Tl 13.805779053999348 12.513244602148983 11.237018644456311
Tl 12.169007147337537 10.242086875240318 9.565117639108411
Tl 11.91016217179072 10.604689097496218 12.971570691525923
Tl 10.365376377002404 8.467598628750471 11.434956145696516
Tl 9.46906670213318 8.71899074361123 8.102487383571717
Tl 10.185767055693491 12.337155244900954 9.243480967066734
Tl 8.097757342374031 10.311942530391411 11.029858108093292
Tl 9.812695390528173 12.582454556165471 12.310514317796258
