8
Energy = -13.92481709 eV
Tl 11.352572508019232 8.393509465211107 10.248304854948488
Tl 8.193836579047288 8.294715829852759 10.754233122904433
Tl 12.417303361172127 10.446099859051877 8.037269200815905
Tl 9.254205589746542 10.37874461019387 8.56260128303244
Tl 9.521745188868747 12.44184770302293 10.629478631462858
Tl 8.446530333875792 10.383858244650153 12.833498656239104
Tl 12.683620936907742 12.535445765997276 10.114388517055794
Tl 11.612395100002784 10.459840059220246 12.315162400639213
