9
Energy = -15.00279104 eV
Tl 11.63385450344871 11.39267800460466 7.516361428790975
Tl 13.711725858806739 12.405540532716477 9.694781502814264
Tl 11.159749626675806 10.23468737135795 10.227933190526135
Tl 8.758570133688027 9.769293596669387 7.930836303303564
Tl 9.030349960330092 12.344596100314861 10.910110917065015
Tl 13.177494233134029 10.923344579436483 12.348864250981293
Tl 8.330931900892248 8.983508080823956 11.058195566308058
Tl 10.521226667758427 12.185258711457646 13.52587183914405
Tl 10.52708802599528 8.916340410137392 13.272476101927404
