9
Energy = -15.35104834 eV
Tl 13.282571072202757 13.402051410821024 10.404194700009008
Tl 10.625824591098434 14.381338365009317 11.48235433980849
Tl 12.977768109408045 10.655798628943463 11.89567692203421
Tl 11.87353044462328 13.223219216572472 14.206106542262251
Tl 9.130943558801228 12.041482309245945 10.228479060621362
Tl 10.172183993899644 10.800294355634657 12.879304921757909
Tl 11.650645323497772 11.173541495082493 8.830289937278174
Tl 9.485285163014316 8.659745086648437 10.546377047667125
Tl 12.460544288554487 8.23519416291283 9.685888821286003
