22
Energy = -44.38464980 eV
Ag 12.66247685863745 8.666755261308628 10.446624573349125
Ag 10.502841808495184 10.334576222297573 11.323077079881152
Ag 15.527074327537152 12.380000644659622 10.931245542894036
Ag 12.475223508872068 9.615283987753429 13.26761621640331
Ag 14.976547297429317 9.771456456304602 11.750228363156396
Ag 10.516234571280338 7.740107049802559 12.182780443635435
Ag 14.068316285857028 12.085870356799907 13.535105398177855
Ag 9.747566888000486 9.91349069482366 13.953482546294001
Ag 7.947582561291465 9.362985396380708 11.493696415132801
Ag 8.507267860595812 12.009042088947078 12.361137620234166
Ag 8.720686773332286 11.15940935881911 9.338072602197679
Ag 7.960493140500221 13.738225575222238 10.230122806922383
Ag 9.979196050051359 8.468767277112718 9.363563125809295
Ag 6.270417500355688 11.490547043189487 10.714784454033644
Ag 10.69013888002198 13.021241592493803 10.152475144400979
Ag 11.526941495356985 10.735176272645203 8.656051243806498
Ag 12.946381384183983 11.492658603778537 11.116967430058178
Ag 14.345323066425637 10.46608617649957 8.955522561812886
Ag 11.22385881732107 12.251384648996455 13.445407833832105
Ag 13.316564044625299 13.146282100389344 9.007435948238054
Ag 9.840629555831782 14.463742537477538 12.338673231660241
Ag 12.678454323997752 14.117127654298242 11.866146418069322
