27
Energy = -56.00978616 eV
Ag 7.28376267014389 12.2348970186455 14.694465461251735
Ag 9.380739500326845 13.110353537678487 13.01832278812537
Ag 11.471118519308282 13.932177591303534 11.306444799673208
Ag 13.955462768080475 14.379669925202977 12.376896314362584
Ag 9.902308859489294 11.56010856603084 15.301239224146201
Ag 12.125085787932928 12.554780100728014 13.76154236286781
Ag 12.423632512363712 10.625290890354234 15.822731260405318
Ag 6.909837511884673 12.238470273323626 11.891324887547844
Ag 13.71856350735316 13.963900525441465 9.516574771363327
Ag 8.993776335808949 13.103810532934048 10.180994051076846
Ag 13.654882491138503 11.871917906986246 11.347781186433465
Ag 8.523636925141478 10.317430283520183 13.118678520523268
Ag 10.862353003479024 11.192088212564487 11.376254167745826
Ag 13.131115447181697 9.922740656718346 13.260947060612569
Ag 11.341159819045293 12.763587238547137 8.696739317412886
Ag 10.67669280311753 9.010701088265856 14.266455021834545
Ag 13.36746164111194 13.22059572909159 6.789032266009309
Ag 8.264594357139153 10.420655832948544 10.211952653553446
Ag 13.721299871224804 11.178325974543393 8.586304185683174
Ag 9.022168211582704 11.614166192578523 7.727913381565079
Ag 9.943363924625986 8.55009387983257 11.497202926077362
Ag 12.977175526563258 9.304883636068363 10.539796280976079
Ag 12.206736466844081 7.355737634408744 12.502000589658083
Ag 10.611580639418714 9.619327066101903 8.86274653367509
Ag 11.663663801375797 10.92833702054403 6.581510561167247
Ag 11.588023597823403 7.0810726315259735 9.737404241374083
Ag 12.954731962091763 8.64503585428156 7.737184387532001
