39
Energy = -83.33810075 eV
Ag 15.877651571121948 14.03487813648427 12.978500638167557
Ag 14.556715922845969 13.547547526924475 15.399368127736015
Ag 15.658656578497734 11.403814931519333 14.113538962351447
Ag 13.419443867657005 15.292968748533207 13.410463361577893
Ag 16.904019016570018 9.563102301775295 12.379937700744547
Ag 10.711925683026829 16.215991766249573 13.944990705012493
Ag 11.875968028788426 13.874064172478452 15.197844935728666
Ag 15.642788981724472 11.851305416189009 11.260089028695075
Ag 12.938398959925932 11.097888205797917 15.17853697575216
Ag 14.241251070690115 9.216976377221215 13.239206186783049
Ag 14.052216461361871 14.288983742845328 10.865799639814522
Ag 13.18549553075145 12.18024921355611 12.647581119422226
Ag 11.93981894730771 16.176656825925274 11.1604019967553
Ag 15.607028026147592 7.271153197847688 11.603693421967792
Ag 10.570136931892506 12.078779148773846 16.765083227919312
Ag 15.720550342513343 9.457440637003685 9.819590503567634
Ag 13.095932999791225 10.02675703330161 10.694260319607784
Ag 9.12999151116531 13.974014074986798 14.965305495398296
Ag 9.577063561821626 17.608769010019962 11.813260109634255
Ag 10.33091540712406 11.58508264933481 14.117143315034243
Ag 14.128285134919635 7.208219491848361 9.21557554696728
Ag 10.890514083139571 13.93287663824969 12.44484604238552
Ag 8.130031563746838 15.45928447127972 12.77748070205038
Ag 13.619605054787968 9.6232075124969 7.883019279163277
Ag 11.474293705888524 9.295564410219745 13.165167883172447
Ag 13.922801403007218 12.141094362835393 9.068204912476874
Ag 10.702088638043373 11.426787369068398 11.274655564220728
Ag 11.619302417880721 13.690899872994228 9.617257020346436
Ag 9.374733713402453 15.253983425495294 10.255935475923101
Ag 12.75360466122198 7.335863959213404 11.633498664323863
Ag 8.190700562554786 12.644384270319836 12.610094903814513
Ag 11.467898647122784 8.275228156989593 9.108369743991465
Ag 11.30277932302813 11.096247968441512 8.483429306844844
Ag 8.682586884145678 9.858896692453374 12.511796416752917
Ag 8.990616517988771 12.621660888506774 9.336661593071613
Ag 6.874295037645695 14.08004959698184 10.658751585989913
Ag 9.98449963855409 7.666404547084676 11.382934714745396
Ag 9.112246105935107 9.694998321605249 9.622807226475349
Ag 6.969504748972534 11.174282169857829 10.621274888323997
