24
Energy = -48.73413154 eV
Ag 11.270378523108823 7.221014567256282 6.298453247478975
Ag 8.824836733547597 7.277871207717871 7.361592724138532
Ag 7.153176508937724 9.473053466258746 7.616552887681216
Ag 10.218679804473798 9.78601917926225 7.7518539305692045
Ag 11.145125199779754 7.508489506237369 9.192898682810942
Ag 12.948537347408868 8.989762451131819 7.380752028695688
Ag 6.03452555049084 9.780352381436476 10.247936168168328
Ag 8.543619064856877 8.566871441885324 9.81231944958446
Ag 8.078617333378533 11.3711196287895 9.419233802239257
Ag 10.294337795303317 8.26888780054072 11.856687261584542
Ag 7.623110363724474 8.951514567537515 12.441892915677045
Ag 12.742136147838321 7.123592231327533 11.806763769172248
Ag 12.68246690423166 11.51685568303108 8.462908943164742
Ag 7.184128336693447 11.707798012900728 12.119555524106715
Ag 10.747795096505474 10.809260519547738 10.457845527896513
Ag 10.175611229114908 12.672412004318895 8.229081221742836
Ag 13.147442444584755 9.241954102228863 10.143963435472447
Ag 12.314547134784164 9.86709210750694 12.81913462740536
Ag 9.293595427843282 13.236946872780909 11.072602422968753
Ag 9.617886844779612 10.687518889049015 13.232710303392002
Ag 13.498984294331787 11.773336334972177 11.156349738589418
Ag 11.4364307555552 12.742974777064351 12.804889845517264
Ag 11.86883692002987 13.762776912394633 10.118819801239018
Ag 8.814944323394439 13.255400358252341 13.80916443506844
