46
Energy = -99.37545617 eV
Ag 13.304908054291635 9.699334841947964 15.84404408313512
Ag 10.417932562155809 10.247380391537208 16.042471121747393
Ag 12.035102937051947 7.695871852057518 14.285877031515152
Ag 15.9371166137119 10.493950957210734 15.216434123799164
Ag 12.404781205837105 12.33281987450401 15.98831126363997
Ag 9.403612481990105 8.626672093455758 13.816381156554629
Ag 14.574627599046007 8.608298288931866 13.602718444086705
Ag 10.561506728234452 6.125764553685708 12.545457504124458
Ag 9.679949278747735 13.033748772648602 15.850216528917464
Ag 15.146227507992023 13.114714572579185 15.892521798017507
Ag 13.197445146304482 6.975165921618254 11.78356343153984
Ag 11.717977717476714 10.435997720289995 13.651236473490345
Ag 16.56492100320946 10.197224210047281 12.562707377136851
Ag 10.476730252611475 11.436053197489613 11.333945987534825
Ag 10.946103643258143 8.613890595717251 11.517932280264292
Ag 13.28464948753575 14.724325569198717 14.644559526784546
Ag 15.373995331147617 8.356420487464906 10.80074909926513
Ag 10.562914587771559 15.657097138871586 14.75517632498695
Ag 14.08521905806598 12.044747807056588 13.515636679586727
Ag 8.845315823786743 11.372014561654938 13.754523541487208
Ag 13.405961646509873 10.313186617949224 11.408725006080516
Ag 8.339081177949886 14.22726181379043 13.639061130238352
Ag 11.16174682193826 13.25225115190551 13.46924351516486
Ag 16.70020180584532 12.920892109967339 13.524770318620327
Ag 7.1678407883525255 15.344325836097381 11.333654190967557
Ag 12.712943456756804 13.159373231230008 11.130016365233693
Ag 14.81824817230761 14.658900764660387 12.297956247275257
Ag 17.371829579188567 10.14876599486546 9.941317955493377
Ag 15.616738893829734 12.252645310245226 10.910657455834036
Ag 12.739799729694909 8.539072160805848 9.340315570412606
Ag 8.252078333985727 9.784388982032999 11.418866283729335
Ag 12.073905362486643 15.794903289210593 12.326235418543034
Ag 9.878533271132325 14.262421855776736 11.146074652101454
Ag 9.345406521088846 16.7516978130136 12.478631796960233
Ag 9.998485309224586 9.615640764288067 9.109026052592615
Ag 7.637470129544006 12.548973070011668 11.450909197382854
Ag 12.11455912575174 11.344354446183008 8.867209664114322
Ag 14.813852541231977 10.473227184449232 8.855040413519257
Ag 16.179482748136575 14.756413666432579 9.82789813638271
Ag 9.249852134330835 12.375568820786816 9.030778697160235
Ag 8.211180565246716 17.641857232867007 10.101227901424739
Ag 13.497001635906273 15.734586721023941 9.88335806791599
Ag 11.403531132025655 14.195662484590189 8.730223512117938
Ag 10.836555988230783 16.73281851121197 9.889414656309118
Ag 14.150655452459866 13.246627257494929 8.67375864920337
Ag 8.634742508915298 15.150994118154143 8.830740122172555
