53
Energy = -116.88777979 eV
Ag 9.767234188411646 7.7394854779757125 8.340277330965709
Ag 8.890802982008482 9.781995329188529 6.606462260591129
Ag 7.377123847873691 9.201725215713392 9.15757887831293
Ag 11.643419084637273 9.703830651684363 7.056190319936667
Ag 12.2103415670097 7.058312636955594 11.82335260678526
Ag 12.16804736671542 8.69697008915927 9.634258545127993
Ag 9.608748769812482 8.314248111423247 11.170834627361055
Ag 14.216434694839762 9.982670637177472 8.331435487097853
Ag 14.552490894079014 8.637575123707306 11.612588141795634
Ag 13.101836575099982 7.85542958157709 14.33343630257756
Ag 9.862506032381006 10.416967975384939 9.20137921378693
Ag 10.300002984319022 12.349835703022125 6.953046132013091
Ag 7.652379450118239 11.914118487418184 7.864276695915166
Ag 10.381801395165049 7.490695291605204 13.822376301309104
Ag 6.635562421445182 11.678126479090883 10.479518698625826
Ag 13.105177891424045 12.004733085498241 6.5645909610936535
Ag 7.107116334705016 9.26949492123923 11.970144191459395
Ag 14.129734096046121 11.325615612731243 11.034912030750906
Ag 14.91563487008306 12.719417720544985 8.611776807094783
Ag 12.105180519001834 11.939831811596514 9.290448397462676
Ag 14.01673261459725 10.504575610344597 13.734407804178327
Ag 11.729311248244048 10.054256711205396 12.017312088103301
Ag 15.797275516277193 8.422550594197094 14.240007946967506
Ag 9.143732357609636 11.278829699899482 11.766815565392287
Ag 16.500423580236678 10.499639884739427 9.88075771416162
Ag 8.991575065400868 9.846914303487404 14.086366480533131
Ag 16.60428825654839 10.720344152143644 12.640853037180735
Ag 12.20905156644734 14.32776723911231 7.892239344013475
Ag 6.866959844391339 14.21462380976018 9.19883691168543
Ag 6.84501974268967 11.674454524509958 13.421436894313851
Ag 11.148906578250353 9.168792227096976 15.935777635268101
Ag 16.2649411410827 13.15395685149939 11.18768045443889
Ag 9.466678831140852 13.1979048170318 9.776526715462419
Ag 13.634885286643001 14.29794004860107 10.471931297811404
Ag 11.309685176599814 13.044518370170135 11.93313605233249
Ag 9.419015578394504 15.005641144547546 7.7696001148789415
Ag 13.874234671942943 9.723242562803545 16.38146645024142
Ag 16.284774645685403 10.9209679142098 15.468707857316
Ag 9.352827424374311 11.43600236538094 16.33285625343726
Ag 11.500027982865669 11.516987020290632 14.43014660111169
Ag 13.803788351754319 13.250913615258243 13.120235192422927
Ag 7.59412259829889 13.94905041971555 11.943564029822468
Ag 16.376027911630896 13.375936582619163 14.097208947695231
Ag 8.4940656947251 16.106705811040825 10.389784172608893
Ag 11.16468934817703 15.529893725738606 10.222014735570111
Ag 15.41969306461012 15.503405072830317 12.42889533144606
Ag 12.593215907277141 15.841673801759345 12.674815054121275
Ag 9.193308792357042 13.068140692611689 14.074556816082541
Ag 11.943490138677038 11.690046620898675 17.17829151206158
Ag 14.128120047644027 12.675445995347268 15.873856695908499
Ag 9.838278425633398 15.486297545362971 12.804028239469165
Ag 11.6693581072581 14.256073654668885 14.903621050395301
Ag 14.278730468304877 15.331213110402677 14.98508724470548
