5
Energy = -6.43757891 eV
Ag 9.351699486696976 8.784847223518936 10.652701081150525
Ag 11.11351106272962 6.860936843416442 10.925525245242884
Ag 8.64941542816394 9.91677621883691 8.227445848831717
Ag 7.6166791258462965 10.834093592057275 10.536230030320684
Ag 9.280799070617988 9.659134911024202 5.695156128744158
