34
Energy = -71.92241973 eV
Ag 14.709137914688675 12.784541525918115 14.083974515675418
Ag 9.772124916283092 12.508576904657426 14.401773144610766
Ag 12.408220147694047 11.454101999655617 14.969014377093652
Ag 12.156839519541082 13.970862521883772 13.734238143693277
Ag 9.526283960144154 14.946673456429032 13.152162008955788
Ag 10.060200947874616 10.066769170626879 15.630741530200167
Ag 14.02719690782417 10.461267101532536 12.760071810930107
Ag 8.630770902794767 10.190116811586504 13.190652357363723
Ag 8.521301577777747 12.675675531644915 11.839143168255466
Ag 8.693945593153012 15.135155630699902 10.503732247340263
Ag 13.78694894032975 13.003213168756853 11.482024199928654
Ag 11.339922002165952 11.481018993692834 12.254758960456048
Ag 11.883470086650657 8.903497667091852 13.868987870233726
Ag 11.288055265369922 14.31404993058863 11.106371125701337
Ag 10.29868822218276 11.72416198646375 9.669219906606756
Ag 9.27284210842627 7.756360434654328 14.371116990304817
Ag 10.489678067298769 14.415741060709129 8.430889250457213
Ag 13.236913779553378 14.593025940504745 9.186877825183004
Ag 11.032061744968928 6.6137537224355105 12.580519990956084
Ag 13.067738781404362 10.518971112047321 10.10901963096305
Ag 8.473539456160216 7.702520594994954 11.679639708673266
Ag 14.888216742465396 12.28925061393774 9.009799537351928
Ag 7.941303708492659 12.933012479644466 8.96944921556357
Ag 7.925086294857905 10.278193492032168 10.52382540276192
Ag 13.285002315691665 8.011881679318401 11.60864198495686
Ag 9.815420428591837 12.325452159972144 6.75588266792876
Ag 10.746518628055687 9.053816655449602 10.777610768011762
Ag 12.395554015599302 12.348673395512414 7.744265341003591
Ag 13.93218337007331 10.041812865890266 7.527512363539911
Ag 10.730431945976541 6.3604493461678 9.899222596513702
Ag 8.143153678825371 10.44148371629368 7.754880936885006
Ag 8.818968392913524 8.076884341519012 8.922406830557662
Ag 10.97521743985282 9.768600478097909 7.728249474964071
Ag 12.787457557924029 7.928155508001317 8.888446159297933
