45
Energy = -142.43994931 eV
Al 13.54678056154686 15.518642922615538 12.909041795626289
Al 15.903786814178183 14.397125686226165 12.379562208745668
Al 12.43471667354159 15.23683501549689 15.454541790610007
Al 16.098094782657366 12.519928894313725 10.442998473498237
Al 14.642363792636933 13.755030346530699 14.982577993777733
Al 13.740994973974335 13.752330722843649 10.792891185313549
Al 11.16002393436002 16.594905449725548 13.59876730756219
Al 14.941273805111479 11.959078193224313 12.859206100249379
Al 11.348181755989144 14.746869394640928 11.51233413520784
Al 12.44412483214079 12.999595929611598 13.455956174461425
Al 12.600885719132277 14.702798111311804 8.439847128377195
Al 14.121671878481132 12.34056423404192 8.451697323384677
Al 14.952345709855097 9.72278718742341 8.802219511214735
Al 13.771790627237666 11.211840808332205 15.236689740878306
Al 13.46284785929411 10.792890229600614 10.901341466167715
Al 10.091934870355988 14.163538499475571 14.410792756388835
Al 11.722137155075568 12.8680036753021 16.228086521593614
Al 16.088860237744175 9.964087816183657 11.148268076788888
Al 8.86196392994119 15.630141693278743 12.574031802960517
Al 14.790114084655393 9.318439107479428 13.30144944428081
Al 13.177808480133868 8.51110890178864 15.148356347503876
Al 11.56066157986857 12.480794291716995 9.829998269821159
Al 10.088775888879315 14.032795427166842 8.047518190256504
Al 11.455555606349414 10.270425788174592 16.382123379251972
Al 11.894916272946228 12.448840052149896 6.8850287789965385
Al 11.768577265221383 10.33355860756614 13.483790190127625
Al 8.951862422774854 13.983296813797553 10.49369895585145
Al 10.255087040914791 12.234659356797476 12.199276986602444
Al 7.862327145858183 13.0739491595711 13.139458576439978
Al 12.417174843100126 10.220535901564775 8.204543105877889
Al 9.531421607465116 11.657218539353705 14.862843811215663
Al 12.785089664101376 8.094611782162657 12.061702789517577
Al 9.634239080375584 10.961868772869412 8.606739935898933
Al 10.982432910939577 9.841897051945732 10.719654054732308
Al 10.881371778737368 7.718241198632478 13.808517853139186
Al 11.104681626400664 7.6020963768326535 16.60768758328081
Al 9.13905048315046 12.24623061693125 6.275735299822306
Al 12.80384278190089 7.897899707507967 9.390471326873248
Al 9.17366127037287 9.108948210548652 15.305467353138289
Al 7.633879085258909 12.733898271590036 8.496190421882268
Al 10.644715397621285 10.03735539300645 6.222739154406588
Al 7.801671459611555 11.483746897896264 10.943634832435823
Al 9.071260194773343 9.747653754778707 12.736084897335477
Al 10.409867567767053 8.326861059167099 8.315918996996745
Al 8.46107313480843 8.97197273606396 10.16641655874694
