45
Energy = -142.0695601 eV
Al 15.040904820445709 8.794765602563453 13.53175587704263
Al 13.215198121526079 8.799543025014852 11.438604667512706
Al 13.125686518276183 6.7905401554916 13.486066932462862
Al 13.457253918958942 8.100941367023438 15.994328794119726
Al 11.286175424314075 8.260901579044956 9.640134668446752
Al 14.437277025813296 11.337627161498974 13.130041933378365
Al 10.918184088856599 7.277357827177852 15.110722747844203
Al 13.741392613194021 10.773751031857268 15.71199706957255
Al 13.647374396741009 9.517668984259606 8.904139133864964
Al 13.176976974915647 11.713548376750081 10.64300749593563
Al 10.73040907582659 7.698868237237958 12.211434369814846
Al 9.077782206758439 11.45648487810056 15.801687742136684
Al 11.703678697378738 14.696417738841705 14.37700060045538
Al 8.375260947261639 11.556846528198294 13.151887163021383
Al 8.539735629707812 9.299718293207507 11.566126729039164
Al 9.369444928009237 9.255119142151637 14.15317653235971
Al 9.076500912544399 9.596587977865838 8.918490174789268
Al 13.679643707757362 13.785439934753922 12.589881867299955
Al 8.843383140815112 11.965667442330579 7.770586484698306
Al 11.188128829487269 9.925102813691804 16.24184867881829
Al 8.98097186351341 13.860263875637365 14.750376396577556
Al 10.99272765006027 10.548339548130263 11.763583962979876
Al 10.460225889398737 13.372022415860702 12.302009528713066
Al 11.45005731902973 9.062250540663094 7.045659267857851
Al 8.304522110454032 14.207685872409092 9.249802680371552
Al 8.870202868563894 11.863541178765361 10.509694480667362
Al 11.012319755896403 11.750500985580672 6.096885304665158
Al 10.36025830464251 14.27397886449437 7.338522275428748
Al 7.82581509780716 14.023325793879065 12.075155858616352
Al 12.256522440129379 9.362019499193934 13.82570618941314
Al 11.53409512847492 11.855850254757351 14.125870019145374
Al 13.56555518553555 10.84959619971459 6.581194904537147
Al 11.433118214050834 12.885308677591658 16.571564388522006
Al 11.358786027876135 11.110988771034535 8.806055684516386
Al 11.110824378048179 13.58478890788726 9.841229346130087
Al 9.680684155362057 16.13410877883347 10.485451955572405
Al 15.55857807141654 10.009480521896009 10.890873167254266
Al 9.635434932769801 15.896153786405675 13.131493792876874
Al 12.868716773725925 13.269675798109699 7.647491243233479
Al 12.043455209414821 15.93012041234263 8.837485128948503
Al 13.840714914459573 13.297924468917687 15.17890831160309
Al 15.709713533939636 12.759840695737774 11.051830768422285
Al 15.137529538375398 11.920504634594794 8.592939399512508
Al 13.91389608018902 14.330844922164106 9.89060089023535
Al 12.048098300019916 15.581739450982727 11.603868682874303
