45
Energy = -142.58763095 eV
Al 10.420188116460164 11.435597661068433 8.035543102435055
Al 10.131138039982023 10.222857704451688 10.638797284092243
Al 11.917668940562121 10.50342950498358 16.34038174918018
Al 8.16360153513588 10.079977857144572 8.585099790034123
Al 15.096523892840603 12.669238451560364 8.83817722166473
Al 15.157640231461807 13.801091991730068 11.294016372314612
Al 8.992950219563923 15.331209413406672 9.574372902201743
Al 10.761196762531194 11.142837428051005 13.495664304022831
Al 11.696942161952741 7.581472408493204 10.294570117622799
Al 14.91977381897588 10.099621789418068 8.147895459209376
Al 10.361963065785154 13.039795062547933 10.712606371602975
Al 8.318608055509005 12.966308101554512 8.548119731807658
Al 7.63968074966349 13.996295597789228 11.379671525170798
Al 12.647034661879932 10.767867604816297 9.454923835589936
Al 12.940566963828948 12.679349437473602 7.217882784001346
Al 13.294116153244463 7.081977715013699 12.39093551254779
Al 15.342984057571213 12.028935230717801 13.455615171418415
Al 11.45878534751424 16.241736052629175 9.760886612650744
Al 11.386000005016845 14.439791841528878 14.152291728138021
Al 12.548523521671665 8.654277782087865 14.437012651632745
Al 13.073407270643749 8.027974931395967 8.078787717357928
Al 15.104265186118948 9.17256762062367 12.975021704289592
Al 10.398796633745116 8.677770028208364 8.1655120930548
Al 8.137671398931865 8.98547366136281 13.252270004052148
Al 8.338021123738836 11.192856490566133 14.914881137338169
Al 7.0288170496483655 9.46832304774943 10.919714873586514
Al 14.46887110208175 10.327586910660813 15.356444537199478
Al 8.230863305861863 11.53699798140333 12.216101054973212
Al 10.829182055100148 14.169313547329455 7.983147143029999
Al 6.493663368088864 11.878933009133672 10.138242596084812
Al 9.923530629677208 15.439480478194204 12.132876963504996
Al 12.902006687449152 13.914280171952921 9.751918677693391
Al 12.644786167838184 15.533655109986366 12.010066662040607
Al 13.041318208393985 12.53131154503628 14.991398003312598
Al 8.665485965988779 13.717318359091546 13.878257964298033
Al 10.35065244558794 12.692185138014874 15.930073878058336
Al 15.074067092573333 11.037015265269297 10.949902583239176
Al 12.677229006088583 12.683985585305638 12.169371565877324
Al 14.41043809732849 8.518308790816203 10.343335884912067
Al 10.533067694024172 8.095779039071415 12.670510371264086
Al 8.971274432805346 7.69417671828947 10.372229767136965
Al 12.584051483428237 9.934266796149114 11.94690078837178
Al 12.362214956369103 10.129031640606255 6.7247883799100805
Al 9.966029397338069 9.00001043825117 15.242082171196294
Al 14.242232260978682 14.525558380043721 13.77952857185716
