45
Energy = -142.70011104 eV
Al 16.707566406769466 12.26725925712822 13.195440046575118
Al 15.477158665634112 11.935741756672808 15.473772651849995
Al 15.705126332578464 13.767054790882286 11.220067914134903
Al 14.440251297873042 11.310352702368611 17.88103072617883
Al 16.046756082949855 10.827541387008857 11.096061457066845
Al 14.575395932374287 14.036550277880826 13.742730502340827
Al 13.681216355557055 13.714748805525945 16.358666705766904
Al 15.233584498890353 12.439447092203709 8.964062742132311
Al 14.843475310988936 10.152111819297335 13.449156363771467
Al 13.583122458178837 9.665852138684867 15.766877253408218
Al 12.098786213283669 14.321704125920478 12.615421892377613
Al 13.622960216110185 12.078016167502005 11.776136600067188
Al 13.732357159157191 9.308998333881886 11.23563240965569
Al 12.821810818967998 11.982988347875738 14.303743977672445
Al 11.941223166071453 11.622325125686526 16.910087508927997
Al 12.751197303137351 8.287257598101816 13.585494651407696
Al 12.89859980804775 15.888793755757236 14.74925601624694
Al 13.281038447340412 14.049524759818341 9.934795852893874
Al 15.181851172952813 9.55637028897325 8.899916477417971
Al 11.107459495137489 13.942613829821413 15.525568141444106
Al 14.56759900812668 11.01833566336102 6.7535973779803395
Al 10.302751779964924 16.550685689697847 15.36980561965079
Al 12.904495400852149 13.026027661202626 7.388358409023104
Al 12.821071010666168 11.10380812137646 9.399386691956753
Al 9.495480812112177 11.758253265871078 16.091984903940567
Al 10.69687308559513 16.716337623277095 12.768772443840916
Al 10.345070487059656 12.40864685576239 13.33357187700486
Al 12.977240717816745 8.034579329148224 8.943021570089474
Al 10.964514515330809 9.98936979330583 14.65051735319507
Al 11.5875298719249 7.577820922149397 11.255098346010994
Al 11.224499447948107 10.326123273029323 11.878779990632752
Al 11.618727906410832 16.02080895682567 10.450533862512206
Al 8.954105278149608 14.769906796156649 13.799220615741888
Al 12.11004837338705 9.985826837261854 7.012189043834894
Al 7.693856884019641 12.50785526077671 14.41918770749539
Al 10.822792035658152 12.952834509066223 10.65951446743428
Al 10.899255680900625 14.571024211859772 8.300843136619099
Al 8.617781254159107 10.312433385432405 13.115519729043127
Al 10.635353343172158 9.328414154974766 9.24087012337743
Al 9.089497699147282 15.237621319199295 11.027615337104585
Al 9.053614467680783 8.454512963080669 11.1969046284428
Al 8.084881233926772 12.885590012029748 11.819801578451372
Al 10.44450950123764 11.808790866455752 8.09708157235986
Al 8.767929525756987 10.93563745403635 10.158879016553723
Al 8.48228194730779 13.456201123982593 9.077723116679032
