45
Energy = -142.94742295 eV
Al 14.971834101223827 8.77089603684601 8.967573679797349
Al 13.01089388563691 10.294199495021836 7.6163801277284735
Al 11.286304299903472 12.29665720046814 6.940178743287529
Al 15.573869388337913 11.310698807941058 8.591766553419978
Al 13.747794509504985 13.046796088764467 8.101213608463452
Al 11.951998036774025 14.945719184034147 7.523214248831581
Al 12.200708616377518 8.519888608795096 9.752483432822558
Al 10.6922935800944 10.638615989783657 9.072646115793408
Al 14.315608527051097 8.611194512944854 11.523295344979282
Al 16.17767273750589 10.552862903352171 11.206140465933942
Al 8.958750923861299 12.65697103806615 8.260713938981795
Al 13.265849819418627 10.995598527026626 10.249023841777301
Al 15.047988106516692 13.035268243966325 10.842366376453889
Al 11.272924662831958 13.245263132081332 9.646988205287835
Al 9.76616481473606 8.890497040664812 10.935183575623537
Al 13.788100080330683 7.549587190254864 13.896398178420318
Al 13.319912009086632 15.057542176798068 9.841425982562528
Al 11.946109427047904 9.331993891514864 12.53526341435921
Al 8.121344376746407 10.999144011295803 10.184169631754031
Al 13.981380776080822 11.195753909444063 12.806265015574219
Al 15.751284536075824 9.501734431915452 14.036102006164343
Al 9.38383264790924 15.229442814026982 8.92628910228527
Al 12.482802986264067 13.368971471718941 11.997596418033602
Al 14.625800363965128 15.575181920680533 12.039099846088835
Al 11.395353669525514 16.970524055899688 9.369068615474301
Al 7.33943885993817 9.295746754610057 12.099494433734877
Al 10.418068122086968 11.466615351410763 11.671930723828105
Al 8.459149374396983 13.650558610338944 10.935026471472154
Al 13.165451812945454 9.744121758972952 15.216217382012903
Al 11.28348920838022 7.861376896526419 14.799566600085726
Al 14.699384667114211 13.706783547043038 13.714933874388766
Al 9.477320715137626 9.607441041730448 13.70349292231634
Al 14.924437986071645 11.707358261067931 15.413295557812
Al 10.516781393062436 15.32324467507084 11.414498241534428
Al 7.8645549094320915 11.85473676757504 12.818616531681373
Al 11.67082959986287 11.715100661836546 14.125836163599367
Al 12.444769191441953 17.075895556791743 11.848805461794399
Al 9.903831431733403 13.656944071470162 13.342634927214235
Al 10.66455311862896 9.94603776330403 16.294713807018187
Al 8.998317664212228 11.899805800738076 15.310615844069444
Al 12.579433439694458 11.859226222774883 16.865249603593092
Al 13.685543736837607 14.229343191017197 16.188071700528397
Al 12.226646316213152 15.295914352950378 13.949316245791238
Al 10.96122332191153 13.744331036923798 15.856574376277056
Al 9.973047485214254 12.061264231664758 17.86311189847314
