36
Energy = -76.91274859 eV
Ag 11.009994596617343 10.96409854519086 15.149742808033299
Ag 10.045218588768527 8.301874821573827 15.014460896429528
Ag 12.148274659320084 13.645544084485188 14.819959424189918
Ag 8.373573489009335 10.40945297298466 14.206020208704206
Ag 9.410608897104302 13.139362431642647 14.138191215768686
Ag 14.164642684946594 14.039865747301759 12.678270395133222
Ag 15.020625228582626 9.603171657531652 14.055272339503606
Ag 12.273870395066924 8.907211820432666 13.453426220677406
Ag 13.196066085563919 11.529280169821604 13.43780355691967
Ag 11.065673013267771 6.489261874335194 13.082083813804568
Ag 10.523412080096948 11.222834825147949 12.311973910302555
Ag 11.35350582789181 14.122792229645741 12.242368572731367
Ag 8.748457111807202 13.485075705699897 11.369609943822036
Ag 9.370211152427473 8.513994305115894 12.295366872517192
Ag 7.778057867573612 10.605358985241415 11.377812893115205
Ag 6.807904737016777 12.488113813984983 13.187732167186383
Ag 15.599466787713284 11.698196259093535 11.995885351575371
Ag 14.185286497636545 9.401479128610807 11.44990262123512
Ag 12.747581233513168 12.132023953115421 10.696404879840168
Ag 13.207925641954207 15.266376954416963 10.362507478150592
Ag 11.594356582568476 9.181863769842499 10.58897841742524
Ag 6.2165273138354324 12.70643033925963 10.412130732989151
Ag 10.373000290906461 6.621476021834881 10.374921602470552
Ag 9.934211334235615 11.438816106032013 9.583335225128017
Ag 10.814068883319457 14.187076574387456 9.51896469312832
Ag 15.443228432679103 13.706092573805385 10.096828076005936
Ag 8.811799088630634 8.746720153387855 9.506490588581581
Ag 13.757601427876164 8.4365080088639 8.891276309796355
Ag 14.862656825614897 11.05814127425404 9.2305236117704
Ag 7.213148497514305 10.820981731365773 8.552444081140017
Ag 8.26896081310799 13.446463830929872 8.52730692587436
Ag 12.290601288723916 10.637145980027787 8.007006015929264
Ag 13.277735028373206 13.308655571201164 8.231670835706753
Ag 11.105381209054805 8.025292468079043 8.040811024470017
Ag 10.636151595520534 12.7473761291677 7.12594502281675
Ag 9.520020874800924 10.154713368276116 7.09824723650941
