17
Energy = -90.78452285 eV
Co 7.693249842073193 9.614831654564908 5.26788091474619
Co 9.905569286155588 8.943592767920032 5.565982153838902
Co 8.677817609892408 10.521959114733416 7.059974779367976
Co 10.193096083693572 6.765444404722026 6.546255095621633
Co 8.260696157692562 7.372989852140252 5.183295208051568
Co 6.33585543364378 10.545716976768318 6.927458194419839
Co 6.326113183519553 8.23583520276229 6.4792510440498905
Co 8.002289500967438 6.9023439483420885 7.355431655745859
Co 6.065673689626008 7.129315846502807 8.658250581116645
Co 7.332790706994842 9.143900237664734 8.381901686145913
Co 7.527615746663525 5.450649515315252 9.136188433981454
Co 9.620810307982683 6.592698383679597 8.981785382118563
Co 9.638701164695341 8.58247447586208 7.78252167255029
Co 6.749031380549561 8.315749311857152 10.492411778539102
Co 9.010419763536364 8.629036061836809 10.02096276212963
Co 8.206045179083402 6.6423506173595115 10.936013543495063
Co 5.966765031137862 6.123651695876097 10.73697518198826
