15
Energy = -79.84229741 eV
Co 11.551267007185766 8.238857139582343 9.477625447704535
Co 10.062860978509073 9.935108616219269 9.745825377642118
Co 9.349922839592237 7.90968880658403 10.723401488668108
Co 11.04380533941499 9.739813981785524 7.67007463216392
Co 10.226666901608745 6.248697241690379 9.512416692122812
Co 9.606648355201905 8.075075880591653 8.289583374753764
Co 9.382155891730648 8.897376410459962 6.0858097113005
Co 8.72631926825821 10.317104717816548 7.716640681629706
Co 7.394002053445525 10.05244928957477 5.873397831021059
Co 7.8526006015242515 6.766391026566363 9.260735790771234
Co 7.396943295427295 8.22800270150684 7.345935121623751
Co 7.731401556681735 9.15525430810987 9.55380517403577
Co 6.279590568348783 10.093262502437833 7.921499528736944
Co 6.95667111561297 7.6265401375852395 11.098206228395469
Co 5.787342245937293 8.06457525796952 9.073240937911033
