17
Energy = -91.02863005 eV
Co 8.10524881867504 8.355588241946846 5.2895610805842
Co 6.457505165358712 6.644226721234277 6.153141664246473
Co 9.533694468529113 9.377167679212704 6.986596528904204
Co 7.727634521879348 10.491717810250284 5.916839634650097
Co 8.10702788352653 7.6265052213391415 7.429925003476886
Co 6.189569928477651 8.8388801420639 6.485422761153824
Co 6.051241390070605 7.218451104980632 8.37258257696963
Co 7.5398800520628715 9.898851058488738 8.096422826876875
Co 9.236146983594644 8.744305881969035 9.341116863383954
Co 10.214287146695623 6.988289827124303 8.040361960292932
Co 8.112247107600986 6.613311810986541 9.555264225852753
Co 11.333030990446714 8.877979246773727 8.428775539663924
Co 8.755842025745977 7.886204128304766 11.416369077977821
Co 5.362180045076036 9.429430349986285 8.594126316969238
Co 6.971623803991267 8.553720882454979 10.041817847682614
Co 10.421867428865752 6.757448882038835 10.268051439171199
Co 11.020017012053854 8.836965783494621 10.722669424793313
