11
Energy = -55.87379241 eV
Co 10.598410848647681 7.113035174235752 9.155547092797821
Co 6.849138929663427 6.931905045887121 6.806341819171259
Co 8.728628123490829 6.497745632665252 8.090786551708199
Co 8.693755470256972 8.22076890067569 6.403225293094902
Co 9.634969905289866 10.178549147070177 6.983740052691573
Co 8.768067661151724 7.357936101753266 10.432551705699225
Co 6.893913225851471 7.5230889972006185 9.03586060322295
Co 6.9435164877010775 9.178671417310843 7.493858095180363
Co 9.06618538956889 8.740460610281598 8.62186622474287
Co 8.01936482801184 10.80514935990167 8.45224870816159
Co 7.5500392724051055 9.28403668480858 10.295548389436126
