16
Energy = -85.1947743 eV
Co 12.396967528386446 9.874724395024169 11.69775007705676
Co 10.273714710345416 10.02023320272729 10.963068485276118
Co 8.872117646475239 11.784773140469412 10.261292523474578
Co 11.39541892828933 7.9381250734625235 11.255477791587378
Co 9.039891124255458 7.915338485875978 11.199891042783364
Co 6.550776509991536 11.281607873834842 9.877786991754752
Co 12.005761012723609 9.453917842544119 9.457395374358125
Co 8.099578175018127 9.633468178384765 9.970385503154974
Co 7.8716471220696995 11.369513533773134 8.105628676807815
Co 7.839703518934047 7.55831409010999 8.977238211273647
Co 11.05265707793072 8.906644393194071 7.286219877676516
Co 6.4520989928298125 9.408436821569317 8.398950429351355
Co 10.101341614031279 10.576460894280169 8.67501494147228
Co 8.596842823877287 9.190571889027215 7.508507132687851
Co 10.145537620240518 8.093415435886126 9.223528754679949
Co 9.465946442716307 7.128689631770033 7.2535896246258655
