14
Energy = -73.82486751 eV
Co 9.077395202317685 9.105320885516052 7.955665763417421
Co 11.468340658811245 9.144498452851922 8.012352685683172
Co 6.690473638467781 9.143719811191799 8.099460877462326
Co 10.307352425131254 11.15474132792808 8.049889330318905
Co 7.851734155250462 11.155580275706102 8.094311937777633
Co 10.240659460590242 7.016311073773235 8.015985265377628
Co 7.919034423634525 7.016213668464261 8.058850582329695
Co 9.108755800847609 10.535913533506706 9.901799555454703
Co 11.45409708303932 10.442837076030207 9.889713520352716
Co 6.764798353271795 10.445370048900546 9.975198599231586
Co 10.3560740333304 8.364897635498895 9.85966565335377
Co 7.857219822019848 8.36282293511013 9.907808783517412
Co 9.109343269055596 6.3708972456021975 9.891744536187586
Co 9.13653775577081 9.082692029919858 11.629368991074019
