15
Energy = -79.41557586 eV
Co 8.744046110795122 11.812016312782692 13.082518299977389
Co 9.79976874249026 9.816065668381299 12.431370071824299
Co 10.807155265468785 11.972834626948918 12.301800088378801
Co 8.855860656081715 11.51242336605429 10.879509208821071
Co 12.211480469644357 10.093353553407146 12.203798574088701
Co 10.0543959017415 13.522280300148621 10.86532613868716
Co 9.209467434376291 8.597542028906709 10.541146047218044
Co 11.382249170169636 8.18467849052303 11.191321760381756
Co 10.190501794828798 12.198058905243125 9.016882882651434
Co 12.952372818608408 9.440365584044311 9.987045149384606
Co 9.135360867633018 10.1395791328129 8.781847078688767
Co 10.960322153574037 8.62074459941996 8.846213905399926
Co 12.066051437299013 12.26818495709422 10.365362295159509
Co 10.83738710810768 10.336542368893719 10.364627307724835
Co 11.955792782239692 10.727050470362805 8.37967629146208
