12
Energy = -61.97876801 eV
Co 12.105006597629535 8.505412598542911 11.652722313728983
Co 9.801284366762298 8.238943641502308 11.654139825324329
Co 11.918305959638502 8.690048647795901 9.344084274133543
Co 9.705635822366913 8.11070036174008 9.364183843217942
Co 9.307191424860287 11.845250053649584 9.738949041427556
Co 11.234401256820817 6.80970924657296 10.519693921146153
Co 10.19813814601048 10.180506211592029 8.439628779994756
Co 10.732976371034605 10.104564476727491 10.694662664308613
Co 8.056848627182296 9.427752760901244 8.122822091497309
Co 8.600532202851534 11.603634168794885 7.543608737312642
Co 7.130873577282698 11.277369718040262 9.176347566022466
Co 8.468246827052422 9.800032350867399 10.343782199803126
