10
Energy = -50.79095948 eV
Co 10.322407731311898 7.811887595048995 9.82742250039927
Co 9.633622132535903 10.295910786132207 9.651269333418632
Co 11.555480984945769 11.576534400754767 10.012903308368955
Co 9.958435219412133 11.25572398985993 11.76015157356945
Co 9.48408747094554 12.618068354776407 9.948569640996624
Co 11.394759387278881 9.531698441730153 11.123671942514797
Co 9.193803596909172 8.951084672019753 11.415207088772894
Co 12.20482414496603 11.464747402230836 12.217433063291132
Co 11.035891161211655 13.309704419963142 11.489748789381345
Co 11.553476294453498 9.419716789773107 8.837199591791236
