18
Energy = -97.2419855 eV
Co 6.685666685446808 7.145262152832639 4.759845468326714
Co 6.714784348485691 9.473047124863045 5.176810100292181
Co 8.525276474815946 8.107653975238993 5.7740174750508455
Co 4.905837504439526 8.25413472036522 5.852772838259811
Co 8.19081971004147 5.710745023507483 6.024163672063418
Co 5.283075338525557 10.302279490359293 6.873513862917987
Co 10.18276411271737 6.936375544414842 6.8637337715845135
Co 7.41607715490938 9.533061442137395 7.362019491400214
Co 5.923528542695236 6.376347453563573 6.800005535122955
Co 7.87514236360108 7.16685688607948 7.7879472213798495
Co 9.509041275590853 8.926244855510728 8.049037318155872
Co 9.369886199669887 5.13464264378258 8.051744401245582
Co 7.124699628133356 4.943276053671032 8.216362665196007
Co 5.606506859174538 8.386926499400717 8.05917763063848
Co 9.63102297559308 7.049043511715459 9.313321016755102
Co 7.596060282122904 8.311701577560205 9.728563039292114
Co 5.893078658147809 6.6066133262046085 9.392459803379861
Co 7.8695582737966125 5.938614106700396 10.21733107684603
