18
Energy = -98.02621036 eV
Co 11.654838804309387 9.730688144850225 9.159696073701198
Co 11.383030119390014 7.639691808348103 9.985746548228482
Co 10.448131995782513 9.253474240067604 11.347894192805043
Co 10.722656628160372 7.99253372386264 7.573931728137235
Co 9.286138172975608 8.915956828926278 6.005054031125545
Co 10.200054121518926 10.361615901510408 7.511131624065021
Co 8.785338808725436 12.047170983343815 7.853263293129879
Co 9.559195858626726 6.445896742317704 9.293101920786205
Co 9.385807391604724 8.887695605311475 9.270202825883697
Co 8.417355658574323 7.4691087303770045 7.592486457908437
Co 9.739036328398301 11.146270360865396 9.814445276094267
Co 8.603567348704118 7.625321372627436 11.078805113979717
Co 8.3431435788732 10.087861152408243 11.36810589484106
Co 7.055159956630404 8.855543106213815 9.848553078574879
Co 6.245029448383621 8.167547660640963 7.814660253475929
Co 7.831112367526519 9.84234426340902 7.703917478013159
Co 7.403193025013721 11.200248545167256 9.519500298818341
Co 7.2047486704639025 6.611100704449682 9.403661696073051
