13
Energy = -67.76044586 eV
Co 9.973716 11.54950171156063 11.668053450543105
Co 11.12281103825749 11.111930333280295 9.63757795828687
Co 11.550945014421327 9.973716 11.743735982887243
Co 7.9341738242559146 9.973716 7.813153762174649
Co 8.396486985578672 9.973716 11.743735982887243
Co 8.824620961742509 8.835501666719704 9.63757795828687
Co 9.973716 8.874418063021281 7.617970238735272
Co 12.013258175744085 9.973716 7.813153762174649
Co 9.973716 8.397930288439367 11.668053450543105
Co 11.12281103825749 8.835501666719704 9.63757795828687
Co 8.824620961742509 11.111930333280295 9.63757795828687
Co 9.973716 11.073013936978718 7.617970238735272
Co 9.973716 9.973716 13.42216914650004
