19
Energy = -102.90035521 eV
Co 11.90022615710809 11.529814612515928 9.486733828796872
Co 9.956179295574495 11.143422073873982 8.049581088542093
Co 9.9542571916371 12.753220731041601 9.80642027315675
Co 11.488786357915119 9.292989567144774 9.01734196629997
Co 9.971974025291365 10.720254007018744 10.869877922937246
Co 10.171249289118327 8.892785126363432 7.1128620418848705
Co 6.801488875423384 9.069603950893567 9.215858152165744
Co 10.17413272051086 7.146413511696207 8.815694818454913
Co 7.828769353144912 10.250530427931158 7.445349147520878
Co 12.113862318414958 9.921074444432552 11.20413989889426
Co 6.406608428948309 6.731671532481475 8.962946133800319
Co 8.381478396859201 5.644052619421183 8.506045230161774
Co 9.129330588993527 9.277599328904198 9.140435569757141
Co 8.131861601421924 7.751656201853651 7.714830413891712
Co 11.523298578368703 12.239266646631041 11.563311343587468
Co 10.404241469790774 8.35243452457209 10.879875201619829
Co 8.199758648532363 7.336020190987933 10.163462680090918
Co 8.090321921142964 11.332211966311297 9.456928654246996
Co 8.071459857734055 9.41854322858886 11.24296980186211
