14
Energy = -73.70350001 eV
Co 10.141963028652444 13.123734645611416 8.28587296154683
Co 11.022440761268967 10.83175208952212 10.954672602188172
Co 11.575456003445904 10.245627711530965 7.834176534035542
Co 7.758172282258003 8.931428243255203 12.060283964171768
Co 9.783151624265587 12.785151471351028 10.47502999437867
Co 9.699594341015171 10.94680282962083 9.00082617691894
Co 8.484600990577874 9.073833657169718 9.853595119013589
Co 10.80852846458281 8.901468540062968 9.591040997456702
Co 9.694495104655628 7.84080128420446 11.343144884945403
Co 11.85328279961475 12.092696693390618 9.12614038478612
Co 8.612984120580197 10.909839865405358 11.161397622959807
Co 12.801477791943698 10.027896514624786 9.76963009284793
Co 11.842618059711684 8.732005252437947 11.654660548100168
Co 9.880016700051403 9.676248470069005 12.604559045350971
