12
Energy = -61.93240069 eV
Co 8.653073901281502 7.40106349866614 9.45930558239617
Co 10.410392752854765 9.95120136660897 10.60671145608051
Co 7.18466129243929 8.28372358088225 7.913257017740251
Co 9.14348757077217 7.432489017433104 7.12713104113318
Co 8.980335818087754 9.700309482625556 7.061886419525923
Co 10.41505827823611 8.785045081964642 8.625977908585211
Co 10.066692061235743 11.110935170222268 8.539120439463304
Co 7.566193371756498 8.586137643793519 5.726020768086833
Co 10.630760809286178 7.683735686859371 10.681283842446208
Co 8.429628185415977 9.74668787310064 9.445911726406816
Co 6.655696145707191 8.433547314999878 10.157182297006125
Co 8.675906759257671 8.594520559819026 11.423757722416651
