13
Energy = -67.71910989 eV
Co 9.74985310981942 10.321800896770386 7.8848625404630965
Co 10.405716270662898 8.32544274444679 7.112676537058504
Co 8.864205813499847 12.15310359949555 8.921036022883072
Co 7.844304560565688 10.134495910606338 9.223103947888562
Co 8.09657991186296 8.707256964382186 7.347537194264424
Co 11.51075405976962 9.369121890733854 9.116469359720897
Co 9.978943016198091 10.759886143738397 10.30553955773743
Co 9.444085140806523 8.297757705086154 9.20211714869449
Co 12.08691825443358 10.52925967185647 11.165515500754791
Co 7.17084881698076 8.005777373251938 9.392929300976576
Co 10.848489819048872 8.67531191369545 11.253152512351026
Co 8.54298197130642 9.082825495590837 11.204402790213365
Co 10.123157708830906 10.333858204887296 12.55266609424636
