16
Energy = -84.85668712 eV
Co 11.706042282089681 10.620523421890605 13.190763143973262
Co 10.956958917545863 8.929408104106262 9.68724733712372
Co 8.702724605821626 8.932006543495628 8.726518647756242
Co 11.357365785526413 8.745272945304102 12.031995479382825
Co 7.403544782493927 10.808823707806157 8.973825807558251
Co 7.029652750062961 9.10063054810659 10.414800383618536
Co 9.729602325973335 11.04388121159632 9.047789313498933
Co 10.680950552513682 6.957708544761872 10.867702441265772
Co 8.537161395834335 10.80336621310276 11.047175574842178
Co 8.733072956940521 10.571749646932233 6.997971322468398
Co 12.071772390633933 10.882647078174298 8.989068437887502
Co 10.947224570409498 10.843195302926125 11.062870029909703
Co 9.543363089232269 9.94415899731545 12.95685662077677
Co 10.808944239197478 11.668247804917332 7.1423943740956854
Co 10.754741530885724 9.450977124599087 7.459707975775884
Co 9.095926633685481 8.537279826536146 11.10498860718912
