16
Energy = -120.32438882 eV
Co 8.023173615748277 10.37848667960326 11.545663175606103
Co 11.50945408689019 8.267883951483379 9.808463960760646
Co 9.336163683673961 8.110872771297444 10.779383755105707
Co 10.008876735639802 10.699868643610959 10.239039795159629
Co 8.349045516471442 6.093298410842162 9.737292902795694
Co 7.056366986547527 8.513340413068965 10.22911952183901
Co 7.2770673582215615 11.192942375833027 9.492122075033192
Co 11.438652857762857 9.860420716202459 8.252384428727632
Co 6.330853903180717 6.691542474736107 8.722335011638172
Co 10.162383232684002 6.686859920789777 8.367596769751545
Co 9.213726069328565 8.880294401508593 8.46267077446161
Co 9.040503680640388 11.209491810939017 7.933634587801647
Co 6.851051872434993 9.263421438381151 7.989854684460467
Co 8.014047589455668 6.987211318184779 7.027755997092287
Co 8.197056291295718 9.70205594260253 6.074417899651732
Co 10.007243175127236 8.413010478045116 6.199939154058242
