12
Energy = -61.99877462 eV
Co 6.4069778731976825 7.287328177615674 8.449526648736107
Co 8.431536230768705 6.339408800269288 7.190019413198981
Co 6.760010739107056 7.39780665737578 6.201678947463502
Co 9.250279375163041 8.057914946967237 5.945096122145004
Co 9.994476491687719 9.44488884481453 7.6984138975825
Co 8.29489646593884 9.912115738046866 9.56607241671465
Co 7.024028008851464 8.34358086337881 10.583118347347966
Co 10.284662139254422 8.937229008114238 9.846616818081728
Co 7.768552058401976 8.996260329191218 7.467367099714315
Co 6.029346746300379 9.467067362946892 8.926189270759119
Co 10.489603308411043 7.242642224531948 7.774054781234201
Co 8.624624968483293 7.55619900193027 9.123959932215076
