11
Energy = -56.31995636 eV
Co 9.975244874664943 10.46628976955658 9.918007786693165
Co 10.34398863742744 8.122462435830306 10.21775613022331
Co 7.10842438629667 7.378627681548289 9.209746242447212
Co 7.76868913441037 9.324541490146329 8.157555532050855
Co 9.22833439282534 7.532311280685975 8.329643618412062
Co 9.323612890602465 10.94962787297737 7.748659040355619
Co 10.811198742452648 9.223049241474996 8.148469609944458
Co 8.727887527315195 6.586519019402297 10.525346828588992
Co 7.848602906721349 11.148171798706189 9.560846612953094
Co 8.250579921563082 8.985231630299543 10.396528488365616
Co 9.304820496259685 8.974551689911063 6.4788239310439915
