18
Energy = -97.2951347 eV
Co 5.871802584914788 8.402199449532864 9.215308452153554
Co 6.769162892785684 10.680760204521755 10.133617469313497
Co 8.764441587818325 10.228197697465362 11.584979818471927
Co 7.3765605133636 6.5501950490092415 10.225552824745414
Co 8.986914678601982 10.812718410460558 9.30982464993714
Co 9.168047626816673 7.726059217199103 11.701080513527675
Co 7.8890705531583984 8.739401104245117 10.17125736800502
Co 7.64311661008905 7.429243331036742 8.019644018253379
Co 7.338621551655869 9.767897996700317 7.992744753788362
Co 9.498206600155452 7.035286480924018 9.39549157789687
Co 10.350276634283777 9.084296519006857 10.203682284010911
Co 9.764534080668264 9.005834872868348 7.805599681580932
Co 8.234472372871219 8.55848722987225 6.040630016930353
Co 8.768207934115397 10.787909861985108 6.5934218416421535
Co 9.535408683557923 6.867510448580197 6.850748968225079
Co 10.640208825334708 11.233043689489058 7.894764396882362
Co 11.39768522448924 7.369091396325194 8.254489558200603
Co 11.918958912973014 9.560756549018413 8.722769248668422
