10
Energy = -46.66452431 eV
Co 15.536195773757601 12.505441975796755 13.48393578488432
Co 13.260103786083139 11.988681285042151 13.707003629914185
Co 14.46663753313573 11.205077362642317 11.93716916739897
Co 16.0859158736779 14.214615611918907 12.063254176378832
Co 5.537289419830164 12.557613265892977 12.9078745604754
Co 16.505472796961794 12.07881691125481 11.411665128610839
Co 13.90793367171829 13.971297936109027 12.802248527688963
Co 14.503458515012502 13.13694291621009 10.777405474495552
Co 12.496088158367769 12.479887728087713 11.633629519900309
Co 4.620267590250506 10.810652557806 13.048478331907532
