17
Energy = -91.29262494 eV
Co 9.60433260636065 8.601145553664068 6.61067898462486
Co 9.542649230895394 6.54509561234719 7.679982460368549
Co 7.437607130579875 7.818663293981673 7.236979726189839
Co 8.547099726675219 6.673041621398569 5.5665028536083145
Co 6.054581026454341 6.641058096155596 5.914970544287834
Co 7.977809147898467 10.125910501703947 7.558670655836732
Co 9.108370679383528 8.488997251819645 8.944716741967062
Co 5.300387268350302 8.392129232907463 7.688869866179935
Co 7.543969191441598 5.390049706771334 7.237429878591389
Co 5.476604445182553 6.14167894604652 8.08364974929421
Co 11.284910603964915 8.227043305866147 8.188323678485041
Co 5.211349411750324 7.531259886288616 9.848530995822692
Co 8.595061767411472 10.641261629725761 9.714078839420367
Co 10.275967235120946 10.39902114737843 7.99827620899619
Co 6.85493522380474 9.019721140482538 9.33716965844424
Co 10.713652609893238 9.577419471536384 10.054500947615317
Co 7.3913487234086634 6.707139630502499 9.257304238843648
