14
Energy = -73.42057681 eV
Co 10.68296718884724 10.380985516560767 7.761551789463924
Co 10.32884155204549 9.094598760506667 5.899682668702842
Co 10.457503386288955 8.074655564120022 7.95141023541222
Co 11.021101725056285 11.706967671405986 9.640689544056679
Co 8.90083437913475 10.771186795665264 9.219258787414336
Co 10.886055816030119 9.358487902676554 9.854260745383433
Co 8.610774656316112 9.377188665448683 7.376852580873113
Co 9.79246415482346 10.756707679827533 11.372363475916544
Co 10.574202261287368 7.021269849181667 10.01873679780338
Co 8.65647914020424 8.25502990004001 9.422948552957514
Co 6.836464533477542 9.674292331874947 8.830191970167261
Co 9.575421068491517 8.448243443048895 11.559676459509056
Co 8.567912158387946 9.839702233057153 13.080176724337766
Co 7.731429763109853 9.744426216973244 10.96002233377221
