13
Energy = -66.59067894 eV
Co 7.881018416031909 8.330370063324851 6.745494040509751
Co 8.206917632903057 8.34134042960358 9.074234533956245
Co 8.52027670960645 8.325428601584711 11.4385444994437
Co 9.94012821592645 8.296377813340689 7.536804273600972
Co 10.324676096973795 8.293042717594814 9.966196617525922
Co 10.596384504509968 8.337002599307432 12.23001080652321
Co 7.8672565524625275 10.510793924378998 6.7499791990101325
Co 8.194551045498175 10.49490481727048 9.078997496602693
Co 8.507009249319601 10.508640734853119 11.443144902005645
Co 9.926098877351922 10.568995622521188 7.5419477778927515
Co 10.311801031570427 10.566690986090345 9.971112156013898
Co 10.582804501413847 10.520099653025406 12.234352471932377
Co 11.676178099484495 9.441412903208821 8.524282358878676
