13
Energy = -67.25320247 eV
Co 11.044909346648911 8.351062483461764 8.091883436929887
Co 12.700125030854105 9.478278443124678 9.031131311338324
Co 9.02476315989064 9.416636268017564 8.602245609570849
Co 8.954730389708816 7.440150470993209 7.4122374821012125
Co 8.778131823738502 11.6926817254878 8.308635076168885
Co 10.945074654036517 10.752566147084547 8.597201293465336
Co 7.242549270730997 7.998106625347363 9.05034890557913
Co 9.444626931674275 7.2102813068799785 9.580749521053853
Co 10.666860943989374 9.132878857565391 10.272520037537863
Co 9.28375652866867 11.067666497713295 10.392681719807134
Co 8.361529470685946 8.90905851613917 10.882365451249202
Co 6.008066959819811 8.846914426877866 10.704367550233421
Co 7.142770601720236 10.385881541656763 9.552705161201391
