13
Energy = -67.23383967 eV
Co 8.821845835156058 7.669741397023216 10.725132822907458
Co 8.716850107696278 6.463873593552768 8.672746003800382
Co 7.6353664720857894 9.771700805792584 10.599608101975182
Co 7.432485930972828 7.8991141895911845 7.060036768703443
Co 6.8980693362639816 9.870289911242242 8.292892819545992
Co 10.762342966109374 7.57716940724659 9.269783496149245
Co 9.81636425529234 7.82128241346066 7.053123696346183
Co 10.09258339186258 9.651922793185166 10.401007091072517
Co 8.689926976402187 9.909496081985278 6.703278122574446
Co 8.867832416504639 11.060249606078967 8.90325458905124
Co 10.732454508494115 9.758956826639357 8.099313678194456
Co 6.793178727762011 7.811199642934605 9.48854775337242
Co 8.77749013422507 8.776584303311553 8.774859454827643
