14
Energy = -74.0023843 eV
Co 7.770030933388878 5.964150364065986 8.699737653616815
Co 5.802831534317763 7.249396391231159 8.92764023142419
Co 7.436297300571295 7.705990582975416 10.311958608226307
Co 9.629810159511823 7.337953956458832 9.264693004503162
Co 7.709934120441232 8.137775216544352 7.963668040739104
Co 9.404479302700759 6.676743871622234 7.121586781708011
Co 8.808489342890622 9.582792981734702 9.621040441822615
Co 11.476042417294847 7.44110365339795 7.887649565333842
Co 6.520984740669546 9.625623802686038 9.27644321887585
Co 11.162884405126816 9.255661222176352 9.333971057415342
Co 9.890221716039314 9.062688377696034 7.485285390621885
Co 7.92401125459241 10.528793636364798 7.5990367032683475
Co 10.030261598190357 11.194690452954893 8.543365663585146
Co 7.908569804654646 11.711484120481124 9.438772269248375
