10
Energy = -50.79161104 eV
Co 12.568763989410721 8.969024576051263 10.989291029745777
Co 10.507928712131218 8.423258576618752 11.716720081203693
Co 12.151967067665524 10.606890556197415 9.500429704655625
Co 10.718953422491158 8.811028649726294 9.464146475912946
Co 10.54598625186847 10.592405172527446 11.090392073962821
Co 8.662718706094104 9.388835484672171 10.404216914521108
Co 8.752014992594015 8.946493627130545 8.151992457373197
Co 9.785787572640603 10.867446922942328 8.895103323537654
Co 8.527478608267945 11.692327503976864 10.661321303154804
Co 7.4595931490883 10.699009100196118 8.892244391626893
