10
Energy = -50.57532999 eV
Co 9.349644655715387 6.104741101371918 8.457764078504365
Co 10.521422114878051 7.65501298027756 9.773191098443453
Co 7.328944405630156 7.075602960615119 7.762366969761498
Co 10.03780713375094 10.502995920539746 8.227949272525423
Co 9.223805186982837 8.360085472576909 8.006250088291686
Co 8.191776502938739 7.318557429074394 9.947931518515162
Co 9.106814691279952 9.503568523557007 10.054612160895747
Co 8.137438660294256 10.144922914992453 7.036127338601777
Co 8.049024882696013 11.299725951005158 9.010500775626133
Co 7.166297753811164 9.147762733967088 8.836282686812687
