16
Energy = -85.18272663 eV
Co 8.163176564346136 11.534066018675478 10.50630036170471
Co 8.380437387129817 8.472039526293864 7.935324940858099
Co 9.903505405134778 7.792221736997049 6.394019547520831
Co 8.093443533020858 10.740357528831394 8.240259650977624
Co 10.852918213753563 8.088969658701204 8.505496910001623
Co 12.021325989294313 10.023938423538857 8.90895427465112
Co 9.27919464273012 7.797887811820875 10.19465247508096
Co 8.423791226911604 9.647190915605554 6.010505212275286
Co 11.321742064035956 8.895167598089438 10.815545596043856
Co 9.137129827039697 9.55487064814074 11.738767527393684
Co 7.299093545612508 7.017382353362557 9.355302504495802
Co 7.4830178261441045 9.258923597826985 10.074863399535083
Co 9.845918832852336 10.211824705907873 9.650776496980871
Co 7.000730609684864 10.272742278864252 11.994630494747812
Co 9.25846265950901 6.357671146378293 8.182628946785643
Co 10.228405281266445 10.006491339334449 7.321504209995462
