17
Energy = -90.66995108 eV
Co 7.694574493393758 5.7953295830508145 8.001958380311466
Co 11.56537478109655 7.38736270232648 7.294079246669477
Co 9.683781452084949 6.782045538369542 8.307152275087509
Co 7.66780892140175 8.034738672036793 7.74134467279421
Co 9.15386136505689 8.653752068744222 9.586993226889271
Co 11.429932195635194 8.684470652782986 9.206154015655938
Co 9.986446581260148 8.98462384767217 7.316440181581084
Co 7.619178065079053 6.988261259265576 9.927574093786063
Co 9.873110891245847 11.203745451043934 6.926996338786088
Co 10.403845562013446 10.746181465321552 9.037840590185326
Co 8.107321282612185 10.406408530807573 8.117908226611588
Co 8.017918166509293 8.747215776294256 11.620274581861441
Co 10.39689509527767 9.63284904022017 11.254765605085062
Co 6.0287216953773255 9.583553667545527 7.646403326330332
Co 6.72131793493798 9.105267441938638 9.719637462759678
Co 8.409093611352343 10.721072619989055 10.467478065251973
Co 10.315005756313425 11.860525583621289 10.956669999777388
