12
Energy = -61.84324469 eV
Co 8.780296462343866 8.820700627451984 7.552891674490363
Co 10.993354051618683 9.312747101559415 7.091431474496817
Co 10.25506529044532 9.691923620836572 9.219634317682846
Co 7.738026600863298 10.026390504900219 11.716928599776633
Co 8.915390887997873 7.024281706790399 11.111346158251965
Co 10.306492038355744 7.224565554530973 6.9290249358031835
Co 10.008490901798863 7.451556333371172 9.16132245356162
Co 9.260921309616615 11.060699339726762 7.618529015724042
Co 7.1962474593089185 10.339739700140479 8.252086092705706
Co 8.559936657220451 11.04744434057964 9.95191399761406
Co 9.69188274707756 9.051251364540034 11.405142667378055
Co 8.073849593352797 8.728653805572598 9.76970261251483
