14
Energy = -72.95149494 eV
Co 7.465890064960298 8.307015695856494 6.702224143213251
Co 7.477275629660821 10.463168235127915 6.69215580785941
Co 7.881953202394417 8.31819948392462 8.987325394885366
Co 7.893971149949268 10.456253294096154 8.978008390214656
Co 8.424481941778247 8.308019827447849 11.332886503652972
Co 8.436657559743663 10.48025584730571 11.32376564850549
Co 9.594458544982704 8.246908410801284 7.3716887129608795
Co 9.60690436828329 10.496860777061277 7.362458454420917
Co 10.102599283316781 8.187137948043793 9.750449148246727
Co 10.11634986222522 10.568426811303063 9.74061824637643
Co 10.508854619485836 8.262437193459817 12.110419910648655
Co 10.52053394263399 10.50347248114337 12.10231952281038
Co 11.879070252726 9.370741473920823 10.626395637198366
Co 11.424789577859475 9.36489252050758 8.253074345110925
