16
Energy = -85.33329489 eV
Co 10.164900223269862 6.637895032024515 9.194627056679735
Co 11.225741369100803 9.300796013826497 10.53196103372243
Co 7.87736700263131 6.965214533025428 8.74740093180764
Co 9.074133735592381 8.346103538763288 10.21689468365968
Co 7.330779098076132 9.94816357969073 10.762545435759696
Co 9.58175042911333 7.144855392889996 7.061466191685381
Co 10.629080814578888 8.75891707862232 8.324151961516735
Co 6.953487279947572 7.6684044598426295 10.779638301002137
Co 9.371066762767184 9.795963147007654 11.928650355449944
Co 8.272865523181192 8.970532491106276 7.732211304513987
Co 9.951306613934264 9.159872826683808 6.041043335033436
Co 9.460037640026886 10.701245447289157 9.814243740965324
Co 7.5031596421067865 10.95755996696867 8.651088586714744
Co 11.595263439066224 10.78260006614857 8.843552582176502
Co 6.325228526912488 8.89206284817388 8.967548226564272
Co 9.681294817254408 10.851411685522653 7.500946174564884
