15
Energy = -79.97270975 eV
Co 10.369817097630374 7.852929762629369 7.106552421780608
Co 7.678353550280315 7.873953823062145 9.022186998579642
Co 10.247625313757782 7.849939228348243 11.098200953082562
Co 8.434562266088623 9.07320109538562 7.058278063045669
Co 9.79666829098162 9.057574679832264 9.08688018352695
Co 8.313675560206551 9.071165311897579 11.029155302582662
Co 10.274731362438196 10.248160708938107 11.0996876817231
Co 7.705544078154063 10.288550878818555 9.024713247581895
Co 10.395880933548144 10.251169936704983 7.1087221353651735
Co 8.44021537322884 11.386551380691143 7.090831152392492
Co 9.693602480180662 11.414624293431856 9.084748312455964
Co 8.322539811968763 11.385044089501452 11.00028829928305
Co 8.270258062966343 6.757909664635109 10.996331934677725
Co 9.64035888021066 6.7028433328914945 9.080792225757238
Co 8.389929438359191 6.760144313232334 7.086393588165264
