19
Energy = -102.91574968 eV
Co 6.177214510424223 10.983507670261211 9.832303580092505
Co 10.031100929350472 10.889047839486523 9.59902438467305
Co 10.42216678592955 8.566439958188562 9.280266349162817
Co 8.542670865084673 10.89161663392124 6.6802074755271645
Co 6.579729398325004 10.094523593205631 7.86891378742465
Co 10.015651140712356 12.300064500231631 7.772819853536865
Co 11.605653822134334 7.583493323089301 10.942845591719408
Co 11.61719084755458 9.957980899024138 10.90394727969328
Co 6.65454986418838 7.9647015991820895 8.72300725748272
Co 8.559628174692168 8.736886698569931 7.620921039630967
Co 8.014431440700006 9.626194714109667 9.805637597671755
Co 8.377164289872068 6.448423147571846 7.957276863404181
Co 9.75330111541342 6.594788114568492 11.749026556745445
Co 10.321426618746084 6.227781916848179 9.42432051484295
Co 10.431312322670793 7.385054957390083 7.366687296794197
Co 9.712431817444031 8.910979038642644 11.44958325944116
Co 8.018550554761596 11.751295996641225 8.733257114625188
Co 8.449697383675103 7.322436138798911 10.05976414272085
Co 10.499421129757206 10.01742095073148 7.483033358401471
