14
Energy = -73.65841188 eV
Co 10.45623 13.64623966706511 10.244547474077343
Co 11.630771078550787 9.276624338289153 9.943365554262137
Co 11.630771078550787 11.635835661710846 9.943365554262137
Co 12.086970661894002 10.45623 11.979725298919243
Co 10.45623 12.059382570426745 11.948906034507594
Co 9.281688921449213 11.635835661710846 9.943365554262137
Co 9.281688921449213 9.276624338289153 9.943365554262137
Co 8.825489338105998 10.45623 11.979725298919243
Co 10.45623 10.45623 8.237437823272117
Co 10.45623 12.754728043279147 8.197328248625018
Co 10.45623 8.15773195672085 8.197328248625018
Co 10.45623 8.853077429573252 11.948906034507594
Co 10.45623 10.45623 13.635305392405137
Co 10.45623 7.266220332934891 10.244547474077343
