16
Energy = -85.80838219 eV
Co 7.744675292069992 10.602018768957395 11.689883013120495
Co 7.340548393040203 7.601192623312905 8.19892921450317
Co 8.979645563976254 7.309321782710194 9.735886787531799
Co 9.353530018034482 11.38315371202206 10.167628737507876
Co 7.963718950979351 9.420531659792953 9.733597625877703
Co 9.945401550422568 10.453160520690808 12.207556255020947
Co 9.628710667221561 10.122505407101201 8.09203792671083
Co 11.920893536745231 9.885355205855756 8.620358329787527
Co 10.533320838104943 7.967220891696628 8.21464175539654
Co 11.624588405199296 11.161389305186152 10.563818485982413
Co 8.675452382576974 8.523917379710372 11.790755320172517
Co 10.343534163135528 9.248813792876462 10.266216796552834
Co 10.95158304895791 11.94535483645097 8.541258566689226
Co 8.881754662202699 8.253990913139322 6.6839363807800805
Co 7.417965119174027 9.83851079228169 7.553008294245585
Co 9.107721456728095 6.198304584334413 7.692763289839582
