10
Energy = -50.58634714 eV
Co 9.076251216544195 7.504429817370905 8.74124077858552
Co 9.391253748234647 8.888976837756804 7.002171660286482
Co 7.346647309102092 8.877471122971409 8.121415625772228
Co 7.512488543636295 7.9785626474871165 6.00947516027061
Co 5.643547153572103 7.824554242216937 9.03137959808759
Co 9.128111131882793 6.539607131971339 6.681717121870332
Co 5.3267415750988425 7.653805619496748 6.844055356281156
Co 7.152820242713654 6.5183475383352905 7.841580283362223
Co 6.9928774838877725 5.7610508240100575 5.692787920134043
Co 5.192540139541939 5.485564980319098 6.989710800794391
