11
Energy = -54.82891752 eV
Co 9.775224989232305 8.390251357128504 7.691698748344187
Co 9.596610820859636 10.667685400629683 7.600550831772711
Co 8.405174017354415 9.551975439015433 9.184903703668493
Co 11.614522191658777 9.5825197303209 8.374801393324134
Co 10.87724979131364 11.532828713593984 9.238333914463436
Co 12.020032219629345 10.05614730575676 10.596166954472274
Co 8.600854975332375 11.8852432073267 9.294297218945706
Co 10.40699169560177 8.487325418396452 9.947132161690378
Co 8.496845585673015 8.548846020236875 11.259033356040346
Co 9.703221840947766 10.486305781615537 10.863906330783621
Co 7.394865699017593 7.7024654526001886 12.840769213116365
