13
Energy = -67.56342463 eV
Co 11.440737551085903 7.969213296449226 7.466574394413444
Co 9.151782616686269 9.584566644701448 10.213568252341231
Co 11.762678365915805 11.12158098413161 9.772594164092599
Co 9.772242285303703 11.786877926807339 10.931529977562482
Co 10.98916793141281 9.921038406149725 11.65818086103314
Co 8.945600220506005 10.416355106036988 12.582319503646106
Co 9.496991513610372 9.006970233944882 7.904573093390256
Co 9.725151282771941 12.51116625500572 13.112940448411186
Co 11.541009657102322 10.211234953868136 7.559456645913518
Co 9.731414205182846 11.195513786987071 8.62028004376194
Co 11.735072925833453 12.046623161925933 12.105313626452968
Co 10.88990756830677 10.720489133566627 13.812236840031696
Co 11.238544518135045 8.891119160471813 9.510796870000894
