13
Energy = -67.86032835 eV
Co 8.872429393564095 9.893286065877943 7.812222901743255
Co 8.284587026363965 7.781628174899721 8.656746173262688
Co 7.8762215676261285 9.715655443146066 9.830650102923206
Co 10.639417053417038 10.28307049798363 9.308742683699746
Co 12.801133622138533 10.769249935110942 10.033107880872235
Co 11.488399651752523 9.835868089871141 11.572877844384736
Co 9.79508476545308 8.38858854364287 10.375682120215165
Co 9.337310111342518 10.659672727206939 11.38929375383674
Co 10.44732905897721 8.200122265528197 8.193308279923883
Co 7.276557154909046 11.531223292536668 11.060131614005373
Co 12.143486096999712 8.510546014918578 9.804169057188032
Co 8.89438256470072 11.814136339988526 9.447422501494449
Co 10.990071687049658 12.115267758838248 10.71510069135341
