19
Energy = -102.92177285 eV
Co 11.363883536651047 11.255009828332115 6.974312850930697
Co 9.958027933825138 10.016520481486253 10.220532057150185
Co 11.846267592618657 11.082302979768905 9.235556605132341
Co 11.176785765189715 10.360586944316422 13.764691741599934
Co 10.979943756701775 12.50109778614087 12.916989225983704
Co 11.193300683553192 7.168432676259932 8.605857811778062
Co 10.05286658345682 12.35490998417868 10.683217436250462
Co 9.64462919270636 11.562390460657529 8.483548802456143
Co 7.072579501694652 8.455375550740763 9.941503630404098
Co 7.841449497948993 10.737791858453692 10.430976745610481
Co 10.714416877862018 9.30368495448438 8.039535163161199
Co 9.288816850914499 10.352887252485662 6.51014394831548
Co 9.348306849157936 7.845512477068789 9.736629300213803
Co 10.709673944957546 8.765258674559345 12.108978871117477
Co 8.349161802565844 9.549757171069752 8.442926425914061
Co 11.737058209790641 10.850597064553078 11.549832756113279
Co 9.427474686635149 10.889672475568139 12.373288616257879
Co 8.40895844959127 8.854195506267786 11.694507841122027
Co 11.873350985948939 8.727571934475991 10.084753703167408
