15
Energy = -78.81167209 eV
Co 12.620283235240239 10.148952182640109 9.864587191452323
Co 14.683951735149726 9.953214101219618 10.768525309277173
Co 9.097613196645145 8.970019192955922 10.053259465561569
Co 10.350591425774288 10.767469338829777 9.335866272538958
Co 10.931403248266559 9.56556709982504 11.369222045072858
Co 13.76763591219182 12.023964215574262 10.695090989271419
Co 12.148345358995394 12.266341951550075 8.995542193345534
Co 9.929073353100708 12.946191310238762 9.849579755918453
Co 8.875778421852875 10.12501778609745 12.216260632515835
Co 7.1101880739908845 9.470002720394495 10.91035389952164
Co 8.319135064691901 11.289138294783159 10.272258624254476
Co 11.483795309525297 11.864167212209606 11.213172479205378
Co 13.044942576299523 10.357492558235837 12.235531789178886
Co 10.904735304481393 10.893104391167752 13.270369249346157
Co 9.424611934768665 12.326835452572164 12.086324255869622
