17
Energy = -91.44096139 eV
Co 12.792844090505692 8.967400423851144 8.514485845136218
Co 12.105751403937193 9.117027009524524 10.643003474407374
Co 11.119114024036282 7.515514314443499 9.056572439551985
Co 11.401985728003892 10.822262672037583 9.150914743953896
Co 10.7559141835258 10.904698158532808 11.37956985797562
Co 9.82843700000088 12.412209616728322 9.8331730460997
Co 10.710133266771177 9.23320374127776 7.607194593660211
Co 9.888838360687474 9.168856503809673 10.055547608132413
Co 8.965908730151375 10.751561261152736 8.49680611283856
Co 8.46977500187626 10.896607156810536 10.9740413036065
Co 9.42352073222347 9.18003723107122 12.299296856193374
Co 8.928240691554377 9.70615857150979 6.315667067274294
Co 8.706905227674838 8.252827046996808 8.201230847768127
Co 7.017920660240926 9.75911323590231 7.486685146563787
Co 8.366070675587773 7.602366311988994 10.729102917878532
Co 7.316588935463718 9.347278652397492 9.686064753798417
Co 7.203208662883509 9.121847506619776 11.966690562239643
