16
Energy = -84.66681729 eV
Co 9.919817567320209 7.5393916747747936 8.772991832468607
Co 10.039644035883995 6.629324714068419 10.824281573935187
Co 11.590846787949367 9.188233128560608 8.114906655699441
Co 8.78124991031743 8.497181553168495 10.72646819842652
Co 7.621965320046768 10.517733256701604 10.121938567555173
Co 10.685443628010907 11.47058031996885 7.4836620377137635
Co 9.579514229133032 9.970743294175954 8.876251812366256
Co 9.81947046662647 10.689739105080152 11.204894181330614
Co 9.503186461404754 12.205195501668944 9.487358871710471
Co 7.770794050074831 8.573720452692095 8.440307336106146
Co 7.922189819716354 6.622457812928897 9.662645167604722
Co 8.13921754947234 12.24253084709121 11.360499224716014
Co 6.533183490355219 8.42954220810825 10.306442595726606
Co 12.842093383314767 11.05787378071024 7.776996239876492
Co 11.585508257029622 11.108548451420535 9.663279107212949
Co 11.113649177362703 8.826036961957799 10.357597472747491
