18
Energy = -96.097526 eV
Co 5.994721277262494 10.832330336853662 7.664245119648953
Co 11.625768694397207 9.239418069457997 7.142304792939812
Co 7.088074186784257 6.996850075556067 10.160699159850017
Co 6.4816393754963615 8.92320537866025 8.948181406057785
Co 12.491181976333069 9.599705156550328 11.50704631669225
Co 9.668271293787162 9.761193071129265 8.39490150523868
Co 9.415593863696552 6.745073379007098 10.360980496224244
Co 10.625215497775528 8.65684047206139 10.797225902352835
Co 7.750040551998552 9.509682550815546 7.11642011563565
Co 9.860069837566039 10.888629493404054 10.488330799102824
Co 9.697661265362578 8.188116993075322 6.548939655883504
Co 10.860756897914566 7.718311427470448 8.704057688277075
Co 11.859323817881133 11.63514548723884 10.978206286762257
Co 11.813035541403947 10.012013628704231 9.29995449438383
Co 8.30645487493115 8.9341025453814 10.450204104890542
Co 8.461190777644953 7.649404196375524 8.406220993755523
Co 7.712134199744019 10.949537963493775 11.313280854858105
Co 7.718720180849425 10.913198436676863 9.122598688352744
