15
Energy = -79.52728424 eV
Co 9.444726056853531 9.101526794368473 11.116525119248676
Co 7.583632885607117 7.896087555732091 11.707063870422205
Co 7.587763423516461 10.267055314836298 11.790743921918784
Co 8.750262190153428 7.216479320583936 9.785178850278152
Co 7.310876297180136 9.150211997913335 9.806080268613835
Co 8.753374765666619 11.07714813800983 9.918810251194829
Co 11.116439386495939 10.359396614749278 9.809494977894829
Co 11.114839434881407 7.933672973985578 9.721643060578076
Co 9.42270577600428 9.184645730370482 8.761220498088074
Co 9.372669593052407 9.264755091441828 6.482754654300361
Co 7.757098290991592 8.010281643696304 7.66735251918429
Co 10.049991546967664 7.232755989202595 7.664749882472284
Co 7.761700898440472 10.438489193736201 7.75054263750162
Co 10.055986766161755 11.207691416608828 7.804449902238037
Co 11.477111272287011 9.216981848010535 7.7730760730956465
