17
Energy = -90.83851062 eV
Co 11.386382555717196 8.64924970475458 8.753252656408838
Co 10.5628481917695 10.965906543696875 8.804867720195308
Co 9.851047169237225 9.520343781157843 6.947872341751139
Co 12.13735741656564 7.893556817205779 10.906558941910063
Co 7.856967861379592 10.318074693280234 5.871671365729137
Co 10.62718680677503 9.647421229416086 10.815717460512927
Co 9.573087437212038 7.2527962130425045 7.85506889887349
Co 8.273031090597158 10.974323465090352 8.053305705247531
Co 7.653541856555238 8.65311686912801 7.462866947480355
Co 9.141881622706864 9.149319252808388 9.137439605626515
Co 8.715528503991369 11.049358047132374 10.420797325250751
Co 10.005743782623243 7.318494434803493 10.22189449248612
Co 6.14277227828565 10.400064731388081 7.363939070998189
Co 10.426357042343898 7.977065517303162 12.40101980712782
Co 6.895798678938404 9.647900686550168 9.526143311267775
Co 8.429304192745185 8.782547090569558 11.321932100578557
Co 7.721186451149313 7.33021025225123 9.472675875034442
