15
Energy = -79.88213696 eV
Co 10.81383867048952 6.744875567474088 7.3286053852010244
Co 11.70779596825384 8.618022155805367 8.270470582829933
Co 11.224674378660117 8.963740568196396 10.550622199221507
Co 9.820149622218324 7.666745147249509 9.252900804241131
Co 8.550344229071712 6.463018611964009 7.6405759983087025
Co 10.25460692084082 10.979040137641949 11.07474422375164
Co 9.463600018362287 8.578559486118031 7.125851621425301
Co 7.401746005815338 7.774792193992218 9.174458885082903
Co 7.1943676797490665 8.162048067329666 6.851962076441961
Co 8.750311046355826 9.262894922423687 10.613732085823706
Co 10.117542379924007 10.165219477453988 8.901250373202673
Co 8.284246484590442 11.452517881406829 9.996184240850745
Co 7.845828117660682 9.913350753944556 8.330244574387649
Co 5.671596072652141 9.022075868763842 8.345039132723235
Co 6.553831929694304 9.871846937846328 10.26904365072227
