12
Energy = -61.77705104 eV
Co 8.18223214405657 8.379799845482424 6.472465270858144
Co 8.038189697311092 6.264944845779556 5.693585119078834
Co 5.975021565697134 7.918924775603166 5.797892820401378
Co 6.814229370380211 10.018236529153135 5.814480020938034
Co 6.0170321973109315 5.838455667926208 6.710857405145543
Co 9.659333816958519 6.757727514269375 7.412870557279398
Co 4.653943504464802 7.4074353038574685 7.674880080617537
Co 8.054942069964795 5.123306936622292 7.686931718504389
Co 6.367072783864305 8.934560799255669 7.813050845870674
Co 6.766351074601478 6.794060731910387 8.629501641429355
Co 8.51279095533429 8.31367069220756 8.750507116346576
Co 8.910883445124707 6.200898983002575 9.495000028599396
