10
Energy = -50.09830118 eV
Co 5.797918795420273 8.029640151253181 7.661889633139186
Co 8.111975240911875 6.959664653472047 8.347128203547312
Co 7.109532708317804 8.78735112633628 9.364438908503862
Co 10.75171771481625 6.768719653314789 9.154040383729845
Co 9.194149207927623 8.200758828392114 9.993744754120295
Co 11.238642250817538 8.982987204221677 9.361667397258886
Co 8.913215714516205 10.085625648558599 8.671415587244853
Co 7.830065265370372 8.843992078681255 7.023911941015029
Co 9.915627875141752 8.261406120194513 7.654843677057282
Co 6.240457870254165 10.248874288205803 7.851482157435495
