17
Energy = -91.61961429 eV
Co 9.892244753297849 12.61764250491347 10.046897968751626
Co 10.39786446320714 11.291969785963836 8.266742099628019
Co 12.188200399616857 10.084321575541304 9.054178800657738
Co 10.449827464238238 10.52292340877553 10.547217562687468
Co 10.471373368014463 8.723814150886328 12.097986139763618
Co 8.246784732111239 11.188761587383766 9.461506732394563
Co 11.088626348011172 8.223321956810342 9.99360798542567
Co 8.666160494793393 10.2418376505136 7.1520752880673975
Co 8.478371561069164 9.683904364363977 11.393704234758243
Co 10.750528674708125 8.938510527203787 7.708160469862852
Co 8.90534714109066 8.994407434876992 9.162126544113324
Co 6.7683793674746 9.60454161517398 8.369183798672498
Co 8.796308789382447 8.000249189842826 6.7487840815187745
Co 8.96980987177746 7.4206429007982235 10.847859371716034
Co 9.809153238543363 6.883774607413446 8.548334932316934
Co 6.845384214284417 8.43061777171213 10.389233217094889
Co 7.435903061079088 7.346962089349002 8.435506885765221
