15
Energy = -79.15600391 eV
Co 7.617558084801491 6.304402272106692 8.503826943171259
Co 11.56017039301624 7.8008589764435925 7.114693492612796
Co 5.7072732964842166 8.485202609086139 10.533361293937945
Co 7.467360922585832 9.836562544778499 11.33782888843998
Co 10.037836201046415 8.868860648113898 10.117734532161972
Co 9.928307002288374 6.269818736787752 6.405359351807303
Co 9.540273772992979 7.57496650301266 8.202386359033055
Co 7.851198086005304 8.252720697411739 9.785947431019668
Co 7.829218506706515 7.296921865661135 6.49417712686372
Co 10.47629312924869 9.698632852818182 8.022365664987833
Co 6.145593118649485 8.024893366926047 8.234868029919964
Co 8.701618763177391 10.549617312577572 9.459348106915014
Co 9.736518139914612 8.5694928341614 6.021408671780242
Co 6.423934204719359 10.179887219955047 9.245396003377477
Co 8.045066504814411 9.355381686611231 7.589518230422796
