11
Energy = -56.06314997 eV
Co 11.579109248472172 8.717011523029015 9.313038835640254
Co 9.184376161772496 8.352512780674262 9.640009271316242
Co 10.312671499378792 7.2982580036015765 8.025579996598509
Co 9.359666077694184 11.423534652782788 8.822934126059774
Co 7.805083631323797 9.692096418885109 8.38753658115461
Co 7.048418162127033 8.458104051306638 10.358181126880012
Co 11.69617382152805 10.919963327356593 8.856627590081345
Co 10.089755387603464 9.52864767483498 7.783647930110641
Co 7.968348570552417 10.534702719458982 10.495169095214484
Co 10.275567249496083 10.231034456765977 10.554058192151196
Co 8.781541781411848 8.944846574023696 11.863927959112859
