10
Energy = -50.35888981 eV
Co 7.921475840547987 10.45046838122444 7.513148873091195
Co 11.458454025444919 9.07743118378422 9.077458037795774
Co 8.590303598354517 6.783282211038796 8.18858326010247
Co 7.102311037558235 8.487823674443584 8.492910179134816
Co 9.984566578221099 11.007010614294469 8.715889808304402
Co 9.378226336057732 8.890788792041421 8.238156842857627
Co 7.970341357367262 10.590808321617919 9.73982580188316
Co 10.096594283514305 7.328866716563151 9.814429480254338
Co 8.256224760619988 8.402720799199425 10.36837223655635
Co 10.053572375619426 9.792869499098048 10.663295673324981
