12
Energy = -62.10942779 eV
Co 7.855348722668926 7.307732119473439 7.420604162017838
Co 6.461848373616924 9.127944625241687 8.212892340839561
Co 9.841001226974363 7.694938820263628 6.370122999419205
Co 6.818815814543303 10.013492134037696 10.289658578064861
Co 9.267840149753566 9.149585967060684 8.128423207972729
Co 9.883332122190055 7.030142838588464 8.714257658314787
Co 9.04822612404959 9.995864811000684 10.205535987619063
Co 7.863191404005923 9.440235580019438 6.411977936810139
Co 8.052534840167265 5.702497985804499 9.085063983856138
Co 9.283561415679056 5.539524079943391 7.135174841869646
Co 7.835722292445359 10.925089915584214 8.395994525389584
Co 7.853127840108604 8.016915693080577 9.682923362374552
