16
Energy = -85.00947638 eV
Co 11.945479173972263 7.724778632524249 9.36883427770392
Co 9.987601015846185 9.459440488767306 12.272310519931041
Co 11.56764666290799 9.90891712818401 10.40465580166372
Co 9.378870729883813 10.84939165173638 10.526248569784196
Co 9.771087299656253 8.386922539754874 10.001875836031926
Co 7.888941994940481 9.157709153030689 11.361316768204638
Co 11.48476938218152 7.94412840614081 11.574588216550652
Co 11.01788537113073 9.330882299885321 8.142268187006755
Co 10.164640696469409 8.986843411683006 6.059633198392493
Co 10.603861551790796 11.482460862074163 8.764811086943517
Co 7.683058532503928 7.510927849616995 9.685585234282819
Co 7.820329446668548 9.78002132756709 9.064518686643824
Co 7.150939960285312 11.209543538994128 10.906284769463305
Co 8.943563188325237 8.221566285842579 7.802882740716626
Co 8.189785474586323 12.03622799228453 8.888521430142914
Co 9.088354802255306 10.57105855293969 7.307475372889445
