17
Energy = -91.20393834 eV
Co 9.003651920902131 12.604684683899471 10.034360248317995
Co 11.049645087713243 11.607353725344154 9.621385614334683
Co 7.944026649013155 10.899331130724518 8.881100691159482
Co 11.216670788169804 9.086572856167098 10.215176043505863
Co 8.710337274025342 9.129381022572787 12.337859178986378
Co 9.550442251481646 12.226186516680023 7.865063203520173
Co 9.417876804429918 10.425752486561446 10.678486170159866
Co 10.127866111540518 10.055582464341539 8.263668957600778
Co 10.97712209621444 6.504311864782994 10.161854815041456
Co 8.47143170137083 10.289487197963917 6.697303295675657
Co 9.573673500296508 8.313995944455046 6.467837925147204
Co 7.316020156907558 9.342156968158482 10.537242109383747
Co 9.20757086696304 7.879351523867322 10.507790848431414
Co 8.242328164687052 8.496948641273619 8.345389463717767
Co 10.662707210762225 7.799592277899839 8.38941808621523
Co 7.123778728671319 7.1427320276753115 9.839640832088634
Co 9.007019655105697 6.285385868275758 8.77764230361222
