10
Energy = -50.0018667 eV
Co 9.918237048083723 9.717610061356975 8.234105679201566
Co 8.8927547056479 9.263867183492309 10.331793096769765
Co 8.861224044957849 11.32053221350211 9.482672814627753
Co 7.581442363137868 9.816627147610275 8.398551610621606
Co 8.436006427771135 8.088127486508498 6.972698852619185
Co 11.06713067329695 8.88899858610289 10.036987514787134
Co 6.262126308821676 8.34154503404128 7.285585905526511
Co 7.384536287542544 7.610313528304655 9.12829146277089
Co 9.704106699524486 7.487650395803467 8.925604360848954
Co 8.372253966450618 6.039501336595832 7.802886043862664
