11
Energy = -56.32090422 eV
Co 10.415467139538915 8.408725376081966 8.894552747190293
Co 10.063820981556406 7.160084078608103 10.793746210291891
Co 9.722229876039929 12.385245956241425 8.489324900945846
Co 11.091902649312612 12.817114222726705 10.317201826047109
Co 11.674580741575344 8.842249505411004 10.92438593054484
Co 9.072592012629007 11.73650493485325 10.51760459173124
Co 8.816951956242523 10.157020781613868 8.765894675516014
Co 8.323226279645013 7.879709601717248 9.43218912566521
Co 9.456995905041286 9.394505284633603 10.873023701772532
Co 10.97118412227598 10.650799076391468 9.517667871607486
Co 11.006962389111205 10.99692688182643 11.776867000457436
