14
Energy = -73.83883313 eV
Co 6.296044883721072 5.721703840445932 9.105082847629227
Co 9.776216895202296 7.6638025027813725 10.185080695378332
Co 6.080834834549355 7.922155341326834 9.035731138328826
Co 10.250971714479903 9.9474826471978 9.752506019181856
Co 8.18103282283795 6.904788089853527 8.502091204534363
Co 7.56605901265463 6.96418310998409 10.684367485554167
Co 9.755142491381367 8.658090146689972 7.957450022969549
Co 8.637465502877482 10.763768085779445 8.150931640072736
Co 9.20342462062359 9.728575080977688 6.035515405488454
Co 10.763882941505143 10.693552456256091 7.55293509682858
Co 8.053922606859429 9.057238047427454 9.690235911028342
Co 8.652135038019823 7.426164318273509 6.172205954737013
Co 6.514333981091627 6.753546248839988 6.970638302119001
Co 7.394138632173587 8.920556062143701 7.330834254127232
