16
Energy = -85.31391338 eV
Co 11.359655598942085 10.040720906440239 7.802895630235434
Co 11.066834426596422 8.695224429284167 9.665023236409628
Co 10.047412064690638 10.802341082351301 9.739944319164387
Co 10.953782874106327 7.633828527245389 7.447534622565433
Co 9.334194998694336 11.24986638339853 7.518922366502472
Co 10.01743074887558 9.267083576365069 6.063127749049759
Co 10.425801369002153 9.805777156173278 11.795897814447002
Co 9.242292881180997 9.095268384292261 8.176755508685208
Co 8.849718124301397 8.722541849952037 10.575260557232074
Co 8.405018920075438 11.105853936316786 11.43583263942298
Co 9.377168537339482 6.9060239046753065 9.060410221411397
Co 8.703037036394102 7.331971674724149 6.885866100085278
Co 7.7544711616838935 10.51425491227978 9.306598165657512
Co 8.256768592127436 9.273175685036936 12.68182676743053
Co 6.651526911837237 9.351751180646048 10.95705103796688
Co 7.329166925448613 8.033348395471474 8.989663680750528
