10
Energy = -50.73417829 eV
Co 11.402535558554643 8.949058848561531 9.499983896746846
Co 10.286042429216568 10.68024420574011 10.64381621751598
Co 10.155838997373737 7.0079216240414945 9.22374143517626
Co 9.065073451357462 12.445981098138143 10.125755355459779
Co 9.840859690651357 8.900080129873517 7.9119349301839845
Co 8.270699549578376 8.364285447229065 9.464263411071734
Co 8.632661506039447 10.628653846819367 8.959554930500843
Co 8.139658407670701 10.077412278688795 11.118801330788907
Co 10.826308471510261 10.989532381765404 8.452024089747214
Co 9.832726938047312 8.40923493315579 11.052529196821528
