11
Energy = -55.43794318 eV
Co 9.595543548391044 11.466394329719105 11.745106234327253
Co 11.135142996797372 12.128382047100903 13.205459873144257
Co 9.800626228578864 9.266401020118174 10.979101073641461
Co 11.875698163063031 12.561538402388981 11.19241807158804
Co 10.811323553978374 11.062166757829456 9.759506762381342
Co 11.854644087629904 8.96827297974048 9.800896971640423
Co 11.68585265888612 10.07543791701263 7.8520228215264005
Co 9.782031295438609 9.141983101148133 8.608714970659351
Co 11.755511224910302 10.348156078880915 11.777497897667219
Co 8.45095159201623 10.685100198321546 9.761244821887942
Co 8.01192288135769 8.433917978581725 9.722672438218371
