15
Energy = -79.74423243 eV
Co 9.10961229424791 10.165175157454527 10.847296695236437
Co 9.65566782359717 10.790332852962651 7.632592060133782
Co 8.796729280448798 6.883088176013021 8.441284857608636
Co 8.473161771461495 9.158826512381735 8.735241414684706
Co 10.91672831587006 8.740917525726752 11.37795489731193
Co 11.176651414805416 12.79654155710888 11.58462825763822
Co 11.948119712689767 10.735611339286985 10.88245434313825
Co 10.41786588357954 10.864046051109769 12.583540680047323
Co 10.871656924944059 7.267975015295335 9.365327001986932
Co 8.986142681123031 7.806496934985565 10.550324902354925
Co 8.126336803978377 11.453020039121819 9.220351387504211
Co 10.130504891402081 8.328750932545157 7.347707928791137
Co 10.350689359168738 11.864311343380763 9.629694654964258
Co 8.97155861889622 12.37487121740376 11.417179885085794
Co 10.837891144318993 9.539352265754287 9.153737954044722
