13
Energy = -67.63090513 eV
Co 11.753713500469585 7.725390548333272 9.874741288496597
Co 10.16772546251497 9.545805601154958 9.462229206592314
Co 12.243561311690426 10.9092681820183 11.800538407071897
Co 7.951880592722253 9.709208680929397 8.83882397269991
Co 8.540905055772434 9.23674787604028 11.032001781733376
Co 11.38681826687142 11.894216417100875 9.861229091219958
Co 10.896786189093884 9.023266467103477 11.62441550969341
Co 9.427560138281986 13.122234939681158 10.30843444895689
Co 9.848161102715608 11.066711358903735 11.325562965608231
Co 9.25640264140913 11.58566907383297 8.709531551174953
Co 7.749239047934769 11.382108435608613 10.394098502358982
Co 13.123494604777658 8.566414941946322 11.549399783674852
Co 12.472371543647974 9.851123882717657 9.822128330892934
