13
Energy = -65.51328412 eV
Co 10.878600020131922 9.98595701234346 9.124948264464047
Co 9.262118779256632 10.43643346267588 7.471062778190691
Co 7.605218218323877 10.784675270371142 5.913425461763528
Co 8.655335697017202 9.594189732167125 9.550103199199688
Co 9.959879702179004 8.31802474762705 7.860275090818454
Co 10.402916574276693 7.936740495634389 10.217898507980614
Co 7.026153623288149 9.8489568315602 7.933761797621615
Co 9.83022761867818 6.8698985994011785 11.983733963544422
Co 6.503917077671171 8.90524048586432 10.00857397286382
Co 8.195656326963977 7.45066578969846 10.755969678527174
Co 8.242571817009086 8.644908069000643 6.335492037125275
Co 7.618293319760402 7.705318763162132 8.390120928590855
Co 8.90257266059124 6.544312581360845 6.9006055838368
