19
Energy = -103.1615572 eV
Co 6.5357769227786635 6.038877780960687 7.352096669371931
Co 8.78022041444034 6.343959117591856 7.672433558151525
Co 7.275377252364683 6.494332006412113 9.539071296993862
Co 7.5888209959227515 8.051865912080297 6.600396782317869
Co 6.025545158151875 8.026824027932124 8.350247179083013
Co 10.157975843852105 7.0853402959618705 9.51679448283589
Co 9.947928357972575 8.11100060507672 6.794510289072671
Co 8.678667663099448 7.776199292913027 11.117357827063705
Co 8.306164225273822 8.354160862170154 8.761747513563748
Co 6.6510340118768685 8.801053949647223 10.474349081721927
Co 10.506429261670709 9.271715069608748 8.684076875176714
Co 10.707887406749055 8.932814457829245 10.971872931398064
Co 6.959761559807543 10.249268951669203 8.543387950416749
Co 12.338592973437574 10.045716626618649 9.726338525481918
Co 8.88779014721309 10.168530866687695 7.167815602800918
Co 8.700111239647061 10.054758379817256 10.306667425042045
Co 10.837296717210663 11.348902226219238 7.845497518898783
Co 10.609421043416537 11.361219377643758 10.12292726342681
Co 8.731397097761446 11.81779244708422 8.7563946984827
