19
Energy = -104.311841 eV
Co 8.20106862905883 10.171814872640171 6.01459800347185
Co 6.553025183728094 6.596847442756825 8.477638599301875
Co 9.528857736182827 10.843940205802003 7.764988461312289
Co 7.913334970099065 7.026659028166827 10.271030330574973
Co 11.2367240736517 7.122475422528622 7.790420869820133
Co 8.860934341421682 6.791545545185446 8.111180322973164
Co 8.81317787654439 9.038329100424395 9.226608114812981
Co 9.73478852529033 8.65115843214672 6.969392667039326
Co 11.009093052688277 11.659341547168534 9.296146275661286
Co 7.250039823554177 10.584440672759357 8.183574927390156
Co 10.21081892464088 10.251771482115618 10.836441767663413
Co 8.592265727948796 11.54054108521602 9.790127551419236
Co 7.411326340433074 8.431448469999753 7.321219386591459
Co 6.460070834816373 8.69454664478363 9.489664109831875
Co 11.148958471779123 9.313849596203678 8.788483829573872
Co 9.209525221638334 8.345752503009555 11.61763984418245
Co 7.610469994245165 9.89336617532845 11.110975300395385
Co 11.688191364191649 8.58878666231739 11.054545182620457
Co 10.368366535819067 7.259024123377267 9.862677115104823
