18
Energy = -96.60247987 eV
Co 9.039721646355545 9.43326660367308 10.186480461022782
Co 11.098268128582575 7.206890438448479 8.178347751291614
Co 8.865914022016998 7.493386725460138 8.538453099235957
Co 7.844091781403397 9.770139062214907 8.09978946529243
Co 11.301693412821766 9.25936931632516 9.161520505759375
Co 7.802079851532396 11.610409434370217 9.54496523024656
Co 10.296044097535601 7.508802115904584 10.3900205165402
Co 7.379646279078944 6.222279763889452 7.444894537434283
Co 6.4507295918884076 7.966173050052981 8.49044289525041
Co 11.803151794204226 11.423375953531721 9.859848480216945
Co 11.0403405096819 9.700295706607093 11.385867082601758
Co 11.56010101842873 11.832826806597945 12.103825923578638
Co 6.679678148094409 9.627236910433618 10.105305060401292
Co 9.95675697538133 9.041999204514017 7.210072856555662
Co 9.719210528015426 11.596163471105912 10.832327412923545
Co 9.890107004076468 11.047243905983432 8.54313369146311
Co 7.92095141007283 8.152579941617372 6.413506871492292
Co 7.664155922943007 7.553220863355864 10.446866191827898
