14
Energy = -73.53001343 eV
Co 5.103326844257257 4.987669575772647 9.166542440296265
Co 6.253189074525328 7.053364904512466 8.87650631213669
Co 9.078437409439328 8.729200348712267 6.350084077536041
Co 7.199898786950085 7.262802794585624 5.865666000703829
Co 7.335469337727123 4.9609555416465145 8.59214426417904
Co 7.843937246434589 5.029335445891314 6.330420093214106
Co 6.938912242227645 9.51071887311626 5.5696819599110645
Co 4.016798982817853 6.768195600905037 8.376978429133407
Co 5.31405168513352 8.062485557463749 6.9183623544521975
Co 7.265332539096104 8.82352376864243 7.776249914922308
Co 8.47401350127444 6.7791286220449685 7.734232341669083
Co 5.730279163222538 5.686642380940544 7.070285685155296
Co 9.437047998236068 6.5438374263714225 5.567204838116755
Co 8.461790738198902 8.254624708935255 4.258126838114843
