28
Energy = -158.27236695 eV
Co 9.464000743552257 11.035704955029543 7.0110371733386065
Co 10.09639127281674 8.955561653903716 6.240661801718026
Co 7.3652945322843975 11.395817780919367 8.048586497013794
Co 11.849304366522441 8.158954698776347 7.506770611823305
Co 8.644225498231933 13.247407115280195 8.277984480670542
Co 11.710344748248144 10.517335001357374 7.781863619564088
Co 10.974584806553281 12.70955461608826 7.948276618899413
Co 9.537213572095482 11.400784792922671 9.31874312160936
Co 7.938216094073171 9.17455745586743 7.34264181081995
Co 10.00437769081041 9.204091445076791 8.6227198390893
Co 7.693773362753862 12.180058966073394 10.364582182355315
Co 10.36074039936615 9.903303450779921 11.05177436504832
Co 10.249233782227533 13.618426554763774 9.910627305219757
Co 9.744797529784735 12.141071110449372 11.540024304953288
Co 12.176397812448405 9.155936551064814 9.70477350442273
Co 11.749885676097522 11.504369013299925 9.910987358884896
Co 11.332737322823174 7.875929874756616 11.551744733861993
Co 8.208416925462764 10.387548101226605 11.853371330240527
Co 11.03533225117384 7.042335841170739 9.352586040014751
Co 7.732540028280276 9.768982233018086 9.637933759134956
Co 9.112638920865663 7.9017671060444075 10.36759839739705
Co 9.136335484576222 8.31740019096665 12.585602803557483
Co 9.298818078462192 7.2249909507269505 7.661216255131868
Co 9.906856379150456 6.120914371347799 11.590899353866172
Co 7.070528926272179 8.372144973808496 11.435320399736687
Co 8.973753552732685 5.730432158744176 9.401655484019283
Co 7.356149087925811 7.4921162501191185 8.948537218626809
Co 7.624381282307168 6.1997314970013315 11.178394572238911
