22
Energy = -120.95634253 eV
Co 12.595966527388953 9.48608785281657 11.781011107960452
Co 6.666225502261528 9.391614647527733 11.020649082506008
Co 6.796673967849242 11.73480292676917 11.123900857766873
Co 8.615901623366092 8.227810010638011 12.501723943800735
Co 9.622210632243798 11.282045180747886 8.641919887672962
Co 8.013928713003253 10.481534412247463 12.578944548586177
Co 11.829575287529014 10.65814714161634 8.12801449457515
Co 9.30688547635956 7.7649028996942775 6.914459091584338
Co 7.830447833988932 8.392640672662214 8.878629674553553
Co 11.511602624784349 11.646724821612317 12.155993885829876
Co 11.062457456392902 10.499928193549808 10.324413166839985
Co 8.872011247899522 9.463905983058893 10.62647614991061
Co 7.465705652886353 10.67148508259171 9.21112176288451
Co 12.434057365963662 8.767213497367765 9.325345048571654
Co 10.272405342687922 9.782961758003886 12.57531654227213
Co 10.35227524403321 10.761974628143658 6.3865946543151555
Co 9.168875499085303 11.765741855981604 11.007207483699958
Co 10.778579101587395 8.176457355306392 10.96341021369717
Co 8.482774699966727 9.820075149434771 7.174326959537196
Co 10.152883462523171 8.882009814987477 8.71642295802476
Co 11.38984086715203 8.7451285152737 6.839769249745752
Co 13.291907675769366 10.82477771185452 10.087554448761448
