26
Energy = -146.16231282 eV
Co 11.147525317499086 9.076167251786051 15.342527301124894
Co 11.903076111013497 7.830889767561387 13.256395988417474
Co 12.921292216198369 9.059271934145254 11.534709301037868
Co 12.001526708664295 10.100777051961442 13.548045195194288
Co 10.595280492085218 8.527959682055487 11.332525437892416
Co 11.746352458297686 9.295697747883922 9.3493746221464
Co 13.480897666133794 11.478878074799228 12.222709735991616
Co 9.87056510754858 8.848060187743533 13.54365039176216
Co 13.327374910513347 10.929506885545754 9.90900544074382
Co 10.04488040691593 11.08581867146929 14.446158204291434
Co 11.382300943947401 10.747526394669364 11.36536597861173
Co 9.716932047359624 8.210088199822538 9.134314783607085
Co 12.415772402674497 10.72965758301039 7.54820730052035
Co 11.2753177418083 12.42736434671471 12.980901771166234
Co 9.191413150137379 10.674162725630282 12.323895647513014
Co 10.082804842512777 10.205604389449489 7.801769365110915
Co 11.160215371101994 11.654962883806467 9.212731506222278
Co 9.287918416476998 10.238542878653307 10.031759947072338
Co 12.352422365255528 12.947276356224409 10.831563178103897
Co 12.836260998629422 12.964404117177896 8.422223199549032
Co 8.933737579804005 12.779616880620807 13.12539555819275
Co 10.903508131473323 12.55425103278078 7.113723233042862
Co 8.991971864280286 12.242308757980508 8.815557364325702
Co 9.90854481633641 12.741422997995945 11.031047097380846
Co 7.803754329622231 11.868857857144492 10.879954677542445
Co 10.749426329456583 13.922895196814993 9.06853449137402
