24
Energy = -182.54257989 eV
Co 7.767201073018051 8.920077202493326 11.058936650820979
Co 6.982976607489732 7.456358594338699 9.92576777761565
Co 7.353098834057594 7.668127906707398 7.539227333311141
Co 11.188748777552023 10.902209823955287 10.988619276662778
Co 6.498637336346175 10.986391365071702 10.96706451336626
Co 10.056865755602178 9.192621585039317 11.506745888735876
Co 8.453079321287921 5.614933801503657 8.774561508652939
Co 10.063969532890011 12.938738276622471 9.777263575194146
Co 9.299501903004346 10.538417904872219 9.435341640945165
Co 7.125559690278999 11.419826206654959 7.223193442262622
Co 9.235741715177133 6.724268048166119 11.266422322020034
Co 9.965267979881876 7.165002870780582 6.9195815621987355
Co 8.51520185805371 9.3714975003864 7.036158214993905
Co 12.120930474786153 7.5791023385405625 7.569450554711909
Co 9.309914340341148 11.84116776316903 7.282448332765446
Co 6.982019911469983 9.775018033364299 8.91441551317968
Co 10.795823796645644 9.620977709725626 7.486800018658764
Co 7.623124393646933 12.087466693334424 9.289045136444802
Co 10.93547602864592 6.489344093968951 9.29629406143015
Co 11.551870494840339 8.818963418643321 9.63926023964929
Co 9.267950456971155 8.001993007138053 9.139967464321414
Co 8.574474171717144 11.383913124691883 11.65529667351022
Co 11.391936818273393 7.15325047384082 11.367302996134498
Co 11.581284311609124 11.114925211239195 8.674894058357262
