24
Energy = -134.18112648 eV
Co 12.128661997245796 13.39315796894004 10.071848969850954
Co 9.780280997516625 13.798605711602914 9.57391500275462
Co 13.033561058249727 11.338408429934864 9.104713951417073
Co 10.7953317679742 11.854576683117516 9.031959922973867
Co 12.557920297179747 11.409598191654895 11.379027700175937
Co 11.547347628012407 9.600964387296973 8.55533882757138
Co 10.514009263940721 12.466441312358455 11.448949316237734
Co 8.676005669176623 12.200467148730809 7.943948070673679
Co 12.937318182036902 9.346218665884525 10.41599843348907
Co 13.184115598001142 9.583746453964677 12.745973099377759
Co 10.48871656763939 10.16274940835622 10.71966193483769
Co 9.227826733536697 10.05329121182994 8.628073010181804
Co 8.571432773499229 11.938782712219773 10.238382852993821
Co 11.62117449198954 7.546806704945701 9.570877705784483
Co 11.06753774972285 10.425236949291865 12.920566606939506
Co 7.707533745086097 9.94442842229195 6.8993198398134
Co 11.418705800835067 8.305605537655438 11.8375692611408
Co 8.797996236525892 11.189746409734454 12.500849504641504
Co 9.875836373305875 7.975587811288647 7.9305814872695946
Co 6.958476420493944 10.811123243060845 8.78966842932524
Co 9.481403067883871 8.050632180437155 10.198681166623498
Co 7.580022511594684 8.45170137362626 8.681160359279692
Co 7.973965631542859 9.73872278822417 10.683555608948975
Co 9.219771491908553 8.925227590427358 12.487204662545055
