28
Energy = -157.4395474 eV
Co 6.798242133548748 10.607027993909108 14.448234882051917
Co 9.92931926394707 10.733540942806362 12.862841004456836
Co 11.475133474542556 11.908324340927313 14.180475887087582
Co 10.71101504512251 10.594891117416525 10.5835114616243
Co 11.79986710011955 12.106574609766884 7.4765956540099365
Co 9.58616529753403 13.05971772882036 13.363409775743337
Co 13.331197173089377 13.327907784209422 8.885824927387267
Co 8.526104492313342 9.981493251320554 11.012333189612672
Co 12.934798923935698 11.367858000911415 10.331116702781193
Co 11.112401823254293 12.812805319750833 9.53970239878535
Co 12.24293544125815 10.198037214810208 12.495531652816364
Co 14.47160413260882 10.214089810667558 11.709500583348655
Co 12.216818166546506 13.942345077044166 13.431780295988819
Co 9.764880435066654 11.164714170158827 8.602363351221914
Co 10.143051878899726 8.69389582727945 9.512793776269666
Co 11.869595697417768 10.058046371635227 8.56359818072437
Co 11.28930614435832 12.573608703863274 11.891033295855546
Co 13.873260435155514 11.276131994565727 8.15370604671477
Co 8.204241531911144 9.323644792791317 13.244059166751535
Co 14.294421240918089 9.515049793643925 9.577216335849208
Co 12.3637831817065 8.859195389679968 10.56141822458623
Co 13.551406718316562 12.150125193302937 12.698806364592901
Co 8.913370583118168 11.362850716979057 14.770264810432767
Co 9.146605990534269 12.334014001416906 10.837311713680661
Co 10.315531256996689 8.631261838701098 11.887679610021827
Co 14.946278713066167 12.304099211220995 10.53633942700168
Co 7.769928066060619 11.643598983608738 12.669123492352512
Co 13.134908503217991 13.75100569661537 11.110627159463753
