24
Energy = -133.04606258 eV
Co 13.979052490134617 13.657214524407163 8.600867202558746
Co 12.012758967522357 9.250039154663366 12.532529033360134
Co 11.050213061204891 11.168029324289568 13.54304079553628
Co 13.48073988479859 11.596285277134422 9.45150935765138
Co 8.695740071861158 8.628751308904176 10.469310163316814
Co 12.135238519260644 12.624425256940821 7.7304174554721286
Co 9.097399523473873 12.235479919473194 12.80911401893572
Co 9.737498258005889 8.486064914626086 12.800509857628894
Co 11.009276598849427 9.08673056200148 14.59442497460012
Co 9.918433081417657 12.706300230947555 10.727953704531
Co 7.599100022286788 12.382191058944233 10.981357074666642
Co 12.234904820087822 11.495823895505032 11.511437349749412
Co 14.112882032372884 11.784650279340386 7.188492150547727
Co 9.00839125067568 10.251856413217478 14.074929840289295
Co 12.154295689943336 13.400929447422326 10.134120677012643
Co 10.834394421075203 7.881153498791751 10.830406143432482
Co 12.299699249525911 9.520635145509496 10.085020203386279
Co 11.25016012999492 13.323339795313117 12.485951890690586
Co 12.540574419714593 10.149787523782177 7.8667293052640614
Co 7.966748302499692 10.322025769108023 11.974213439707496
Co 10.234647911100073 10.290836197022672 11.40267170376306
Co 11.042404273157375 11.334584424339852 9.25608255397064
Co 8.735348715929987 10.8508545834244 9.705286014082809
Co 10.326436192992459 9.172870374692792 8.838501474868279
