27
Energy = -152.42196816 eV
Co 13.598352986378467 11.118627639451015 14.33049594538673
Co 14.097912219871809 10.600612771785968 11.974716384414071
Co 13.172787682122237 11.97148948206765 10.322679893238327
Co 12.4322337358935 12.097447131405733 12.590015315675787
Co 14.010422215684137 9.979964608870338 9.44163762350166
Co 12.287832137120018 9.734574104012243 10.866308734274547
Co 11.342199035037709 13.375904030646769 10.998331023303464
Co 10.960765762656143 11.419363352291334 9.509552484036579
Co 12.16603429720212 9.76725430998043 13.225510503705973
Co 10.152546513925367 12.89257930767872 13.122081206799356
Co 11.257409030394367 11.470469631537503 14.571232118749279
Co 10.418704155007957 10.948799602172027 11.812808083704306
Co 11.838735730751964 9.560293624457673 8.429801796356749
Co 9.144795439729034 12.958842446492753 10.837585743282899
Co 11.862906156871354 7.729079832557621 9.918628043014934
Co 8.957295987145978 11.795631752009434 14.851462017900166
Co 13.005161007108372 11.558342083028986 8.061463837864281
Co 8.318062162719261 11.51300618454038 12.636510093113076
Co 9.690035025189973 9.915495967828317 13.802283772215894
Co 10.657996084686008 8.436426376257195 12.023047443063128
Co 11.667614119370544 13.460247034484889 8.739446948597793
Co 8.623350661529622 10.878866209351017 10.152268005920643
Co 10.027576955757104 9.035641931706328 9.864826328489674
Co 8.526690539337059 9.245806542139094 11.791502263513157
Co 9.48005022500288 10.333742581579873 8.000007055377163
Co 9.354955166064238 12.749955167660877 8.552222264923392
Co 10.957847526640053 11.8196324427379 7.078381292188335
