23
Energy = -127.71797432 eV
Co 8.345661728242966 11.713492921983999 10.416216136266671
Co 9.867590215029601 10.450438134554142 11.60975270832481
Co 9.730387676898415 10.003955147570439 9.256936765224776
Co 11.59877039425573 9.220340431303939 10.698773265920178
Co 6.004390591733878 10.871154459124094 10.700378202396783
Co 8.897430831716171 11.983025533087744 8.189889752307579
Co 10.573053448005288 10.844690129039394 7.076284465103655
Co 11.970143844829535 9.631099069151599 8.458166625621203
Co 7.152252199281193 10.502343441553599 8.830258679308097
Co 9.590093468831858 8.138231070886459 11.143205687926148
Co 7.762449754901653 9.538562407959757 10.998282885344505
Co 11.358613796928513 6.779133349762056 11.169147227637682
Co 8.403319858276232 10.011669661401566 6.956888149104382
Co 10.919272004326611 7.620881034502867 9.15449638924561
Co 10.346454882603965 8.52853489156692 7.118400356858589
Co 9.667820362746129 9.45297631871476 5.2097331224378225
Co 8.32757055178998 8.107675453808895 8.808210095214763
Co 6.068774370816726 8.628177462651118 9.684960457069792
Co 7.441052413487019 7.185503097265726 10.85167838419297
Co 9.307465350919255 6.148489897128817 9.964069356262652
Co 6.466126662758932 8.72254160042839 7.412438928527356
Co 8.28333529505068 7.7648012107954365 6.354585231571445
Co 9.557781897049063 6.362478208172848 7.677088790317729
