23
Energy = -126.21216695 eV
Co 7.555369033162398 10.607773511170105 5.800141790936584
Co 11.37779756263586 11.731478288772486 7.939240107204741
Co 7.015700453691827 12.301045895718078 7.2399486586077675
Co 6.836547574054738 10.109463663118577 7.94568034858005
Co 9.061731128399073 11.291442483683621 7.487943830033208
Co 9.93553732066681 11.286740161993126 9.658246765130666
Co 7.665252830280299 11.619725736690821 9.480645210496654
Co 8.69772364452997 8.987389809607254 6.947033381347445
Co 10.737382214122041 9.562816003373158 7.789894670208893
Co 8.533818871089716 6.482072753540678 10.103994520513695
Co 12.05551579138308 10.149224801000377 9.594600897444217
Co 10.858843905222686 7.537700659221816 13.001264915618167
Co 7.704033900544576 8.135877677446288 8.776445087301536
Co 9.903108767293892 7.412600549263763 8.435464754986745
Co 12.047054796883543 8.898411824887756 11.47508750952707
Co 8.674842491572903 11.15691976676202 11.619735172553979
Co 11.253733818830419 11.367347399339009 11.445645108231483
Co 12.102079631643521 7.974794002081913 8.906939755065025
Co 7.271796140926009 9.607742664284432 10.511044081970198
Co 9.475345931743902 9.08204374333985 10.018699694128548
Co 10.179343491002882 9.659507831195123 12.44401517756647
Co 10.689006291360114 7.203920469854413 10.718201422914742
Co 8.733363892812433 7.972993130291241 11.890637859531921
