29
Energy = -163.59514722 eV
Co 11.874744847420084 10.846187631917948 13.612256154221747
Co 9.596332756165877 10.795668117671974 13.333894117584364
Co 12.306387552780057 10.594545376124268 11.367458170645833
Co 13.228375798175932 8.884722727182613 12.65246360166511
Co 10.834156204993008 12.314461966196985 11.99398398939619
Co 7.403471914119386 10.458143387931925 12.71134730580205
Co 10.94331793441241 8.932546446356898 12.649767521693995
Co 12.002632688191307 12.656604516502378 9.991886453442199
Co 8.580772132242497 12.027573275385446 11.443843192900442
Co 9.755305827645165 13.362955016296166 9.846868664559471
Co 12.469273360101196 10.524544967237853 8.967948321810757
Co 13.38670171688043 8.82563150995305 10.342902462126407
Co 8.751548836592818 8.549113846816716 13.375643987081384
Co 10.175489489533117 11.093151469515718 9.883477801995284
Co 13.237204896681105 12.439832713463336 8.110661681406532
Co 8.966122251387354 9.563302552305135 11.3364453069623
Co 11.082983448856154 8.862469830480581 10.131790191724102
Co 7.396582377036241 13.071779575388959 9.78290345006494
Co 7.617169549070825 10.687588699763939 9.773803225754149
Co 11.013445514580825 12.121237606908004 7.837213242078251
Co 8.674231868236392 12.059820629799631 8.197490100750194
Co 11.989257563637695 7.227589639577038 11.437864433107508
Co 9.633585499419933 7.334094575770736 11.318277011409199
Co 8.8338533868554 8.622755959202243 9.269414484020672
Co 10.360124482776936 6.924081777893781 9.144573092795437
Co 10.504800271515956 9.713134998180255 7.86596964714892
Co 9.350990994495248 7.911124723333616 7.166082209880985
Co 8.099230287969082 9.850317531514808 7.465370645906761
Co 9.591190376050951 11.133459283021065 6.286034244666883
