24
Energy = -133.60828001 eV
Co 7.217043070902181 8.829967418849474 9.17640311653571
Co 7.071200655555566 10.79178265804406 10.46451272258484
Co 7.068176578720334 10.84918199480677 7.959390917406302
Co 6.288287304532797 8.767441261459828 11.26763774984949
Co 9.364473326445133 7.654516724760849 8.820561866296275
Co 8.237075525111504 9.680436545455759 12.202929989112754
Co 9.233745707997066 11.117004689156774 7.06367094185998
Co 8.354701338576996 9.04571657611869 7.147832387178733
Co 8.706493945552486 11.97431923639673 9.167002796502429
Co 9.102111501445298 11.749319116780217 11.499424376596005
Co 9.675467797687533 7.221735063224223 6.597850440215711
Co 8.365238341295552 7.728276420703199 10.948344125074197
Co 10.705884636594876 9.156904064566438 7.338600385717605
Co 10.607878655134517 12.916834078243383 10.174652057236822
Co 11.44647373950164 11.149238412501731 6.604001928182411
Co 11.212174633772896 10.837136899935063 11.114741217543502
Co 11.49572046470078 7.047854530407993 8.12103004236944
Co 10.198579736606755 10.522935554862665 13.160478410305345
Co 10.565644714476369 6.73832030052636 10.52194392109003
Co 10.385638837202984 8.698862369144717 11.755351324159676
Co 10.906520910540014 11.154859785135782 8.782599354988154
Co 9.196958922706592 9.814184755596612 10.006310513694105
Co 11.40381078280962 8.92764244306971 9.599895667383402
Co 12.703791395825396 7.138621623946961 10.017926271811355
