24
Energy = -133.99879483 eV
Co 11.666161684553858 8.376183028223794 9.091842081212398
Co 12.510190363394738 10.335654486987337 7.9943465986735385
Co 11.423483764095293 10.48633389134859 10.014005943632444
Co 9.788446355240023 7.222074497451904 7.881341469920385
Co 10.312793627409402 6.880598383515007 10.220531941795235
Co 10.627303526984452 11.086592136207887 12.094536656713682
Co 10.705660576896705 8.850739448499972 11.508963776963041
Co 9.436533752657132 9.186626510945299 9.511468795078684
Co 8.916862163288878 10.143536340938232 6.3537905914212836
Co 10.875565669503986 9.055019788314814 7.032570300700417
Co 10.292809880376616 11.058281414158794 8.054228912746336
Co 9.57228989196801 5.20089609604628 8.929848480937242
Co 9.279591187547862 11.509012407840778 10.246179372934671
Co 8.636585491988802 9.917156724949932 11.752242510760334
Co 8.661201379051482 7.568531483118742 11.620691052559337
Co 6.6946584636374205 10.21181907067231 6.479592200025092
Co 9.12568520361119 7.956917864589625 5.848167657823066
Co 8.064830721047258 6.741031037243144 9.48219727300206
Co 7.135901136596022 8.798377842619686 10.269920148346708
Co 7.930662112509839 10.901909238636183 8.372698202073144
Co 7.781211105449567 8.505474403411412 7.735650077215428
Co 6.970115449549961 11.068860992968359 10.439298451562994
Co 6.001486849778501 7.459005846820383 8.801744579167622
Co 5.91148177069313 9.800879192321515 8.585655052565713
