21
Energy = -114.87207665 eV
Co 11.558979678600416 8.418035473792413 11.045376549431339
Co 8.099442744383985 10.81568774535571 7.174296468623048
Co 8.765292224739119 11.107512269275327 9.375822859307991
Co 11.914896046284607 12.349985537351884 11.109967694016527
Co 11.866620318752421 10.423929901273953 12.377102745889156
Co 9.746622164138211 11.455297902593012 11.819691350216038
Co 9.54882230945607 7.289681662544773 11.203778653290671
Co 9.604496750507497 8.54839709602894 9.256314253509107
Co 10.316325175279282 10.30816027898881 7.772851410793066
Co 10.084972338531912 12.918985245829496 9.927655706915662
Co 7.4426241721222715 7.640119591542723 10.289331538164815
Co 9.691337223225323 12.550062968833215 7.709794761554978
Co 7.3806551443167825 9.324527931765806 8.785455360437423
Co 11.791682372901759 11.95537125652631 8.606477427336323
Co 11.026825588532144 10.463471259953137 10.121101766256029
Co 11.917665119972714 8.837992750268132 8.692104762770636
Co 11.129930663927809 6.809085555901291 9.467197041403223
Co 8.430140919087604 9.495826631153077 11.080838562177213
Co 10.322987423606781 10.982645164828998 13.941769451909718
Co 9.999637558715468 9.118163984978013 12.663779134154607
Co 8.811354133665944 8.64839994039098 7.090774049574179
