24
Energy = -133.22071653 eV
Co 9.486739252873244 7.575730976701371 11.479607400047197
Co 7.918515908190323 10.16888164864411 7.877091826624066
Co 12.208884051308315 9.723371070568035 9.384774110356322
Co 8.863605824281624 11.476665669412993 10.512262733826775
Co 7.809519915049095 12.303918619901582 8.618742093511843
Co 11.01450613791988 11.242654803871073 12.729197351031468
Co 11.0371269474232 7.004332629160546 13.131327113075905
Co 11.75614400486807 11.858875826141771 8.137200779619556
Co 6.791169987538019 10.645901946679679 9.911329243064039
Co 12.355165235554136 13.609553737235096 9.616102681747343
Co 10.409168471807257 9.652984428427388 11.18234705701307
Co 12.833117265348102 12.592299282146412 11.799273044521804
Co 9.527477325846027 11.92626848527525 7.105535427977223
Co 9.725127920202695 8.919694210372468 13.366584678211192
Co 10.471762104250528 8.12305435960971 9.256403773635824
Co 11.840338552922832 7.844908810928836 11.148468894076755
Co 13.595423212982515 11.708143534849658 9.693475607464153
Co 9.996661514558463 13.143508173349478 8.987699201479831
Co 10.026952376922942 10.381440750420847 8.722771685093576
Co 12.799015958411722 10.31185997700523 11.479395527965298
Co 8.157563286432536 9.85946389707119 12.012612133778086
Co 11.969598923118653 9.110727151800653 13.189497947821195
Co 8.420053247354229 9.054559913219784 9.894557247706622
Co 11.225655699657159 11.815701782501687 10.419738831679
