28
Energy = -156.39607825 eV
Co 8.9376381947804 11.925160112447498 13.506749902019788
Co 11.002688232931682 10.082869774762326 6.988653062655273
Co 8.71191393739688 13.048458334090391 8.890782169063563
Co 9.034819300824443 8.777622106729012 6.833415646967495
Co 8.683031358669034 10.97672523988683 9.870410345138517
Co 12.705435998608564 8.192502184410701 10.816135447012286
Co 13.900741023962357 9.930743433086487 9.996025406947767
Co 9.332936539987472 9.576080705682559 13.490341892695325
Co 12.991970599533044 10.869886315670385 11.996382822189641
Co 12.54774683057129 12.234630196340273 10.189500642850115
Co 11.219232844124194 11.08639918110415 13.865994000779253
Co 12.77333139143917 11.01582927540902 8.188086469971262
Co 10.276247769780799 11.363926562526018 11.716360942180263
Co 12.331255504172622 8.687178547198537 8.482422648987852
Co 9.693117094215047 9.006221172809907 11.174069633763574
Co 7.832707667539881 10.48088951915017 11.949100289902185
Co 7.852045202556505 8.860817167030998 9.706361345446975
Co 10.511508070395639 13.330103030897373 10.432138713095718
Co 9.955916964887768 9.080476769623193 8.821982416527032
Co 7.731243949394574 8.275335444543073 12.044222366773697
Co 11.590390978601052 10.115625382495177 10.155666729553756
Co 9.552803620290854 10.813036956375953 15.371323073557637
Co 8.421896989877945 12.777717154462275 11.30241146586777
Co 11.55758250607357 9.20899330697361 12.523266865826262
Co 10.633178834331147 11.82338259951983 8.680850715136993
Co 11.864552295969341 12.865226670063278 12.411288331579012
Co 8.781102302341145 10.862924410215124 7.589219483683342
Co 14.295013664241337 9.45328811399428 7.728886837324714
