25
Energy = -139.92660201 eV
Co 11.195463592764467 12.828313411122586 11.125623976307315
Co 12.3047872761943 8.480354459997422 9.552054743783042
Co 12.15910568685647 10.66591617295812 10.437245175630391
Co 7.998355248533514 10.525280771156844 12.776820386342955
Co 10.218083527724204 9.322253961270878 10.140350715843244
Co 8.889242293458754 9.803875847780242 8.263969188954347
Co 6.941909106529787 8.536464313593727 11.879582663288561
Co 11.862983471548915 12.395679485183573 8.70001750486207
Co 11.667011946365317 8.970739686111836 11.944013846727666
Co 10.211487662322904 10.866282146934765 12.100863923673094
Co 12.353728208851908 14.285046766960297 9.818403222418283
Co 9.87772497475632 11.622940395165179 9.630251686123058
Co 8.378313103015795 7.938808921351008 9.93276674263584
Co 13.48071505547205 10.70604178354461 8.633175723540873
Co 12.444596670355219 11.393554196626113 12.543040115097545
Co 9.260419371887622 8.630064278366008 12.198436215700601
Co 10.295491528915482 7.830083806024262 8.389411428191801
Co 10.486780097511485 7.123148521451881 10.775204889343721
Co 9.81374977622899 11.739161421794197 7.3527037590396915
Co 8.612232014082634 12.379602211560858 11.346050134360777
Co 11.303365500989264 10.077839048819449 8.092636307588638
Co 8.282605659386755 6.62108464552487 11.75223975250111
Co 7.939402062674574 10.225328663186183 10.527519298529764
Co 7.772765306714467 11.817442238158147 8.901049596959936
Co 13.534718769059184 12.499730757556884 10.471606914755762
