24
Energy = -134.02746039 eV
Co 8.105761199315763 12.801702891136292 9.820558591871
Co 8.501594736641497 8.41078491103822 11.750129757834616
Co 14.419936659804202 9.796698063272034 12.34874337184097
Co 9.533490532751129 11.144109020606175 9.021675580255671
Co 13.342474030355365 10.949783335517083 13.908493154595691
Co 11.359303846178229 9.59932258362647 8.957966675622474
Co 11.495093316057005 13.523566543717232 11.617724867019996
Co 12.370190353082808 13.096483247742402 13.642912214644532
Co 13.41590427612511 11.831486786934894 11.697822162137061
Co 11.765654358136372 11.812765161314879 8.062619418838258
Co 10.409083696338302 9.498194378093556 11.254243058776117
Co 10.341233172764962 13.37866402542441 9.440019043838252
Co 12.735333498098946 9.63118045621407 10.879436922300046
Co 11.347251651597608 11.208373943947104 12.812065951925872
Co 9.203021311459223 8.810901831718711 9.421773857601409
Co 12.182184537791963 9.100944161274125 13.012210213481262
Co 12.77677813675573 13.300225852671199 9.653781519164
Co 8.094092996999683 10.364526067784414 10.73124267518015
Co 9.132926422756508 10.418121481171202 12.981160942996025
Co 11.489017311226204 11.507010572345347 10.296888877348803
Co 9.343918463322062 14.301285729905565 11.433494954509344
Co 13.621778890306441 11.139800980097723 9.359509090849611
Co 10.001613909715326 13.033121471279971 13.45134717641197
Co 9.467487526714418 12.052601796919719 11.443209613923148
