28
Energy = -158.15379306 eV
Co 7.305630929510201 8.72872828173703 4.598910233170834
Co 9.572137201207815 9.033927048987058 5.242390307334051
Co 9.125203429841225 6.918423050596937 4.253517814915174
Co 8.280603399377418 10.85095552985115 5.008344943593406
Co 7.8679175679531355 7.1758108721930585 6.148219720306885
Co 7.321149039339167 9.691711249961692 6.7415410988494555
Co 8.732254505114147 5.119919690416497 5.933785997412932
Co 9.326356978281224 8.460822646335096 7.558579639109535
Co 5.759360480944883 7.945386730681785 6.585226639035988
Co 10.457809629206483 6.968619604462008 6.139779750102383
Co 11.409130201698675 9.130745173309757 6.864599646605917
Co 9.489877059003463 10.68761774342794 7.088178711143092
Co 9.158134490460787 6.07222173447268 7.95794402245061
Co 6.792273414784259 5.523089070809318 7.518147444990196
Co 5.010927201918957 6.972982117557529 8.742409920565516
Co 7.259096580393375 7.596707467816041 8.50154088218905
Co 11.14795349558017 7.402246661433371 8.50503726222088
Co 5.621006613362173 4.8389354651347265 9.398111511764634
Co 5.715685984621126 9.32178437857557 8.503878434106998
Co 10.568087462804382 9.659944164403877 9.063769861611881
Co 8.090172621629165 9.985722524013886 8.98289645344049
Co 6.263515882998006 10.699907934156009 10.27108593785473
Co 7.747299274857508 5.661869044507569 9.792068233650932
Co 9.191360827898048 7.756181158464712 9.881156699003265
Co 4.743835645303513 8.675771441848406 10.45103044123078
Co 5.896398703187783 6.637529690500406 10.858040502180017
Co 7.067599628254534 8.634949341339455 10.684178241813981
Co 8.085872134500136 6.8541405670385505 11.73228003337922
