28
Energy = -158.64938317 eV
Co 6.9402895518754475 10.687731745726325 12.362625898480799
Co 8.727199826585423 9.079572385122082 12.576545236926574
Co 10.288414370135174 7.315133938441932 12.737034846494565
Co 9.062736307493136 7.445533485811644 10.863875381227158
Co 7.280531303825006 9.108787772125563 10.681148378250139
Co 5.618847843039544 10.710212792256879 10.444386332141615
Co 7.686375580268761 7.467776723321276 8.867530554008248
Co 6.01226883321422 9.098030740714028 8.668039770534662
Co 6.3942036277042575 7.538985199839695 6.947773190059276
Co 7.130009543970603 12.440530652076117 10.815869962971473
Co 11.428219253017199 7.116415414995113 10.682302503718988
Co 8.848365455563567 10.892027246839232 11.048031486684492
Co 10.641268577614854 9.226472411870626 11.254770048299537
Co 10.122873323216421 7.042417445063362 8.689523432560163
Co 12.424435994817186 6.703515573627321 8.51855117140725
Co 9.114843693947874 12.62480990542864 9.447429302308656
Co 7.479410401359423 10.929401390176285 9.07323456583877
Co 7.885383507475865 9.284249257680017 7.263575484026756
Co 8.704654772227219 7.141539787647165 6.777756908827817
Co 9.268503603658534 9.267104737297906 9.256391555120226
Co 11.67613145770255 8.83541687328097 9.062804905616478
Co 11.099033942674813 6.725726309089735 6.608277551317566
Co 10.320835051230294 8.862428043934287 7.081737959811003
Co 10.844692051777471 11.071540830890779 9.633236976902694
Co 10.903950631674494 12.800404280564132 7.922359805640658
Co 12.615717619779154 8.45192783034999 6.968022443161377
Co 9.468153925964458 11.09069943129617 7.652170830026633
Co 11.817129697614655 10.658469531110043 7.552506391073372
