23
Energy = -127.01947572 eV
Co 13.846119540615367 9.180173033321633 8.431601850441904
Co 8.141388869800998 10.235725216566207 9.212450093053052
Co 7.436569809682551 10.092156865474786 12.805644896082988
Co 10.790259918687964 8.092184149797108 11.628630108411015
Co 11.018943537600512 13.030969105023162 9.095835988351938
Co 9.86234098752654 8.373339904921224 9.422380846236672
Co 8.874765547717306 8.207215730284192 13.044648838938201
Co 7.670776917184381 8.02265568913627 8.84523220341635
Co 12.296202042461342 12.112004283589911 10.821869965259706
Co 10.215051329207935 10.960411145093312 8.48986560031012
Co 12.572254693211255 11.146684000775792 8.745726862174239
Co 12.396241498092976 8.019558743779458 9.867430127008086
Co 6.918930822260865 9.085520476180983 10.838860473177709
Co 8.576994262231143 13.658315232387634 10.897244605479912
Co 9.156307745636942 9.750629729211646 11.36843880762067
Co 7.6408266498936905 11.586276319535948 11.059750651051449
Co 9.231713752185845 9.222261672986768 7.335674493180637
Co 9.98372188229264 11.911562531212677 10.759405020515162
Co 8.482548792899669 7.394191281404435 10.994530917297343
Co 8.579511447337623 12.614594266807119 8.94196851606018
Co 13.624505815075553 9.991702512784238 10.5076425774639
Co 11.583381429833487 9.088056069410769 7.99895027060996
Co 11.360589115648489 9.998537464396579 10.41123424552591
