26
Energy = -145.88592341 eV
Co 12.758883490860812 10.927136388418702 14.214647241806874
Co 11.950328612732443 9.106055007933282 12.953714881992296
Co 13.500474217913895 10.707060172021542 12.066472397041986
Co 13.161524129443213 8.692723501732814 10.921899186856864
Co 11.895171647373497 12.415030082322698 12.609244878322253
Co 10.51273442107759 10.808848357149538 13.52044822463391
Co 13.90932514208391 10.473097229489479 9.671152384510826
Co 11.394003805299322 10.589100457837095 11.141670538361133
Co 9.61418582461261 8.674051522048892 12.903615368281212
Co 13.089243659620328 12.448948293281715 10.532516726079308
Co 9.549614486372837 12.746329126851391 12.475682063239628
Co 10.792196434978464 8.302266417211175 10.949878824107858
Co 8.975535162336561 10.608536332533838 11.787399573610672
Co 11.882285597336503 9.197808303559844 9.097234312559728
Co 10.725171648821233 12.76940180578335 10.479968517748109
Co 11.834977697329215 11.501882925422729 8.8677732306006
Co 8.548566366297004 8.484063941531367 10.703608031004016
Co 9.815572105868032 8.149258734604365 8.690653979596961
Co 9.58700237207985 10.339868496941838 9.420975325203397
Co 8.490701937700036 12.434391114888884 10.293726567018052
Co 9.718346246936887 12.34073660916059 8.2535351649711
Co 10.783726620633034 10.167519450992401 7.335594626934692
Co 7.25342711751469 10.416309045843306 10.19361474153997
Co 7.54395720354875 8.820710574457399 8.623411939872033
Co 8.565279256500629 10.130407514245105 7.144091157947852
Co 7.468275424065057 11.666459148431784 8.324227630658118
