22
Energy = -121.81857447 eV
Co 12.088707425836164 10.114590122930192 9.77073806679323
Co 8.911484857971343 10.141247347405717 6.414157439150835
Co 10.7344763931973 10.158381891017132 7.675583615780684
Co 11.601542761703092 8.13728533714346 8.567308662183356
Co 11.8457368491382 12.03383294514064 8.443386757106275
Co 11.978690790223657 6.241522527508029 9.762683757772589
Co 11.620435174115014 8.115122860190052 11.020524829488973
Co 8.297221731480747 10.38188212548819 8.592505768514874
Co 10.271301041400898 11.66583747897577 10.048898633820478
Co 9.528770639145138 12.168179119546728 7.8883882574832205
Co 9.154663268024112 8.26087567028594 7.871148572231172
Co 10.641603139591135 10.22654668680365 11.91387908396901
Co 9.858011357465147 6.883693786223547 9.841866822275968
Co 9.96599665754505 9.243024965717492 9.845520783205304
Co 9.22437253278897 12.161092738933442 12.030460618053464
Co 8.02197670409069 12.22796062725397 9.93213560449436
Co 6.822621873441054 8.766351737203932 7.938875195829722
Co 9.339009621446706 8.253878865098445 11.857043287763762
Co 8.09760670897451 6.4651868379008555 11.190586458639405
Co 6.431534632623907 10.285699529000013 9.869859789775832
Co 7.704947340377626 8.230573160360805 9.907805777082801
Co 8.265951728355217 10.28987218039268 11.248465001094502
