28
Energy = -158.58674001 eV
Co 9.774534771498795 11.926957877980396 11.92715458681459
Co 8.562295103875513 9.935638641729861 11.932450953734607
Co 12.017232188121612 11.726866496027322 11.90260283866248
Co 9.631628460866347 7.869136505060956 11.862606202860627
Co 13.12909413294673 9.782372180705174 11.929448356472783
Co 11.884763194750796 7.922303985004504 11.849244854373728
Co 10.98060504165339 12.388964536595333 9.736145318107132
Co 9.057424290645445 11.103692812050147 9.875712126383654
Co 12.815175824158807 10.960694060935412 9.745512737121581
Co 8.974529535873558 8.806982408734768 9.841016451253163
Co 12.752348033688785 8.70644055506769 9.714675326992484
Co 10.820961195705578 7.4195285580445125 9.661730425496401
Co 9.603266193400328 11.882969364685517 7.763555842484159
Co 11.912245435364733 11.7264288164461 7.671288626221465
Co 8.149141505908153 10.014496211739374 7.905766676423047
Co 9.484021537631744 8.060281299138772 7.707809148732745
Co 11.799917973854607 8.084244233429581 7.611333360933297
Co 10.692767456052131 9.845676161247967 13.12743674323922
Co 10.977397415729882 9.870421095201248 10.911405782559484
Co 10.934180928924064 9.915404789805825 8.592885360214504
Co 10.1107908492664 9.968020268177572 6.487390088620969
Co 8.928853164810942 13.397974265387623 10.163629328110746
Co 7.369313308966017 12.176023729203223 8.829415175604964
Co 7.396661869458619 11.96614336842126 11.22929357773432
Co 6.92074983193938 10.020612737686697 9.938938732849156
Co 7.262932523397035 7.994955651818571 11.160168313942924
Co 7.221869541189286 7.882526203688083 8.7581791368854
Co 8.705625940542031 6.51765249398253 10.032906283392311
