25
Energy = -139.71978535 eV
Co 11.392101993617509 10.501132582914664 6.145084747424917
Co 12.008911437447432 8.3183344475121 6.58478354849779
Co 9.184338345915243 11.210123450028574 6.5849330686799945
Co 7.603206490909013 9.669010794607965 7.2206649127079885
Co 9.962523168309554 9.177766976033032 7.499292532840766
Co 12.274957471507424 9.779064676035903 8.309184700578347
Co 10.78908356105846 11.494565164228401 8.182633218666775
Co 8.27023331601832 8.435958598915937 9.022815463149465
Co 8.639778890144786 10.906879895154459 8.964327549919657
Co 11.411289217482544 7.632741583707512 8.725788081088384
Co 9.521621152314504 6.538717933360007 9.283716732596625
Co 6.409321266444001 10.30031594092252 9.136002852869758
Co 9.843040629692 12.749440973400596 9.889337579425826
Co 10.331948528179689 9.385376840878445 9.954776689647641
Co 8.396727444450327 7.401064153386295 11.134420857684313
Co 7.515626969976089 9.613945461031978 10.942897357116466
Co 7.5283650662786 11.935033210867852 10.712431851871182
Co 12.68052712740529 8.844242541561893 10.33232917704497
Co 9.581619117952535 11.178432351068508 11.469240093943476
Co 11.669227894753861 11.273464061019762 10.336281105405888
Co 10.755354333036978 7.419868153703939 11.077044869148887
Co 11.550548230508127 9.699660280231356 12.082792254679244
Co 7.295060635344389 8.524126081452101 12.967987263933733
Co 9.418695932579952 8.999477711380587 12.404649070584982
Co 7.788521874599829 10.833886232522222 12.85921451641848
