25
Energy = -138.38977937 eV
Co 11.243832457722604 9.997984343527863 9.756317693249272
Co 11.873541245958087 7.864050238403372 9.316911460217865
Co 9.259471458456568 11.803774481199365 12.408810044670052
Co 13.545135030393151 10.079539350481815 9.709065990591974
Co 9.19511949970434 10.03690068166422 6.643955464131059
Co 9.376408535586638 10.261929926651032 14.028014703427047
Co 10.364156993768841 12.3016674103286 10.379410419209181
Co 7.773466113647769 10.11316757035484 8.450476670241667
Co 12.389771802536336 13.625529404705368 10.277429242995263
Co 11.07503831810132 13.368067482299287 12.29759282269629
Co 9.730121626202752 6.609338317406564 9.252633290531062
Co 10.706922603944253 13.543573439585852 8.40400499077473
Co 12.250848462227204 11.855436245760542 8.864561932551181
Co 8.08250818786908 8.228936680255709 9.847439186932439
Co 10.376584460369639 14.612378282656584 10.455904188353792
Co 9.810122471808892 8.784015077510535 8.409868784712044
Co 12.599152160346234 8.930499731633962 11.391762585249158
Co 8.930242385176337 10.40768419497548 10.418566955871572
Co 10.256719379040039 7.980408226967278 10.955432517803423
Co 8.493476326274223 6.689723244767028 11.433186008719554
Co 12.419523035605351 11.4372942656316 11.395311951927951
Co 8.558038292992837 8.97092575732651 12.242379815317944
Co 9.916119329718661 11.343526640501471 8.248948688937155
Co 10.670397695716565 9.94390064232748 12.163049597653412
Co 11.421242702919796 11.527708939165466 13.566925569322
