21
Energy = -115.76080459 eV
Co 11.011073861674326 9.877501158282342 12.821680204632553
Co 7.011958172308083 8.721462697261845 8.587546922516363
Co 10.7432511442425 12.019170506569363 12.12773111196538
Co 11.573909853850132 8.950862361867602 7.0763649295609765
Co 10.064271983408737 10.433582647428507 8.108888587273068
Co 9.876454926462381 8.25414193580121 11.656987683921516
Co 7.891791988957002 10.368719687139734 7.2741311194545535
Co 8.10305856431539 10.501915738088753 9.600299528344127
Co 7.38154083365915 8.667230858885349 11.040362562919318
Co 9.038944475021959 8.260382979373064 9.454221081978703
Co 12.304089284061737 9.017178124685213 11.070076909320065
Co 12.320214321353607 10.281193004299977 8.91060112735032
Co 9.01858777952905 12.290318791840333 10.708235708338282
Co 9.242541584220056 8.482796083644224 7.236232026517035
Co 8.799225430434277 12.38727984872972 8.376106969888777
Co 10.445588154176248 10.268107392620339 10.485527853631735
Co 12.551689212795566 11.350057295001346 10.944180851561446
Co 10.942395268323974 12.235878121776672 9.337825385776055
Co 8.41921115334063 6.68737447222281 11.000573488078544
Co 8.708397150223442 10.300813676617107 12.025026892109548
Co 11.25251098675265 8.215614448519863 9.155897919375697
