27
Energy = -152.19902222 eV
Co 7.85571045728098 8.483620522138262 7.432846719939095
Co 5.999804416345274 9.491861115388156 8.405149921411779
Co 8.120991116654645 11.424036041320973 11.355426935413503
Co 8.06296241297128 5.532623625810586 8.746506118207456
Co 8.798051244693974 12.217508673584868 9.271328369671137
Co 11.28158098076301 8.049750278773779 6.527176754190609
Co 10.1374505611063 9.13639317647396 8.348600774419916
Co 6.361789572864359 7.19739964304376 8.69845595607096
Co 6.091086172883438 10.845881169284102 10.54259683905903
Co 8.612150678317885 9.147170905044964 11.570682766437871
Co 9.030190522158511 6.813794669549771 11.783485668615254
Co 10.610148014445723 11.378129708119882 8.138008594475263
Co 6.665226245049909 11.738333871678249 8.52065214670096
Co 10.337351610735222 10.129884911869308 6.118861065866089
Co 8.424827291305535 10.755750011526082 7.273195089364197
Co 12.176974012705553 9.56456828799412 9.657221171117572
Co 6.5465710691878085 8.554482737365573 10.58754722220315
Co 10.600804246504644 8.224568992856137 10.66788641805895
Co 7.084406255317518 6.168555094299166 10.734323209846174
Co 8.036767519020305 10.01822430663805 9.44922473612923
Co 10.194542075017708 10.567100749105947 10.355306357186015
Co 9.125560075042946 8.279563149507121 5.614513380371922
Co 8.501973553823346 7.669476824087936 9.634860966216985
Co 10.085626345853905 6.015083629868369 9.85078430541419
Co 12.30436799593528 9.897530357521168 7.419885397786557
Co 11.688128517942518 7.415656706426491 8.738947925909827
Co 9.60525336270448 6.887878959366945 7.635324288679962
