27
Energy = -151.73233263 eV
Co 14.414432086559149 10.102948077067184 11.361898080577054
Co 11.296473581281862 12.052983458517962 12.354750792328474
Co 12.163732798989706 10.454044808366975 10.83131257648829
Co 14.536045232136305 8.83960522334684 13.282587795809642
Co 9.864410512683792 10.16466717108696 11.91231994419688
Co 13.654050668797025 11.447667795590762 9.382720337269438
Co 8.627156225440078 9.014779025192485 10.332031186160005
Co 11.695287898656085 10.245502362216723 8.532652872177536
Co 10.897304151262306 8.611326893628846 10.275297188465649
Co 7.530379109204485 13.41383557512913 11.592559734147637
Co 9.731268835270258 13.287266232538158 11.08193173233001
Co 12.341537484705464 8.518188374745872 14.224270898368902
Co 10.198776682560352 13.468418266178652 8.65412706228656
Co 10.786989248301408 10.286254076917006 13.962372536263931
Co 8.133911596871306 12.813052611641986 9.37668898070155
Co 12.954688433903927 10.50794815546281 13.18771423303724
Co 10.554870845047102 8.200131322142306 12.686371230510133
Co 7.955391085569431 11.204706751293248 11.103305718610178
Co 11.89383675606865 12.780543294861108 10.11855512352897
Co 9.913060611337484 11.446875442416303 7.473304326196458
Co 12.067529732651865 12.368507693142059 7.817432936340911
Co 13.635368920061927 12.263752932164438 11.628122454269688
Co 9.963114212204866 11.26816549443784 9.790939827733837
Co 12.686314419294611 8.446067000225527 11.93876966664965
Co 9.069431961459133 12.069392955617987 12.983095912692624
Co 9.66175670702781 9.132261364906489 8.270042088136604
Co 7.9357364426496115 10.613610673394994 8.702053953037218
