29
Energy = -164.02839946 eV
Co 12.01362943561301 15.216369393435409 12.389850476657585
Co 11.795696024650349 14.69575280470979 9.925729603051611
Co 12.992267535375499 13.364287462935426 11.449174233326909
Co 10.49083118701514 14.090034112806531 13.772326449223069
Co 12.643082741026957 13.42757492210711 13.78753454629329
Co 10.563308497915468 13.674058485494992 11.55466209454422
Co 13.566647396978377 13.22735922658893 9.223390900949896
Co 9.353054108090438 13.630227903257035 9.677236390154324
Co 11.52008794323864 11.4158514226497 10.964513673875901
Co 13.095950208713546 11.353334077176171 12.8020397762122
Co 10.798669641037563 11.863438630267531 13.212759570018688
Co 11.30900413975499 12.628892265961879 8.997257204695332
Co 13.92812772173697 11.280818278374364 10.656372848456527
Co 13.016135991167713 11.077803105193308 8.517886587355774
Co 9.146359830411772 11.42492265587664 9.151864638075919
Co 13.855638873429651 9.23620772924104 12.0579382208052
Co 10.92016414514355 10.149030984721922 8.692617308356683
Co 12.577329321436753 9.430387050877975 10.23463353393158
Co 9.935010113602573 9.48452111136342 10.835926168558435
Co 9.127182650163867 11.804783805251132 11.432927286179783
Co 7.659938514831203 10.257714383691361 10.489021847909731
Co 11.634877701081777 9.579609393683441 12.59918711865517
Co 8.780617799051422 8.982020856701443 8.86797691485713
Co 11.963118206178455 7.529848621322162 11.398932969635101
Co 11.010169323234642 7.906641958127495 9.286817885432448
Co 9.32033192639615 10.088065692215949 13.045006608559
Co 10.03431023948212 7.803322322698545 12.561133820874902
Co 7.936890334515702 8.515250719311299 11.882549945774784
Co 9.148568609001389 7.268737291320678 10.406419845954629
