23
Energy = -127.68447808 eV
Co 12.504724203880565 12.573000315880938 10.113422194038112
Co 12.779375156864235 12.092634206892551 12.399666962615356
Co 14.626310024229488 12.234050652226909 10.8746115387762
Co 11.180293037505715 11.077249422280834 8.850508391598401
Co 10.51676777623565 12.46255595110189 11.44817529630702
Co 10.404534212064414 13.30557485225808 9.30623296379553
Co 13.568520669295086 10.570241341773338 9.525041807766845
Co 9.272751093709381 11.878219121105671 7.81933983803451
Co 14.18103444488648 10.247631668848616 11.794077885057936
Co 11.968477241786987 10.459364756442566 11.095074558726335
Co 12.949684416012401 8.358198276411537 11.07878880287166
Co 8.341387208414192 12.254050548830806 9.886911598994077
Co 7.129721306620811 11.113611341461002 8.22424093428596
Co 12.434417578710205 9.431896569768558 13.139032984163848
Co 9.038778276781567 9.681105749403361 8.46860464613706
Co 9.624016702936167 10.396705316773005 10.60733804891005
Co 11.129567745732642 8.843264287439897 9.47428949940185
Co 10.698953411423076 8.523330053720201 11.782178257594545
Co 8.414023224085788 11.625857849148412 12.184452977280777
Co 10.42240333554826 10.66881110770556 12.967958381175015
Co 7.412932059475752 10.041959731407422 10.185730699505472
Co 8.910562239747854 8.13962419209569 10.33388688281413
Co 8.460266638089756 9.31290903493851 12.32335985037802
