25
Energy = -140.54957124 eV
Co 8.991452254559322 10.81339757055685 5.849611422201988
Co 7.9543193453241585 9.388264653599446 7.243076442865239
Co 9.25023352828626 7.458888791090191 7.135103579290136
Co 10.36775889644966 11.83342089953981 7.363476231234986
Co 8.126128145119582 11.66184728047971 7.911023818109171
Co 10.375062058431093 9.52527764465471 7.214692638865985
Co 10.317726364268797 8.02048790314166 9.1206885089715
Co 7.875643344998652 7.80541092069913 9.02342865843407
Co 9.160099367814773 10.10391675768424 9.294094504853417
Co 9.302810959002377 5.990802495217761 9.215535240598337
Co 11.492820149392523 10.644725224963379 9.071972313273488
Co 11.492682738345545 11.546238572214504 11.187598265959133
Co 12.361431366655989 8.676750544843298 8.332341038759855
Co 9.918008369600571 12.332649137491396 9.641633844165284
Co 10.030587162848887 7.025215683206349 11.258181255762707
Co 6.8224106763666805 9.97403398586681 9.299841591087677
Co 10.862956281204287 9.335619972622156 11.07576015538403
Co 7.801089679544273 6.461591077243787 10.883364961361234
Co 12.172555617961816 7.523248202786631 10.39985788071249
Co 7.593580182861036 11.984787070222827 10.135874624534853
Co 13.04942762439549 9.654969836386282 10.423015211236237
Co 6.22358283459138 8.285688172877567 10.733240106488513
Co 8.45426903729352 8.728407294111554 11.122399761230136
Co 9.19715883414645 10.993572716087955 11.50006286075701
Co 6.927892958411747 10.352475370287404 11.685812861737679
