20
Energy = -110.14101595 eV
Co 6.552976548896397 9.877130984814947 10.180781297380367
Co 7.991673636737104 7.944038200436533 10.061703045704936
Co 9.299891113600852 7.820325246770034 7.985312745853169
Co 10.139009345986945 6.494037876118648 9.882778974719724
Co 11.675482244519515 7.761706282782134 8.525445057874581
Co 11.893406800426124 7.757973902147358 10.942987275161988
Co 9.634121484110816 7.801862890649602 11.89294864390641
Co 10.140980139743625 8.745639367194482 9.88669572057557
Co 10.56915347916767 9.925205468420183 7.866867393641013
Co 8.477365545377458 9.88690048924274 11.37515353566552
Co 8.258740715415833 9.89939154973747 8.699509257980333
Co 7.951351832850242 11.835131980081488 10.08033739507801
Co 9.259379180573156 12.000471945408382 8.004433435949473
Co 10.11759464576301 11.071376229377362 9.898102558662254
Co 11.634711554474581 12.103224620883614 8.55238711292202
Co 9.583264229231357 11.988071089643158 11.91045921107878
Co 10.058423813911837 13.323838169361396 9.913505558054448
Co 11.844011875368949 12.088789940362458 10.970287119936083
Co 10.884733654553358 9.908654498446657 11.822197502726569
Co 12.168367873995841 9.93238445213425 9.720141691687276
