25
Energy = -138.99907878 eV
Co 10.314925647955368 8.550317994415373 9.925062513345068
Co 11.748388013027363 8.016629121476777 8.202688621952143
Co 8.883197738144768 8.960753500408194 11.859467998949027
Co 9.032844829927685 12.664375430998708 6.125661082426937
Co 9.391560931887783 7.194715433820886 8.383200698723872
Co 6.527126721373578 10.196282206689412 9.086390609989481
Co 11.111479300840662 8.042767189575546 12.101777785132523
Co 8.828046143430917 10.372388898759336 9.718901524761206
Co 9.33524702939001 6.765900788500925 11.023496746221898
Co 7.80887460688169 8.85224514712815 7.69164681593894
Co 8.728808844418413 11.5658499094079 11.783960741471384
Co 9.998340017501656 9.539772692471512 7.752838308349674
Co 10.362462370023788 11.870837834306169 7.739512668355618
Co 12.650112850478502 8.820819463002112 10.285261322946777
Co 9.935513269179538 12.427354338063056 9.967663515810637
Co 13.237404301610173 7.326301456571887 11.893703943107921
Co 7.85200482375237 8.173417598089646 9.907070153493946
Co 11.492080508664268 10.573890173762496 9.28476234225901
Co 7.537039991189686 12.261998372064834 9.787741394119834
Co 8.09398158279593 11.239942961731227 7.61019521395007
Co 11.657916967994229 6.685651471284285 10.20490362244083
Co 10.747326371592944 10.423923562964859 11.471098023187388
Co 12.752702852163342 9.652317510791923 12.38552509281146
Co 8.715797866593816 13.48643206993505 8.23733922013302
Co 7.005248308456905 10.083546763055534 11.318561929396761
