20
Energy = -110.26088911 eV
Co 7.70558761556372 9.375409097113076 5.396852535179506
Co 6.5892880993911955 7.602971145093814 6.2417731326299775
Co 9.646973925617369 8.633517297228225 6.453844960872966
Co 8.558781982383131 6.954857750880972 5.283160815375504
Co 10.137064764725341 6.410817663288689 6.956933022041213
Co 8.520573212014309 10.484078199723793 7.306793153475867
Co 7.907942340271059 5.950606758243347 7.332393344540057
Co 5.979856290841921 6.9469289339764995 8.381128346187522
Co 10.815452012648274 10.188255586470481 7.763816132035833
Co 6.315796206455866 9.707522370091857 7.290847257456607
Co 7.979671523863923 8.188143055913468 8.184755416135326
Co 9.219570145313464 9.874737801933282 9.447334656556652
Co 9.210146039817037 6.1241191426635355 9.217551806506561
Co 7.08365635594984 5.116756120816528 9.316011880082966
Co 10.420521685545278 8.069822211387175 8.58578291029317
Co 6.078344781652585 8.955829517374735 9.531128267335383
Co 7.143502168186816 10.910974384605675 9.172073910103745
Co 7.46698101486419 7.170212675039501 10.283644538243392
Co 9.570613046307939 7.986781103089675 10.771760814441915
Co 7.68124024480669 9.37922264128441 11.113976556725342
