27
Energy = -150.8394703 eV
Co 11.723014592293596 11.086990979581946 11.453961104885417
Co 11.993205272895398 9.368875942972876 9.8668082155903
Co 8.143314264931163 12.217365429077546 10.022668746384262
Co 10.662395697286476 11.187923926176417 6.934730052322601
Co 9.148303584027959 12.640533033360628 7.983081892458201
Co 13.12239687405406 10.304181522806777 13.200428608142037
Co 10.098335386362068 10.180360714539749 13.08446868647798
Co 13.559187321457182 12.430976021197695 12.182990607846707
Co 12.590879856733869 12.72810948802035 9.941999265043018
Co 12.265034724954818 12.59278575093372 15.746546462269949
Co 10.701682265016013 10.765087299819408 15.365301574993962
Co 11.49776606368179 12.030220906431643 13.648546371827118
Co 10.62073829188905 11.40005608282842 9.30468866516702
Co 12.776703982287616 13.967489069722495 13.82597729871351
Co 10.578349370603203 9.267095916909483 8.122279005966057
Co 11.477081345649374 13.570454744318383 11.823648559942443
Co 14.0737747802401 12.145428142131902 14.450258519619315
Co 8.620258378251842 10.353174459813479 8.801827747050533
Co 9.74184942904875 9.76535942308523 10.784653332551244
Co 12.661785475959444 10.97690514511785 8.27172448841782
Co 9.64923437707517 12.07717408558117 11.70889798532437
Co 10.172383921356138 13.612752060371163 9.9069513116224
Co 13.792241599928104 10.784247681091637 10.408554208142993
Co 11.489703965913355 13.117050164870157 7.891855304544914
Co 11.671902059628131 8.78231039522041 12.069568322668506
Co 12.95166483898658 10.360149885132605 15.517591523538185
Co 11.569464241228706 8.855874713177535 14.401806368584788
