28
Energy = -157.24058543 eV
Co 11.443300214276448 13.361290213974284 6.740718740714859
Co 14.050676752711889 11.216781933030266 10.0656320162365
Co 13.759423221799752 8.949063278685891 10.645896271855722
Co 12.034411602756004 7.907271013036877 12.713124845885513
Co 12.02819759998205 9.30432435310525 14.48007155321426
Co 14.774058257552253 11.125793589368758 12.233721081064715
Co 12.45821835734124 10.479576590568145 11.751378340106074
Co 8.465075497355189 11.550890920806118 11.4186587693445
Co 8.76857919781358 11.170725461220847 13.605965185741665
Co 11.868418048555892 13.425076570416334 13.848897141081263
Co 10.243058522889159 10.580853459124032 10.42475367323936
Co 10.399250174390678 9.727794487004736 12.771800915619739
Co 9.515223694056946 13.665846192818268 7.854620315290983
Co 12.880290748904766 12.090535141282908 8.039030121207428
Co 13.110828484122061 12.783259576223255 12.043940427308307
Co 12.240512750860765 10.109906399956342 9.121916215595675
Co 13.928944577809705 9.099122178014778 12.960452341923698
Co 11.385840801332563 8.592859239940253 10.707867221639736
Co 11.955693452783926 12.29795035735387 10.147904783933122
Co 9.600798293138807 13.246910840630518 14.207356080884487
Co 11.246388723584005 14.220450483286074 11.457655247623498
Co 11.534933446340425 14.120762925022383 8.936991821209366
Co 10.929532147315742 11.309447236456071 14.536694108181669
Co 10.630493335711407 12.109931413953202 12.332632405870584
Co 13.135594589163414 11.321477676607403 13.876579843208512
Co 9.68800425969191 13.053252995199552 10.047646984991307
Co 8.954860619341021 13.765090584678592 12.092325759187922
Co 10.58706181868117 11.665547608891794 8.258329930978011
