27
Energy = -151.83453395 eV
Co 10.38165232583676 7.627929655111851 13.392914295912561
Co 14.707203298593292 11.381716367737233 13.555770281835214
Co 13.607981194411499 9.496799810830652 12.636407651734473
Co 12.940160967474117 10.263223827223868 14.784461437945463
Co 12.4677843797893 8.045574819463944 14.081097791007643
Co 13.134492549566176 12.639073329783441 14.890135119993602
Co 11.642346856675223 8.594084121487828 11.810616788577944
Co 14.39844784770249 11.484028847801675 11.239552280450269
Co 14.06666423461725 13.403101097559949 12.493220645168929
Co 12.45204949742448 11.54234596928846 12.878606668668526
Co 12.588777705894467 10.362190701374848 10.514775621673948
Co 14.328554299238244 13.580647901000285 10.164272105287102
Co 10.900153570405083 9.829632615647027 13.695277043900443
Co 13.155271558521438 11.961129948584738 8.900729616576816
Co 12.205324638236206 12.8427842568755 10.94400575561015
Co 10.862351124140794 12.113809260867555 14.457339487329252
Co 10.840471109663271 11.760989412578434 9.397115988865659
Co 10.51554974219766 10.664417341670564 11.483891093139881
Co 9.04354581819809 11.111230000306906 13.201286283505127
Co 12.049579196081034 13.971721998314774 13.290436911482876
Co 12.20175617048969 14.130149453250269 9.019936721875373
Co 10.152207288795902 12.937216402761695 12.377521274377616
Co 12.809872437474453 15.12554658523342 11.149406841032665
Co 10.154595879281684 13.881877886355122 10.163099106164466
Co 8.864286876557538 11.992169887346275 10.70359249120934
Co 10.626064783264606 15.232886509668718 11.96794576287456
Co 11.132555735174826 15.984699796545828 9.827734423992405
