21
Energy = -116.23228668 eV
Co 10.614922515428937 8.821761308336441 6.296443998046261
Co 10.876692667759665 7.419038497693703 8.08149930486726
Co 9.886842638078814 10.273405448459105 7.915515481010656
Co 11.91764952084182 9.402204587433198 8.562933065454798
Co 8.942541983413568 7.222406570907337 6.71353417895277
Co 11.50719568665051 7.601858191326198 10.291251616491763
Co 11.022339424622377 11.613475418850669 9.3831719907526
Co 8.303792808235613 9.370739758603516 6.478110118806993
Co 9.770284266219067 6.159572708152793 9.766975117081154
Co 8.8781522092681 8.254974334768693 8.864834134523974
Co 7.908870551678976 6.054713657128398 8.416779906558144
Co 9.313123561911832 7.764528473382428 11.285500023593457
Co 8.760845803380269 12.102483652516467 8.790438903966216
Co 6.769628105242478 8.07410161524454 7.934344151788702
Co 10.361902004495759 9.592895362100698 10.263033783458665
Co 9.183753268352579 11.490437643459215 10.91155729373656
Co 7.4601285512954325 10.252729545509347 8.455813766500473
Co 7.187208740636134 7.4110818896188855 10.190577987962024
Co 6.924780819529136 11.650570033351997 10.217223314220035
Co 7.9253759147400835 9.597456738628201 10.685990734316043
Co 5.837311115543485 9.304840076045572 9.760175846724454
