24
Energy = -133.83169625 eV
Co 6.919732410963483 5.7352308578802695 9.082978824005147
Co 7.716835688658859 6.123680294986095 11.086107811767379
Co 5.898324916964442 8.907733038089694 7.773246433443321
Co 6.785790775106224 7.948438161942822 9.93211939380074
Co 7.7358365142171674 7.4529774400493345 7.79797025791633
Co 9.182995700422213 6.375320922177615 9.22937451967484
Co 5.84783931190229 10.043791269503041 9.74169397331209
Co 8.892640407643992 8.08619837091919 10.870944901485634
Co 9.77779839706852 7.389157687995824 6.786990594268659
Co 7.7633396004825075 9.095533436371952 6.211187730270255
Co 6.757671598021398 11.001811937525165 7.161269601014175
Co 7.979573871770916 9.703461145227607 8.644482537905864
Co 11.100478392783197 7.344571850884746 10.576839014298864
Co 11.327593808546647 6.634239795311764 8.431138679533872
Co 7.254638435218507 11.826885399760773 9.327328052511888
Co 10.086494844533345 8.640152746379028 8.852162067708868
Co 7.839314844050396 10.100263599347482 11.034675443604929
Co 9.857683488157244 9.701911607072699 6.709400389085417
Co 10.51538211550765 9.67963958416588 11.076131268468885
Co 8.974097440679554 11.618673523276364 7.553979335295563
Co 11.845968081707127 8.59989186388975 7.307667079475658
Co 12.255796118289227 9.10999427907889 9.58331532427839
Co 9.454915554938403 11.19304021373627 9.806572341457644
Co 11.14443274079493 10.748159166896405 8.361360451901435
