24
Energy = -132.66299998 eV
Co 7.530288837828799 9.69831028851708 13.065677407892682
Co 12.40542851024827 10.148363871095386 9.532056845191244
Co 13.159486803205384 11.045309875934349 7.543247654815792
Co 8.784934441291961 8.629867374594543 11.408561212187928
Co 11.6931442872178 12.848628536874351 7.415771471277565
Co 10.339123195865923 8.016519930012436 13.068475283224627
Co 11.732469177170149 12.393758355429213 9.653451469777195
Co 13.742220448709563 12.963691725356709 8.688951209891407
Co 11.852700019657348 9.782570817478284 13.46329413220588
Co 7.61735904708622 12.707562395306727 9.803089597647462
Co 7.9107719164155625 10.85084613420268 11.052219101126314
Co 11.39007030332126 9.009429452143905 11.318727506660348
Co 13.527880800454083 10.049743665564332 11.604609910494432
Co 14.538078494992464 10.928324580705729 9.496780746472579
Co 9.254631418156068 9.276651094986043 14.58015427974125
Co 10.782234960782313 10.776241400726876 7.909823241831457
Co 8.258166447628604 10.777734130287325 8.666101919077018
Co 9.599818702707541 12.45136785895606 11.066604433141164
Co 8.160004163484473 7.567680842850607 13.446019295426293
Co 9.610704384142826 12.622266923746178 8.699161404797906
Co 13.665151587989858 12.341989765525943 11.022362512250847
Co 9.703582902154407 10.381099860637663 12.61012718106901
Co 11.682295109014273 11.372849822120195 11.777733738153673
Co 10.009588197930757 10.413643062541166 10.069647836460673
