29
Energy = -162.17488333 eV
Co 12.811093511174558 6.483105140414242 8.476178811387395
Co 6.7392939318178176 10.920782445286605 10.914762772654651
Co 8.436385641109558 7.829569574888437 7.335692648731462
Co 11.031055581585507 10.181560339721079 12.690251305749076
Co 13.831863433516743 13.499311437658235 11.342262787031876
Co 8.931503592266592 10.833810402121452 9.918755099220169
Co 12.734751287724349 11.500240102845837 11.4391565543591
Co 8.947385788441002 7.4505800490975265 9.499615911609006
Co 13.662868631285223 7.487581859028372 10.263942184166835
Co 11.375965381402814 10.921173105860918 9.516368482795704
Co 9.759347851958802 12.88123599496164 9.129247250738088
Co 10.671965921677424 7.135208793442867 7.929122568493529
Co 10.11976980666184 14.355817887118032 10.973957608704712
Co 8.993543965442154 11.290977195494207 7.597678177580266
Co 11.290594207646105 7.096720757654126 10.178843578980882
Co 8.235945631835724 12.83400393244412 10.887265026788265
Co 6.986756867470205 9.484745408643745 12.91490243835095
Co 7.772132010489843 8.851349096988812 10.90353457611709
Co 11.911664534753916 13.677007440702685 12.3616183792969
Co 7.559750301119395 9.533527086143122 8.640507861112523
Co 9.959433080970614 9.325424218049704 8.294987037183361
Co 10.220485131955856 9.047952413055087 10.778327802136513
Co 7.2031533482792325 12.036079125751689 8.932041293513162
Co 8.71559905581603 10.756178701698191 12.294285708538043
Co 12.201398757979385 8.715871106890027 8.736370546557024
Co 9.200707532508568 8.533588657526767 12.756003873892622
Co 12.479669161053843 9.274051573767082 10.996069866624444
Co 10.462405301568845 12.078875103473376 11.455325298780796
Co 11.921744382732848 13.23684376194227 10.031481311418345
