22
Energy = -121.39867326 eV
Co 13.163172412403958 11.074062775235785 10.759530081781445
Co 11.029616613862201 8.87255226350462 8.1700835890101
Co 6.912760298305757 6.716724191198858 9.070736852025993
Co 9.115257383512306 7.371329551519546 8.389892728847483
Co 9.269425005859137 9.578332415380128 11.822652707273319
Co 9.023253857140084 9.685094511152021 7.115797409911308
Co 12.840135444756807 8.812431360287867 9.645104711819783
Co 10.627025187798926 7.862099387911645 10.247834534682303
Co 10.128038714226367 11.27900625749374 8.38745478775163
Co 12.435983216537876 10.838300433200576 8.559799517381316
Co 11.205323602642306 10.426802545161767 6.528989449965214
Co 7.307227570738857 10.708999280009023 11.136617901060099
Co 9.193214683725161 11.68594812735227 10.44681047263481
Co 8.889740154904699 9.389466332624798 9.498791229865855
Co 11.48393452903766 12.444569063344147 10.105252027415021
Co 10.755079031602289 11.489996238261108 12.139635838960166
Co 7.201404206939163 8.668811049801125 12.256422008635486
Co 7.201640347069494 8.592423390962638 7.7825830753250544
Co 6.616670188911799 8.91924588539889 9.935177716500801
Co 8.357962141574507 7.457778889421322 10.689635885826922
Co 7.545068656794442 10.978474156699727 8.657377903143889
Co 11.123683329844951 10.103142336900735 10.405738564790605
