26
Energy = -146.29432179 eV
Co 8.617580929546012 10.673560774075593 13.901000344196483
Co 9.905330831714542 8.978855398260492 12.904493001574124
Co 10.179523338408018 11.312285309635717 12.32225041434372
Co 7.6129249852837235 9.166563953850234 12.4700604803842
Co 7.911379600772967 11.303953406832377 11.70589323195478
Co 11.744797477820551 9.67451712494751 11.521351263539298
Co 13.056392044795304 8.06630005223139 10.520273038093395
Co 10.788819976219475 7.6415398288604415 11.02341820648462
Co 8.322318535457557 7.476764712230634 11.129863864137253
Co 10.873607484888835 11.513947030036741 10.033706962184286
Co 9.427362298745425 9.589061128929453 10.754126552756215
Co 9.299635304536086 13.01215182223705 10.93222941947403
Co 7.208041547270988 9.380664630823595 10.077352540951878
Co 8.535886874324538 11.346698315648604 9.382387177666407
Co 10.253775992735411 9.868378538063228 8.39241387186761
Co 9.332334345388768 7.7850802442742175 9.117427880932981
Co 11.604353068484984 7.842045829398195 8.781919810312875
Co 8.069648903804811 9.323798341336854 7.830187030822481
Co 12.51033605369209 9.952278385611693 9.286878430701803
Co 9.91273282944659 13.114080654489497 8.629001814000583
Co 11.467632632229373 11.66234557030557 7.711519709063789
Co 12.174284359714665 9.351183705821427 7.114826341628626
Co 7.102443642323085 7.411397079840329 9.027888708569568
Co 9.06384080106766 11.505724509007424 7.169789904744299
Co 9.89090938568424 8.15820421028636 6.86703182685983
Co 10.409391988693926 10.154709635710766 5.941655767063621
