23
Energy = -127.66908883 eV
Co 7.57271640850497 9.86935396118746 5.525807973231743
Co 9.524324359571173 8.751662056047154 6.100653011331981
Co 7.443626645666057 8.052540731080015 6.981641375164043
Co 8.424277451942348 7.304749409635439 11.423543899607955
Co 7.089545792239472 10.247834086453206 7.762646368681196
Co 11.233410032227736 8.25007824586918 7.908282391451091
Co 9.16450289659284 10.93934794257403 6.852082643659941
Co 11.334065917197023 10.220134862937792 6.802980851366971
Co 7.768771196038533 7.156272317092444 9.201439070747517
Co 7.082721279604153 9.265274132016176 9.841820363248313
Co 7.746825622020409 11.244807950416675 11.202709095129713
Co 8.795454629383062 11.28988795681211 9.099241319461145
Co 7.516676216641176 9.224283714445347 12.233603029544344
Co 9.382613482050372 6.765282674344612 7.555684674018916
Co 9.030729406666872 9.011763789032038 8.331464883050602
Co 10.084160762580465 7.359843486396517 9.78164487314445
Co 9.292053890888534 9.500672147347633 10.6486439916749
Co 9.530279917104755 10.227658905772248 12.792637588012596
Co 10.02970748434553 11.802935871352018 10.96869569728602
Co 10.982354981715439 10.34504948943767 9.082597373958498
Co 12.118594288483717 8.381524758659712 10.063382718990095
Co 10.516405333976278 8.147748165453999 12.050621968209054
Co 11.532709746428898 10.130435451727884 11.395217451199702
