27
Energy = -149.88703345 eV
Co 12.890118016434645 9.990583195206902 7.438686340907679
Co 9.616389045071507 13.481983177292923 11.56508538363986
Co 14.52937756008597 10.478984086628524 9.008623704338074
Co 9.365232706547408 11.24036018638639 11.026388461010242
Co 12.172168855664502 11.693184730021784 14.795783147786183
Co 9.55542712852724 13.511082887256265 14.010701507224798
Co 8.51535954843373 11.55218762501499 13.08793382142829
Co 12.76406728622794 10.476054789083452 12.78518582038365
Co 14.02229962947274 8.311383955951657 8.652968845807322
Co 10.775163456735736 9.041756087867856 7.127438902348946
Co 10.013724327285358 10.16433630368321 9.057038467541059
Co 11.824341433365447 8.698729032117145 9.156987691036587
Co 10.199643046146633 12.504261620088434 9.301439861875702
Co 12.644690894169932 14.011203895901152 14.831583151841178
Co 13.173449236701849 12.791037541824803 12.913057560884765
Co 10.773106785914052 13.330952014613219 15.927802796171239
Co 11.809422375038132 12.76457092347026 10.899887044425418
Co 10.787288704410871 15.367060949151778 14.746369267856851
Co 11.418078712463478 14.350421377291593 12.824994779242994
Co 13.859139030384796 11.625721462785823 11.047322319628785
Co 10.955392626127352 11.298458284234117 7.30564792673649
Co 9.893611397742731 11.374321702641323 14.991097303978005
Co 13.454967920719913 9.37090816697545 10.711076859258025
Co 12.235221628486507 11.106055119924807 9.311051922458123
Co 10.303576750378145 9.768402344943881 13.277879588994514
Co 11.17726835113101 9.836052674687956 11.18045650503057
Co 10.858436290747193 11.913173943328111 12.848032705220792
