28
Energy = -154.11408091 eV
Co 8.745127786465732 10.673643702467995 9.600563769390204
Co 14.037724984782576 17.028610858577427 13.682862872744884
Co 13.147452557130768 13.514747723656662 12.297199902896462
Co 9.804084606923341 12.03160464704711 11.12446144815814
Co 11.842189320043179 11.550690359124847 14.738792617812166
Co 11.718294872539712 8.961455445712971 11.45116749394334
Co 13.846690242997317 11.8612002374005 13.661410498401745
Co 11.756241452558145 11.27279335736606 12.362407832867142
Co 14.549731550163049 14.434523385597913 14.053310847388776
Co 12.433935729647265 13.753555595800936 14.733805825600216
Co 14.511083348477223 15.382176467109222 12.024789251215967
Co 13.929842179836399 17.509225740024686 11.579987927944696
Co 12.434073323003226 15.532206944251548 13.175535487545735
Co 11.758224245625339 13.082485190670713 10.604553027904888
Co 9.938364558711855 8.65652091157841 9.953289175223354
Co 12.165023420249208 8.593982927408375 9.136745049356163
Co 13.842558201947812 9.358580020214017 10.64796996812024
Co 11.130237678942546 9.535747866370517 13.738779533854547
Co 10.307330464690866 12.294024427664645 8.910372601063893
Co 14.095763740044822 12.618938920820135 15.718150469347668
Co 9.632835288550673 9.904694006548043 11.877782755419162
Co 13.440691453227117 9.727648712833751 12.90046643059313
Co 13.307144674929598 15.686399047113925 15.49221430862981
Co 13.820632877762073 11.563095161948972 11.222575000404898
Co 9.721140532481222 11.48490440965145 13.615100369109925
Co 10.932443684983163 13.430328231384538 12.9363510848366
Co 11.961151549158098 10.805534285035797 9.922378879455257
Co 10.5343990220835 10.065712461923237 8.273493757075645
