20
Energy = -110.27118486 eV
Co 10.08955730080805 8.993855119232887 6.482496303446047
Co 9.559179254939188 11.237674857286615 6.918007204194325
Co 9.240040075499508 7.3363296088327115 7.909706219676685
Co 7.360490712638678 11.678500874568613 7.879141714349063
Co 8.175227933339084 9.49614288871388 7.774053555166203
Co 11.176028432826891 10.192074528777646 8.177213191189574
Co 6.036353829883924 9.93128525257358 8.558998723376579
Co 6.987524665725271 7.608882085342492 8.453859355795938
Co 11.48223408859991 7.815229201580243 7.933643975030672
Co 9.207552763898162 11.18882413282822 9.180215651723245
Co 7.470143252682365 9.08279712435842 10.13231390616236
Co 10.795190544038151 6.795316983334665 9.957316539241445
Co 9.87209565836941 8.879627530332927 9.636573714188328
Co 12.259499680342914 8.772649166416343 9.888158996701891
Co 8.976646919328806 10.364868742678635 11.413820936275059
Co 7.110806281233146 11.333273199171074 10.18433582899222
Co 8.502465537878537 6.927913909261877 10.131547606369006
Co 11.135913926802237 10.649262107178162 10.595606359097832
Co 10.843036140017645 8.469123557840584 11.703463904555095
Co 8.654385796070015 8.180741924612445 12.023899109390184
