23
Energy = -128.28912293 eV
Co 9.06005049281092 12.373552602183086 8.141334161821321
Co 10.200156797694211 10.84407094388197 6.543147524949103
Co 10.306169120435856 12.37694308617645 10.280980547319546
Co 11.560760243687174 12.213003984163517 7.948063242562938
Co 8.23606065015901 11.177841526149958 10.074802556780108
Co 8.143812938539902 10.082779716754564 7.908053214057447
Co 6.756526024055627 9.204212030886893 9.763778248796891
Co 7.805564979457179 7.540233732527031 8.28099516090682
Co 7.836624449035756 7.164797041697628 10.649569877867876
Co 8.15469438802579 9.473005194251469 11.768167175603743
Co 9.003469128641457 8.818027116519737 9.682901592909
Co 10.01931562006362 8.5744988956444 7.578127493364109
Co 10.299690325927209 10.167373903730702 11.08765631930148
Co 9.106249305518086 11.661957315927774 12.320650359295016
Co 10.277319305556842 10.571514219056452 8.772155514101303
Co 12.224495262745153 10.980639655737768 10.01126594628794
Co 12.136288336436692 9.859488116734303 7.696335064861021
Co 11.5873300017016 11.445108979330374 12.401960177693587
Co 11.456662247853732 8.57775811981437 9.613718744728557
Co 12.167353673530037 9.154886089177314 11.886294715342224
Co 10.243452282028548 9.658616630433215 13.274523954543278
Co 10.115571758486148 7.865295718118042 11.521911601206904
Co 9.828790304897563 6.727615717523963 9.347904595347247
