23
Energy = -127.66969811 eV
Co 10.443031903893207 7.022031563707383 6.290646959834038
Co 10.444585177332417 6.532807527494865 8.513429980204586
Co 10.35440743343005 6.321811010521465 10.905953392672947
Co 8.507313661594312 7.360494271060368 7.537550531518868
Co 8.429768378733877 6.850561105566291 9.922129287760463
Co 11.819067233782096 8.292218730286448 7.746362596357879
Co 11.176455582026762 8.198436719513786 9.926067868078947
Co 9.911740947166038 9.193024406829178 6.8898665616400185
Co 7.521104327887281 9.525709832884566 7.236621539199105
Co 9.045061756474102 9.065261372008683 9.105454785188334
Co 6.7509915727899195 8.246754996419096 9.093309163411394
Co 7.023388501053903 7.96171411024324 11.373173874439866
Co 5.972994897657709 10.418875161280019 8.646877304232934
Co 11.035775959013831 10.403363793886461 8.700628813737564
Co 12.890097449797866 9.67375794823499 9.613503670410598
Co 9.310265627563664 8.480470762851127 11.402270278159216
Co 11.019278413820492 10.155690235136445 11.153708465447751
Co 7.464889717493477 10.069847490897892 10.503529943830928
Co 6.822205044671326 11.767858872727293 7.012007135572874
Co 8.942146633455788 11.216655797610024 7.787480225854298
Co 9.434283330601486 11.398540481120007 10.086038308853968
Co 7.39213259732194 12.09145234269177 9.243770173536591
Co 8.951675333170272 10.59568844417883 12.203263975323194
