20
Energy = -109.54205338 eV
Co 9.803038935530568 9.91852796188785 6.123342496616157
Co 8.868307046981908 8.00133454465086 6.950447987446572
Co 7.558601044123707 9.865858855622607 7.363889826709146
Co 8.961900646998467 11.746676749796855 7.717335584527832
Co 11.498798069816926 8.899766235062248 7.280908545335886
Co 11.260204088678098 11.161009958139708 7.791675177582889
Co 9.176087419532026 7.202613054481935 9.188855589860063
Co 9.63313342701278 9.600816703341673 8.392212296211023
Co 7.4013038500927575 8.543573001422482 9.252790839807089
Co 7.787338947894862 10.82297777425414 9.586050821601665
Co 11.281725598441552 7.934800541874863 9.449392798575142
Co 10.053365724837763 11.633030220276472 9.836942940489797
Co 11.794230566789293 10.082036968865683 9.766772077183873
Co 9.488569361799543 9.303205474662345 10.65119603736205
Co 7.2939635316227065 9.303655365843024 11.429040864560221
Co 8.59549695841046 7.377345819043994 11.498052854248888
Co 8.667410660601506 11.209483516689804 11.756445245884265
Co 11.208588153759258 8.347217004403142 11.812071217528963
Co 10.967366886116478 10.655377567261656 11.85272747477386
Co 9.326089382449315 9.016212983909064 12.925369625184882
