27
Energy = -151.2653278 eV
Co 13.31962903774736 7.584199616388946 9.248344848168331
Co 12.480090497235254 9.506712093169568 8.420116542393927
Co 11.110816489881037 10.549345358631838 6.547763169529031
Co 11.287573830456493 7.37417888426474 8.248952476321545
Co 8.994768455720404 7.557167832698974 7.439190112721794
Co 10.17174644316274 9.406206573337768 8.295633330640625
Co 11.780150176344847 11.746602777139042 8.305886842110635
Co 11.600792852979858 8.222958309121758 10.535444155927872
Co 8.81738204346539 9.729659149382865 6.452460985040283
Co 6.916516751974577 8.516723163451283 6.9322406332047155
Co 9.517921374881098 7.372667879236184 9.752474613531712
Co 11.965681036500774 10.570765397060073 10.449552066935928
Co 11.479928997219325 7.684815411684572 12.697074763834678
Co 9.694634021999054 9.729458073204318 10.513971023452056
Co 9.403175821055962 11.641797881820445 7.788744610381472
Co 9.358692935068555 7.940906551476211 11.966282473975763
Co 10.957544315205103 9.89558651861719 12.441016815547933
Co 7.116165473007375 10.695450059028207 7.67899055122529
Co 10.240900741854125 12.06472817075785 10.036200891040256
Co 7.441517825593671 7.341711805987493 10.841889756893712
Co 7.817059972433629 8.863865965974233 9.05012067884743
Co 8.056409122667612 11.279343593227926 9.699826968037028
Co 11.307548491725894 12.109317168426276 12.12379803270717
Co 6.002184310344679 10.240055010336281 9.740008019931482
Co 9.083075177765823 11.463498534845943 11.969078668300455
Co 6.731933894095049 11.591532207667461 11.572300011001872
Co 7.550265130286124 9.524851233732988 11.456742178968518
