26
Energy = -145.68246562 eV
Co 8.982521897350384 7.686697694998298 13.706641573189376
Co 10.813087606889066 11.428412804560681 9.602336164582345
Co 9.338714512016045 10.015514390371536 13.170347160480986
Co 12.109431013758812 13.65044987483478 7.329617444662104
Co 10.358451141526967 12.114299667799163 7.438909818172008
Co 12.394407382518168 9.553365456044688 9.575250544878845
Co 8.428158017495395 8.981034186340883 10.931881086723203
Co 10.358445648652092 8.301649867962157 9.447925003059593
Co 10.70463434362908 9.724659372715099 11.295032830083546
Co 12.931308132522478 9.86541961503857 11.914252409377383
Co 12.083512723975009 7.731792664762909 11.100443239512574
Co 9.87465625384791 7.370594349266696 11.658367762326304
Co 8.931174056236348 10.15810716680412 8.981518788216507
Co 11.165494753198784 8.477020816760236 13.23100280455617
Co 10.930734890776346 9.817691489481762 7.7825008248995715
Co 8.641391581252604 12.472091841208666 9.138730448868913
Co 9.881448843242602 12.293971651750676 13.02152013865608
Co 10.270636717212469 14.09247749701831 8.640250992551268
Co 12.606914635146074 11.564290108070288 8.09530359903017
Co 13.586832905097594 11.455243689830736 10.256691684382112
Co 7.349446976024821 8.976565261486195 12.864804490712102
Co 10.070041953763742 13.277931907145227 10.868499343492521
Co 11.545912352046772 10.752887320852953 13.660712447787112
Co 8.82505774230001 11.277220060992805 11.196109224973881
Co 12.212672709390198 13.320352412007297 9.656381291486632
Co 11.84389524061543 11.931638075636974 11.708737834369174
