29
Energy = -164.10984353 eV
Co 10.059086538603058 10.537926783736625 6.871881088614727
Co 10.415202661396632 8.251769230530305 7.435936123073571
Co 8.186220980445274 9.197706675960914 7.098612766855436
Co 8.084875037896149 11.214939841560252 8.322556116088942
Co 11.891134111863963 9.949001500383595 8.303613454766577
Co 10.329394794463022 11.711474057574947 8.787080452078238
Co 6.345033639910024 7.786253992310608 7.009853905564436
Co 10.807502218717962 5.968007856918043 7.546761664064504
Co 8.548958880235947 6.883923016341901 7.219189665507166
Co 6.217380916324328 9.863467685158362 8.231565665554493
Co 12.507842708574243 7.596252253968274 7.98992718421187
Co 6.303794532440583 12.036432785156597 9.511277119167724
Co 9.46051203959469 9.417830596057287 9.325589345357185
Co 12.563445127827244 12.147624236824184 9.173340280255347
Co 7.4384890192017155 8.002916782913616 8.998562386928953
Co 8.516452530875851 13.008897330716698 9.758329633725317
Co 9.624687876869352 6.905645035318878 9.316021956045574
Co 7.300044976188109 10.067662736451485 10.311124326278842
Co 11.759965520040122 5.998198160582939 9.64470083759863
Co 10.840448837381818 12.972565984943355 10.572478373696038
Co 11.54700907571409 8.269700298823441 9.955471632997185
Co 11.64821005630392 10.636963203806427 10.534103412430472
Co 9.345954357657181 11.254965183122996 11.0251835711742
Co 8.429386387483177 8.050131128997608 11.1245821400781
Co 7.266293527588814 12.05389413914925 11.583059576786724
Co 10.338485416870592 9.22012046480258 11.864790392649509
Co 10.456581271187595 6.894761001966319 11.51267795487972
Co 8.139174344394448 9.917450224968094 12.495954411864501
Co 9.212382916303095 7.879391235884377 13.297427998265901
