23
Energy = -127.40401732 eV
Co 11.640627048478322 10.177399289314303 10.832387885492858
Co 12.645098529645406 10.061964661688345 8.379346404437554
Co 10.51137597973417 10.765978976018813 8.872890754127623
Co 7.16504889986159 10.867952622726476 10.980026244582945
Co 8.386756895687759 12.021089172628914 9.2510876315199
Co 11.338000971770468 8.499484977256236 9.360951751735568
Co 9.544923493750298 11.000163601496958 11.079484464177265
Co 11.060398545858465 10.328180139957865 6.704154246266953
Co 11.077319458931136 6.721989020881141 10.779795943368466
Co 8.655048405827596 10.788064097466458 7.284659570592945
Co 6.53057790292258 10.675227183028547 8.593663477270994
Co 11.86876688320937 8.13704901505434 7.204299059626375
Co 7.3466572499741805 8.823200655468659 7.384470555770144
Co 6.252013782428635 12.567683073508304 9.784625942913404
Co 9.72751459988721 8.597946398796406 11.128979554893943
Co 10.33362283789422 6.566545322428171 8.570305368140966
Co 8.421816355302882 9.656487957958431 9.421156779958395
Co 8.34378837810219 9.76658983096457 12.622812851895812
Co 9.69108254318314 8.683389376816574 7.511448658190491
Co 8.66663557299503 6.711863069479077 6.957889821935977
Co 8.214053189534265 7.358288320403762 9.062944111200043
Co 8.830252265459277 6.495163989852171 11.012353943358352
Co 7.342836267322668 8.415076127999981 11.061186249228912
