21
Energy = -114.52908705 eV
Co 9.794878388609115 12.122688430810527 8.503556893124653
Co 12.460451703371037 8.8631766922637 10.387603521948058
Co 9.556484966112825 7.088173127509257 10.873226723247805
Co 10.776547372929977 11.78968789574005 10.55059551264136
Co 11.78662101508163 6.644490446721563 10.506581879786294
Co 8.514408638713252 10.947844592427103 10.07038696514106
Co 6.462159983365671 11.885855223466155 9.71557588666405
Co 8.266146994987622 9.831028046522327 6.171552864355877
Co 6.535043919370522 9.706224231259352 10.17851011742832
Co 13.026238879093809 11.236696693731108 10.357143102780526
Co 8.29034032465574 8.406698987548397 9.465623918097771
Co 11.55007641117277 10.38740675108487 8.845510089307718
Co 8.844513309776664 7.8363072499984145 7.264603967094873
Co 11.184153519828323 8.035414580240003 12.211115458215229
Co 7.614408531269312 11.328434111514705 7.895859347205931
Co 6.863014130065431 9.121075153097074 7.86634846243274
Co 10.240817147384877 9.494896652827613 10.696442808072655
Co 9.514260698320454 9.876854128209455 8.053620478800829
Co 11.900908745999535 10.376553042630169 12.072850588980478
Co 8.236868769876974 8.929918561200324 11.698745299505061
Co 10.61829826155412 7.924264368362713 8.955306508446379
