26
Energy = -146.21804295 eV
Co 10.359274658871568 8.007525694128793 11.60666188575427
Co 10.157867759036824 6.427212040625471 9.707583298790775
Co 11.391670259493281 8.25692844509939 9.457527977798614
Co 11.949207161794675 9.187341199731796 7.283823491942207
Co 8.909804547955405 8.305117522184199 9.726102431420385
Co 10.528083963601704 10.457601624089314 10.739964323099626
Co 12.37325197580861 9.195045963899053 11.496575614384907
Co 10.312185217970178 9.81489500301482 13.034575191990402
Co 9.953444129065344 7.789093047284109 7.63555783683977
Co 9.920973965843956 9.425635966718524 6.125907769474702
Co 12.636365606091461 10.177824191490775 9.335126812694126
Co 6.711587170808255 9.041608606307129 9.882765921331496
Co 8.049349667656822 9.254578873078852 7.821230791928425
Co 6.626248266570887 10.88353159810674 11.316114359783114
Co 10.289887517532838 12.016536635814687 13.765660846562712
Co 11.710322275470437 11.626991615709246 7.7846092241589036
Co 10.130714383428113 10.096119806713741 8.332778839692203
Co 13.879125383914436 10.933992845167037 11.142818600213708
Co 8.224831501387632 9.144871985073005 11.738798383996949
Co 8.251829470837547 10.741624428664599 9.733167545187944
Co 11.989992444007854 11.3586642637796 12.363282905528205
Co 12.18215834623509 12.247558632793158 10.149787679868846
Co 9.991373585026082 12.282766449091868 9.236568799616025
Co 8.722937164962486 11.318445201783225 12.202429111718237
Co 10.306517167194658 12.82627120697356 11.523272175892249
Co 8.126753774027211 12.867974517271627 10.54306554492582
