20
Energy = -108.85303343 eV
Co 11.038685123044495 10.314855717759928 8.431552158493663
Co 8.717123316039887 12.038161366500914 11.091939120392608
Co 11.649116086514097 9.589271068100308 12.306524878799237
Co 8.020407507234227 7.23676463966003 8.010655738731902
Co 10.205793973351097 10.282775403805774 10.631634335038557
Co 12.408142389450601 10.833629592240838 10.404148837894075
Co 9.70009000072487 8.239280055552948 11.60329373123949
Co 9.534734191856748 8.396967816611536 9.243566999040818
Co 7.90574853891837 9.684789161060545 10.800760212572763
Co 7.780103442731981 7.448675096327186 10.392687651303854
Co 9.215555323829424 9.390717425540421 7.120057280488384
Co 10.94813399782737 11.892419526784247 12.020360068257956
Co 11.344075897305162 8.14253380291915 7.81856314615019
Co 9.205202273109272 10.312039734269016 12.701576408631446
Co 7.5524229017425615 10.947324920254555 7.080470094970533
Co 9.720635541614152 7.307340133583051 6.505668110421931
Co 7.301429445517936 9.2773922007607 8.59130268996123
Co 10.644383281033559 12.405985493255939 9.680942355046705
Co 8.809771271246486 11.13629306498903 8.876523436104641
Co 11.730542720224557 8.554881003340599 10.119869969776458
