20
Energy = -109.44217298 eV
Co 9.142893828920782 11.245300719645035 6.516363749154898
Co 8.956000530586907 8.928499808135184 6.965583089070355
Co 10.945071657258735 10.197664479583935 7.472898403315957
Co 8.78753750235636 7.278639685064972 8.9567055754321
Co 7.602587132679125 10.473621073463608 8.06416843993215
Co 9.56218881958607 11.76450249398538 8.733229075280587
Co 6.94107942999967 8.157703192384139 7.82212203674473
Co 10.848641802876234 7.8657176719054425 8.02927683305271
Co 12.83637016375712 8.936176451792505 7.858221780508694
Co 9.453646975875767 9.513237609355663 9.183018529613937
Co 11.142494688918319 7.123508455728011 10.196764614775352
Co 11.739213860378461 9.31447617747956 9.74731599640656
Co 7.266842592602519 8.871384953411598 9.943326776945744
Co 9.41295661338374 12.714300975884624 10.855979530983142
Co 7.896500760733974 11.150317307762602 10.336151923792688
Co 9.379706221796726 8.180455658103176 11.106573520569553
Co 10.161908697377115 10.629049687664907 11.137985763012388
Co 11.414558386243502 8.89042319723614 11.938784266228128
Co 7.288128067085541 7.818589952273647 11.894781905913698
Co 8.172414560288061 9.897172741844063 12.191490481971492
