20
Energy = -109.87590865 eV
Co 8.999055375984112 6.730278673551613 8.287841459577919
Co 7.27210111682894 9.980632820453398 10.032730868061671
Co 9.798351338543824 7.9258504915773 12.102754061301116
Co 8.24226765359242 12.486835078261011 7.629645630462856
Co 9.418058103605524 11.508247743254975 9.319181334862792
Co 11.264575242161774 9.29639937573592 6.28027783730589
Co 6.0777439059850495 8.08208734876605 10.444011162315212
Co 7.522073791836817 8.85898901465405 12.130768721140377
Co 11.26356695380389 11.136032239505864 10.699565914972533
Co 11.119353682389407 8.824738355165465 10.323306647251902
Co 11.319884761363499 10.300774236188413 8.479307976925567
Co 9.269714538350476 9.241903217839377 8.852711054510877
Co 10.996758081046568 7.90403576220289 8.091203457067138
Co 7.14678861377901 8.182909504696607 8.371858410653584
Co 8.382448058235212 7.634616048799295 10.358838376325428
Co 9.638858823757582 10.76905300454416 6.970078199210548
Co 9.30040465497801 10.024716261945793 11.190766691874845
Co 10.50931862667253 6.633249061981031 10.123172055306432
Co 7.462032780185823 10.402476642025658 7.745719921216256
Co 9.115560086092634 8.470181251042927 6.684608569766439
