21
Energy = -116.47427944 eV
Co 12.01804631298251 8.54216319690291 10.612437575773832
Co 11.259416379867707 8.553955888960848 8.39595667915413
Co 10.490011076477149 8.562485377051813 6.155858617509322
Co 10.92527168866613 10.457246148576866 9.805624074038663
Co 10.200926768651943 10.474293869909506 7.527390545868065
Co 9.900272253729872 12.363240074625343 8.88883186133939
Co 9.881261279705477 9.07103707536281 11.384018272511277
Co 10.232481613366108 7.183547509721011 10.033065588379916
Co 9.469108932655852 7.191562315931086 7.728095573779685
Co 8.468816912992438 7.222336228451021 5.65968217739642
Co 9.05035143561408 9.127478554613349 9.160712240896824
Co 8.320009049462575 7.27600019330363 11.271401690763977
Co 8.104301523871095 6.130791389572323 9.281365334737691
Co 7.133365246703728 7.3222116479413675 7.504355499871101
Co 8.771376903966715 11.081646299533356 10.477078232029832
Co 8.358733251989577 9.203133899170929 6.818565746681161
Co 7.5056597464419275 9.411895083500808 11.683512066714552
Co 8.043747413758119 11.145717850359135 8.241862460213266
Co 6.254779487870698 9.486333219883903 7.764437124825078
Co 6.91006226908315 8.190730324861079 9.701822897015143
Co 6.565047105088233 10.458632537382242 9.834623139363755
