26
Energy = -145.35729548 eV
Co 13.542802868985806 12.85445131187127 10.248869637289678
Co 9.295405229156076 11.277203885291689 7.987441694581024
Co 11.983222381462955 9.053356607725378 9.829304233639482
Co 10.244244432636085 9.62866725236756 11.426203649547569
Co 12.988335507712904 12.675660829176001 12.638010511515574
Co 10.78199062191493 11.683785628861973 12.726998190124103
Co 8.573574395254838 11.055523750848863 10.277492803905686
Co 12.66925051254698 10.479746911091754 13.716272068578816
Co 11.280710374604647 10.075874981415236 7.6652924657745345
Co 12.074718163021682 14.220953362620069 9.069136819657306
Co 10.462679489837281 9.42220297607908 13.792662379361138
Co 12.67232507280396 10.818335662347993 11.288123740699186
Co 11.798729271935493 12.343740581934117 14.724065435675728
Co 13.13701046497295 10.995557604941917 8.94216918590663
Co 11.53580294081207 10.242739783454144 15.691314866021443
Co 12.203578064178137 8.713473682924848 12.19942816531292
Co 9.829213639563262 13.27011945878078 9.293118574370801
Co 9.679706383936537 9.24103312779995 9.143202525557507
Co 13.751480619089754 13.00814148531211 7.9371627809157275
Co 10.863388742631171 11.211652356214355 9.743848403630707
Co 9.676639967802252 11.356878622747685 14.697084319058298
Co 12.254640548389364 8.28957651143217 14.536826899245614
Co 9.139171986300855 12.84109006388411 11.52870755025301
Co 11.41890163026402 13.23766078761943 11.049454164193975
Co 8.626412994215586 10.720716040021069 12.618603427748392
Co 11.540822818173316 12.396834528318823 7.832267982536163
