27
Energy = -152.18619969 eV
Co 7.029791070165258 6.149371421401791 9.836951234068813
Co 5.722529069867128 7.150766073617526 8.210197120619515
Co 5.635691448754382 7.977062965394647 10.382722964420653
Co 7.919022669981459 8.05698950869504 10.780952988810327
Co 6.808250624782483 10.061493351992556 10.98587677750426
Co 6.812477689341178 8.482462845330575 6.517878205038872
Co 9.440014188733626 6.523529056896203 9.730749237425675
Co 8.050939487589234 7.1289770033260895 7.915028265863859
Co 8.295156666430548 11.79988184962371 11.596123762089757
Co 6.876890550506836 9.090482072134183 8.786047771088082
Co 8.673150908309662 9.588231018794593 12.337478289983533
Co 10.313511166555438 8.168806305337734 11.133866106285202
Co 9.305979604765612 8.90010700133275 9.012801165144936
Co 11.745887888530124 6.925219933840833 9.86004484988602
Co 10.533457259187312 7.31397847069948 7.843159156394657
Co 9.067043772872609 8.026473659934375 6.032697165484727
Co 8.436084844319915 10.02192229743984 7.138471979108163
Co 8.189021791928454 11.073667513650545 9.39427696385739
Co 9.973338497879912 12.680320691820347 10.007151341188495
Co 12.115882935836613 9.496510733016153 11.381927101704575
Co 10.060023798761303 10.528299499397653 10.802393899034007
Co 11.68162294274156 9.121947101591832 9.148051520310531
Co 10.736177832998338 9.407236433193383 6.91287221593325
Co 10.289719710820535 11.189750755772256 8.291696359422733
Co 11.707885732012505 12.939343106469964 8.31380751163004
Co 12.518623373450817 10.814684781402827 7.697607187222232
Co 12.060482504608576 11.38114257962499 9.947826892211433
