29
Energy = -163.70596274 eV
Co 10.885850846254144 10.023287915498553 11.472809613627815
Co 9.820273741631327 10.63417069195567 13.58236996971801
Co 9.011618416525158 9.64175308883213 9.99792739849175
Co 13.061698142396962 9.227666644710474 11.865253646254162
Co 6.927447115749876 10.23351871495567 10.638006286550167
Co 10.611613532835758 11.638488565589057 9.79565064404779
Co 13.953547289989155 8.27255823038255 10.006886553302103
Co 9.246349216350982 13.47283496108856 10.520859656368465
Co 11.678183968494686 8.051682134089054 10.182195929806914
Co 12.430306208899419 12.333065638450929 8.589898412552763
Co 6.97945633081974 12.651804579091515 10.594763529142222
Co 11.16920611822823 9.673554989179648 15.109106629734853
Co 8.628169885376142 11.488519252327299 11.609990104492859
Co 8.335556289102794 9.320805928720507 12.418397998828821
Co 12.205262047739263 10.755296184496634 13.36667033047353
Co 7.545380459080224 7.952989834700876 10.557805333729231
Co 8.748511121364027 9.92823001254156 7.7066147845677
Co 9.531732910510016 7.603100961198871 9.05435452540743
Co 10.327982062377878 13.561388670862547 8.445645585869356
Co 12.549770858650778 10.470834289298722 7.276100520224679
Co 11.644512882906467 13.685440518718275 10.369624213469441
Co 8.364880357035567 11.781659728805142 9.043341545424587
Co 12.789549489870772 10.127151316074178 9.580209481801699
Co 10.43202337187635 11.467957590874493 7.42251284707273
Co 11.159758631259379 8.527016193935806 13.146866564647883
Co 10.733550548236332 12.329597447249682 12.17410548622328
Co 10.858575788661964 9.418396351848363 8.471893031038237
Co 12.731377492214648 11.770299824532625 11.198963873208008
Co 9.726773027047743 7.823071580678926 11.396178190941619
