29
Energy = -162.62541955 eV
Co 6.6045372215439455 9.890921810779385 10.419182931475795
Co 13.031733853886797 8.482125830121111 9.152809655642562
Co 11.3201679866763 11.028570020470983 6.420770144242652
Co 9.416214818707287 12.737012328148275 10.623963054144651
Co 7.06283693971668 9.620699074485158 7.985243704749237
Co 9.048121909686781 12.549313349432182 12.907674574295129
Co 10.714545483264288 8.433845967128166 9.092403572952046
Co 12.160088577410866 9.894414649292369 10.82005283327683
Co 9.947468706454536 8.716442580174228 11.425434231231597
Co 10.162596540819493 12.154016834989724 8.14688325087085
Co 9.338385872456447 9.924548528976326 7.59058289347082
Co 10.816287491432213 11.343585552824363 12.067189481696845
Co 7.668115400874269 8.316861108126007 11.724280978877974
Co 7.9777555742688335 11.336921869696646 9.131872958910378
Co 12.065072260534912 10.547364989852566 8.533622973445572
Co 9.88848962981249 9.464332267395658 5.5142691921802935
Co 13.41858998417535 8.391811127362026 11.808632821504986
Co 8.435156647646842 8.773228791984318 9.54446169015721
Co 10.073392793868164 10.588336064391353 9.87613297539792
Co 11.448593926018134 8.71767262610293 6.936655613575115
Co 7.396783270627652 9.713124762561675 13.477703048838338
Co 11.47012526138175 9.185931628024075 13.0141756123436
Co 9.2010221624973 8.245785455755541 13.548780608421753
Co 11.747105549836842 7.334982391763497 10.886897227097037
Co 13.450767204122194 9.617699858836986 7.038510654830548
Co 8.421402370462834 10.703021526862825 11.635213477940043
Co 9.543661023698988 10.454782783693126 13.809223847538814
Co 11.682391014524319 12.276032924527682 10.051605347891584
Co 8.437132690866699 13.505155463513393 8.764312810272871
