20
Energy = -108.98381377 eV
Co 8.746554988855502 8.999195818061395 11.778549328941224
Co 8.8604459944296 12.272661766650756 9.150355374642634
Co 9.492671446489332 8.587616825304048 8.207290892602083
Co 7.457945557551936 11.50823886540192 11.291697368893622
Co 8.56490357374988 10.074195942295065 9.829396118017373
Co 8.419459396039754 10.563321952221552 7.552588435765635
Co 6.551295945871287 9.467703861295101 10.885493693926295
Co 12.005182133311727 11.58587617932661 11.673998758386858
Co 9.728103521863853 11.647014465484038 11.249616010089158
Co 11.0630102209784 7.290949994765808 7.208334293806363
Co 10.114498230412714 7.616446909511986 10.347631158191417
Co 11.222395049911503 12.642932856018746 9.77522987078521
Co 12.642521770469493 10.728706064597688 9.643988529144258
Co 6.706084911250665 11.15267833784736 9.127462006908447
Co 7.896345437456344 7.8113484087388985 9.866031474102044
Co 10.893322141728182 9.742959479902114 10.882793664271107
Co 9.423406777917922 6.337749254382485 8.566468180023884
Co 10.583618240169185 10.756144539951473 8.619953202369107
Co 11.638143482236822 6.34989851013694 9.18402667373694
Co 11.773359945137987 8.647628733938383 8.942363731228292
