23
Energy = -175.27069722 eV
Co 11.962047716411542 7.235595438578401 10.201281889714874
Co 9.169185208165615 9.44714138796446 12.750581775029724
Co 10.707346913333904 9.256798644023968 10.905884017040064
Co 9.444132482329962 7.184232810902949 11.218754602297128
Co 10.128965494240648 5.712151670069289 9.42659069991727
Co 11.94549129611725 9.200856639646371 8.650206412442849
Co 8.098228968736343 8.849823001729447 10.486310556862747
Co 7.592569921861058 6.496768919575116 9.28116122215919
Co 12.529707884187456 11.433503617143803 7.628632702113323
Co 7.977460290119755 7.80208763944944 12.922969305799056
Co 9.871599194236696 7.6262668302316206 8.401809813533207
Co 10.868726333258355 11.788597516723625 9.47968547847558
Co 10.142906992051568 11.505583659116695 6.765160814188664
Co 9.678455246151922 10.12694399628293 8.617170689036959
Co 8.771426414223185 11.294415307373324 10.886587642456796
Co 6.317888505003559 7.039116514614631 10.967371350942262
Co 11.23068364239715 9.244207976992218 6.463632978209475
Co 7.452378676342754 8.455831996385461 7.929311871022017
Co 5.732785881854643 8.545072521110981 9.388254375174188
Co 8.86033961697053 12.713778650939885 8.473164647719557
Co 7.652016977818378 10.70903768856827 6.7798471529658855
Co 7.156958872787251 11.010062194050507 9.129168225922081
Co 9.233827051620914 8.832992613785484 6.1572275133145675
