26
Energy = -145.27435361 eV
Co 11.448392290145161 10.072760244750352 9.156120774886167
Co 12.816887024691347 8.255142072784386 9.227824605662143
Co 11.39375500808051 8.862030389630746 11.135826531818864
Co 8.58744684876516 10.85725402513885 9.61259023523952
Co 11.904210126789584 9.074798341263504 7.0997237782308265
Co 10.609640622164973 11.177587822460431 10.996034549602294
Co 9.794097765815286 10.07143940109845 7.54105245915538
Co 10.351568778460562 12.11851397002699 8.718986636455426
Co 9.671909380949794 8.476861743500157 9.49080275135635
Co 9.476054312175362 13.213307642301881 10.5749745182305
Co 11.108495958707312 6.722856339511367 9.728350436908615
Co 12.026312394156516 6.826662069821098 7.611934054839325
Co 8.4057836813375 11.70786859232711 11.904829186283642
Co 10.042919380548245 5.518669785033074 8.037300776514245
Co 8.076730227383733 13.09513520059671 8.805623372482506
Co 6.7654608443058555 12.319203525801552 10.466464808376104
Co 9.118567433423797 9.495902536578969 11.61045507911699
Co 9.94380280199398 7.740201380880951 7.270975770245297
Co 8.000174051769514 11.40676521389655 7.322076051693426
Co 8.935252006238537 5.830582291174896 10.084396320351178
Co 6.836400281223524 10.029233400922005 11.026357754160594
Co 9.669257926071564 7.285440049143926 11.653363796463507
Co 7.620433228769339 7.990247725964446 10.372448610722216
Co 6.305129086840085 10.740771018802171 8.8372072516235
Co 7.743085716300918 9.066792691033063 8.189997543100707
Co 8.048679491293225 6.813864783281856 8.276597435622467
