36
Energy = -206.7287953 eV
Co 6.600223305767232 10.144132083605433 8.708070717639616
Co 11.489315114138849 6.947164474907163 7.4574241108673744
Co 11.042545708199029 9.68145974258804 10.378565642905427
Co 6.38303841935216 8.7943677361154 10.614262639489004
Co 10.384545022850489 13.4100443879462 11.92621421769343
Co 8.601201949401934 9.57491280764269 9.932922216535415
Co 12.34278338228556 8.392642752699608 12.1127024776371
Co 9.233914738665195 11.271927015726192 11.724267793208325
Co 13.512942460189949 9.212357878493997 10.345152263582692
Co 7.986977717505112 7.232257242478232 10.488631826733267
Co 10.38339903499119 12.372379263523582 9.854868994106711
Co 12.43577889746266 13.321198749414505 10.322633443447735
Co 10.468946537890032 9.59052606311395 12.796952334681595
Co 9.934385112150444 7.981811946236305 8.775612491572423
Co 11.741942819929191 12.80200454567807 8.02172557823581
Co 7.495161863509754 7.892189609084698 8.382178522001473
Co 12.46897874484827 10.81543797216199 6.964548670796137
Co 9.160511076968795 7.342389764532682 6.723086667601621
Co 7.018841411325321 11.103820191532488 10.902885842991894
Co 8.630818527363285 9.604040888932518 7.433534945542344
Co 10.54452314348882 10.682745889315072 8.189782900784413
Co 12.749283927152604 10.359061140030303 13.313328477247225
Co 6.084881696880779 9.932086805896528 12.571641510910979
Co 10.80481616611731 8.979457385133918 6.548680132671563
Co 10.035656448509798 7.815870267305367 11.30688449418016
Co 14.524588342663217 9.254579873548781 12.406055886034009
Co 13.942245367404329 11.271420394478104 11.381333179049255
Co 8.201570490544949 9.182062613028481 12.23445848217917
Co 11.882726044219078 7.368239876554566 9.92425915767856
Co 8.32152156623066 13.095249049632592 10.61646954672105
Co 8.40545127171321 11.673756278277276 8.716444529942047
Co 10.607554918494325 11.737366407114532 13.657861657548732
Co 6.3914178273413995 12.528734944228015 9.249305587231873
Co 12.324919384205039 8.965597308312462 8.3140361490815
Co 11.733487490552047 11.553823709213413 11.687888916020592
Co 12.706725698340726 11.22643739353299 9.343960744819338
