35
Energy = -200.06040821 eV
Co 10.269700430691293 13.877278525134333 14.867430698507194
Co 10.837662999184987 8.46560887188053 13.049465194686219
Co 12.347510004821473 8.936872684715919 11.460350581771685
Co 9.976845943961111 9.38880346576956 10.876579044577614
Co 10.234476351679731 10.954708884982674 9.124763542146878
Co 11.079027542968438 12.870820181729437 10.439143204618377
Co 12.343245242276751 10.900103363544018 10.250511275598361
Co 10.681047211276155 12.452399845492943 7.398148029229236
Co 9.18616215672122 11.920580872881011 13.745112191134487
Co 8.374642100854231 12.750655030656322 15.707263615805191
Co 11.947177168445696 14.86710561639877 11.57880994713316
Co 14.117568505448698 12.23988886300109 14.059958263590376
Co 12.905288050958331 12.446105413389054 12.107588173262569
Co 14.518562986351593 11.816023282096245 9.859168888312459
Co 14.2285237058739 10.346279917360103 11.693675426598736
Co 10.560782938838452 13.357010054841728 12.621894128098907
Co 8.911888107428426 9.781206682477947 12.967387054001687
Co 12.447681807174366 14.260704678028876 13.852770055984747
Co 9.153792646299511 11.688200888265998 11.241482819134562
Co 12.891353334220074 10.24666532365638 13.586956494302973
Co 9.271191426072848 13.074621054463544 9.125330160791028
Co 13.946374110027067 9.51411347710193 9.446974910937847
Co 15.602206491888072 13.951560028341927 10.42457422675206
Co 10.318513910693207 11.79729638194117 16.21466448799033
Co 11.01774363585426 10.847061521111227 12.318150374527384
Co 8.518711643615022 10.420399658762134 15.328643785773705
Co 14.176642300041415 14.410229492174128 12.316664094495488
Co 10.653702248554302 10.069103749610262 14.627633683039752
Co 12.20875170920075 10.441584205004805 7.876442765742205
Co 11.28480008991407 14.368264063478016 8.777466847447666
Co 13.385339486135495 13.933816325032302 10.120626261183435
Co 12.674478465632953 12.578703981904795 8.492340852732836
Co 11.608227556226385 8.781101744751979 9.291415956553715
Co 11.753812195171053 12.136058395550993 14.388237168669232
Co 15.29029084454784 12.392797751708995 12.030792577829251
