39
Energy = -209.49458791 eV
Co 11.178903570033569 16.984502518557886 18.657599352446294
Co 16.608760116172895 13.973591634623993 14.586760633721287
Co 16.37731276225228 13.885526874236648 20.732034990912545
Co 15.967142186477712 15.558188877767304 16.15795000955682
Co 16.55895300470185 14.881013867771065 12.388625535422298
Co 17.409222391030116 19.555957452229347 17.390590664081397
Co 13.381987983925244 19.21623258870301 15.5502238788882
Co 18.331332007168456 15.514918143696171 15.52035758489993
Co 15.153245543512977 17.630218847036307 15.399495668541293
Co 18.04049122095879 13.764300972287165 19.13073093819482
Co 18.558552808244368 14.460443420717269 13.283701576987363
Co 15.35334728377251 15.114180169683742 19.044680510119566
Co 13.398303272966878 16.302716704234925 19.007292879448265
Co 17.055396921469633 13.70006012253704 17.070624994196972
Co 17.370701147295264 15.825917858275375 20.03050211065142
Co 13.421916487582155 17.558199193852225 17.035315750369598
Co 17.52857728009976 17.659221900876048 16.10634867211878
Co 16.532571561338003 14.330352800381107 10.323042488567019
Co 12.28588765569803 14.401879657250142 18.70843195908764
Co 18.805686037425605 21.523882976805186 17.4593043358222
Co 18.520844929202635 13.967994445399313 11.089644324102832
Co 19.59767863861937 19.114783021236597 16.784233067851954
Co 11.349704228116046 18.094026476247013 16.41606589921307
Co 11.822327880700614 15.845787085975845 16.803797422722436
Co 15.852923640544322 12.849065232490174 18.81242737178319
Co 10.238341516272834 15.014145954146663 18.105688761246505
Co 18.59575693569684 20.599503573547103 15.496609369806247
Co 15.70407154249689 17.19245127969578 17.8681673869649
Co 16.67911013702693 16.366535180392678 14.091755651062924
Co 20.51899720504245 22.529007059987467 16.437802297012976
Co 15.141180382019046 19.343842288389876 17.120138235268996
Co 16.39023326909251 19.595597616903543 15.246079155783494
Co 19.38296307071686 14.280280609164175 17.254276066861983
Co 13.993927666032034 15.112822805076432 17.05471406669716
Co 22.470136227570492 22.355122166331377 17.40286177533459
Co 17.712170452118357 15.89177117498797 17.831725371611824
Co 18.58760199559703 13.041647167102939 15.415981823029444
Co 20.951338278337552 20.701712921062825 17.69390900360278
Co 20.24253293268467 14.454085653267363 14.862439075086112
