36
Energy = -207.77974844 eV
Co 6.969701395646549 6.858688888464823 4.094823702043692
Co 8.895581280813236 6.626252372986429 5.568032056535537
Co 8.932980829758431 8.907754975135322 4.645223734562958
Co 7.804893972889568 4.583875820693034 5.059192828516278
Co 5.344647768033605 5.007826190067315 4.63440635736526
Co 6.415277712946886 9.308574439154862 4.091090743045864
Co 10.985838920713299 7.682219945865522 5.931418801226076
Co 7.073547849970752 8.301308997403872 5.930566414993524
Co 4.9976585998940575 7.502936920790042 5.21457587982227
Co 10.720367984025685 10.106183028058489 6.203339994095203
Co 10.169976305661164 4.88451623100926 6.141185707028945
Co 7.915996823205554 10.487227263128652 6.170522228115522
Co 4.38471471390787 5.673258347232983 6.996500980469343
Co 6.052728950549527 3.876018093851259 6.703158597601619
Co 6.506464861689776 6.033842291129625 6.260121612419299
Co 5.564789010875485 9.941709177412205 6.5510737728237505
Co 11.121132909244611 8.703950412376916 8.172685463670536
Co 9.206410543514687 8.659188328257317 6.946481071815291
Co 6.6931949654672875 11.37905809938373 8.557603278883011
Co 9.147608300269338 10.587134092711167 8.25023053888979
Co 7.197374100818164 9.299583076608014 8.071359927802394
Co 5.304996597995699 7.732167582389676 7.606887442220235
Co 7.9396415523335016 6.916479921996161 7.832065300593699
Co 8.278769520423397 4.680987439455459 7.403558619395931
Co 10.202734780458679 6.47498896013524 7.8947983561617665
Co 5.240365443461925 9.420623616771165 9.336701634612849
Co 9.117935732015537 8.412378248869969 9.406756745947511
Co 6.137880298973934 5.431234436770668 8.631299344151817
Co 7.337679130654191 9.771098557866038 10.360108396942962
Co 6.705359697751379 7.609248505584325 9.648163353328048
Co 4.539600883941858 6.910352746953151 9.656285578144786
Co 8.423897782100555 5.780848663572157 9.773740330711329
Co 10.420952578913152 6.7959121496276325 10.230809264042435
Co 5.764370614805735 8.246359562063127 11.585859485849724
Co 8.182756768615473 7.515183805672421 11.39200172252002
Co 6.311735274316098 5.900593267208457 11.056935190307367
