36
Energy = -201.10592244 eV
Co 9.224962147801438 13.464211980947836 14.842625780920846
Co 8.674283230850884 11.607190130284872 13.670823230851294
Co 9.443445015725871 10.522852410650387 11.773379544504746
Co 11.574209685887922 10.752483935092444 10.863659137000633
Co 12.256444446339158 8.793049630508575 12.340166588397862
Co 13.797092800511582 10.146225980417151 11.472557785724844
Co 15.150173054908704 12.825420866978972 13.953749886008936
Co 12.799884466242382 12.449681336312263 14.25261826453223
Co 11.15093662830598 14.461862092306196 14.322002969158673
Co 8.673599520550665 13.769888331593215 12.649522081723694
Co 9.415879171022231 8.508597901588193 10.740830117625864
Co 11.608111607484012 8.115198074650776 10.320793691260365
Co 13.885577833935736 8.089657989816285 10.548228765120106
Co 15.2299425710922 9.919367241635705 9.714604394342091
Co 15.800978969388769 11.311683013903888 11.590313931643538
Co 14.887165952212982 14.72530667406945 12.682798266900855
Co 12.662365570299837 14.333937171352765 12.716141092397152
Co 10.780331217234547 12.501891821957594 12.959583346899613
Co 13.70557977347996 14.46423996888756 14.779832861283543
Co 8.581226896897018 11.152596396956119 9.463248842591135
Co 10.59728611020987 14.691791894124076 11.871569281572835
Co 8.284035510524852 9.030793704020711 8.725561124235064
Co 7.390217530081833 9.713178853034165 10.742302728830413
Co 10.448182447032975 9.682173643347777 9.054860407695777
Co 11.983022045345919 8.13420668506012 8.132455729936657
Co 13.613911562154897 14.472573877461317 10.55401328111366
Co 11.93502474445351 13.03664466045199 10.762992238402651
Co 12.980069091776054 9.810969265892714 9.192549113872092
Co 9.727266397088329 12.688333502344205 10.818335770470567
Co 15.61462659991786 13.47632872775893 10.911766775525608
Co 7.787526964814598 13.368762195245704 10.022978215961635
Co 7.461438693038802 11.893491220380492 11.699395458989102
Co 7.392207940249959 9.873626526464077 12.987189225272704
Co 13.941994570841846 11.979248130201308 9.892383827749818
Co 13.805570005728809 12.374204673489311 12.156904296100947
Co 14.508948962485494 10.632206402546277 13.589831981362165
