35
Energy = -275.53853852 eV
Co 14.150865617178248 6.46306062156914 12.747494276339179
Co 11.168156386774982 13.713825414852062 7.8904507391542085
Co 13.662027583128415 15.089866665819352 11.350718515738494
Co 11.36274794749339 13.634276403025455 10.651334125876916
Co 11.052583208700135 9.486021672340431 9.878459648352967
Co 9.414689072696651 14.370719210677802 9.30776039040951
Co 14.83031967001641 8.8613788352203 12.590147044865772
Co 13.136971639329927 14.14503193907482 9.190185841772704
Co 12.735331545447053 11.723912455227866 9.253032069498513
Co 14.460987374831667 9.517874170500809 14.775612725567928
Co 13.282830996343025 11.459236251950148 16.29271572127781
Co 11.360301062539643 16.002708369794938 9.602555866486775
Co 13.499885408790352 9.94209230796477 11.185972552062776
Co 13.896061085850173 12.56355981545666 11.50780495687321
Co 9.928250866233554 13.382767041743124 12.825864887824569
Co 12.737804838104807 7.921506138027198 14.121791307182965
Co 15.521009119388761 11.189542727077107 12.771702784976323
Co 12.365868740827809 13.270752690708559 13.160624895920956
Co 9.24234751639683 9.867044291119894 11.336248255048082
Co 15.54359179277508 13.959280181512536 12.910930622774215
Co 11.338221758064192 8.933858878292135 12.566150376934504
Co 8.944520598612133 12.338330893030705 10.932230699210523
Co 12.625920659920332 7.685563831121746 11.175570214115593
Co 14.361877767126856 12.591825587300658 14.45756751355773
Co 10.791674082491848 15.145846178382934 14.360454908951482
Co 13.603867430072242 15.299669127932763 13.854835891406832
Co 10.058585684543948 11.110058182933747 13.34712693123908
Co 11.486092137502455 9.742298280458076 15.250692738789803
Co 11.391716126976563 12.42948934011261 15.128567405213534
Co 12.898494533640902 10.659992296183095 13.529779211148176
Co 11.446281856351506 11.338998038213505 11.404892851845549
Co 12.991836035411353 14.123880484283625 15.765545284214197
Co 9.244081624412386 15.265892497779857 11.56837710407405
Co 10.243056722315096 11.690052098311307 9.031712517896734
Co 11.515593431479488 15.641989310213411 12.087908262082227
