37
Energy = -213.48487383 eV
Co 6.976917944886082 9.428889382729945 9.121153922183582
Co 7.381963207472639 9.34281576607942 11.415504590959786
Co 7.7636287881693296 7.967562992678497 7.4624463036074395
Co 8.568860481356458 7.870823052940579 9.740660892705845
Co 6.9932569882999065 10.620903615198058 13.390699106189137
Co 7.629756839836195 10.169553355366272 6.624351358804573
Co 8.295916607073593 8.642794144111036 13.585765489030921
Co 7.6920680424234575 11.82255201553371 11.12342187019903
Co 7.7326357642438595 11.504742632221593 8.673817935880521
Co 10.660486039140599 6.778956508615721 10.136879743169473
Co 10.035217141068795 7.241497636995229 7.963243904284165
Co 9.710307626147966 8.341159061843735 11.70247118702068
Co 9.151091880002157 10.24774778536727 10.193008970692933
Co 9.004863677324193 10.538109063666042 14.833574287424229
Co 9.298462810810578 9.51285967389045 8.058455186633985
Co 9.879960444414957 9.8525498780797 5.838644420301206
Co 9.133618505069627 10.59327198525714 12.557640670159177
Co 8.375200870190769 12.497114414954376 13.672521028663773
Co 11.024645134502649 11.25914386399918 11.270405834065883
Co 10.658669408825562 9.091788822875037 13.70428543894848
Co 9.534128661308726 11.707795758792747 7.162692794059549
Co 9.521172740889476 12.569482666120864 9.639095370378161
Co 9.74264230689491 12.984562369787476 11.91741899368924
Co 11.910183589991838 7.652583345952277 11.939622721567199
Co 11.180786306456461 11.053473222503282 8.783335973756108
Co 11.34735731729212 9.012564173059598 10.0099267131317
Co 10.969209843577 11.44749251005988 13.620586856656363
Co 11.4356832747705 8.912702731616317 7.341755268366143
Co 12.508746615679879 7.364875919226751 8.783470601961028
Co 12.409868494839014 9.842092412226329 12.351828372648574
Co 11.24828704373148 13.196688058236383 7.813721693464621
Co 11.813569610790735 13.037750770249172 10.051435807688076
Co 11.782065316097833 11.115255372640911 6.574514152854709
Co 13.57424107839143 8.54602892949005 10.498645190824067
Co 13.22932287386081 9.729327823050424 8.446290897200978
Co 13.114961576813773 10.940806080444409 10.384475263869993
Co 13.256308861481342 12.104296819825567 8.278897133776738
