38
Energy = -219.63189301 eV
Co 14.88497657700888 12.567239327308185 9.995256730994244
Co 13.010556502263178 13.23434706783085 8.798651571973847
Co 11.02109712077013 13.649318517375589 9.772483266922858
Co 9.259091469577315 13.545185431981647 8.293542769066331
Co 13.448218620934368 11.00544333366976 9.02436583517238
Co 11.151338772969142 11.745168873195638 8.292851717136461
Co 8.716685706783354 11.368502087650418 7.7733510249893
Co 12.99149455558519 13.192912007143182 11.160650259744958
Co 10.532268917748118 13.05736389707059 11.891882542867576
Co 13.919114869513574 11.086527665446143 11.486077341698074
Co 8.730499808298843 14.171752037281658 10.472284156565399
Co 10.4101353605465 10.025700960261837 6.896278659938178
Co 11.637034820195554 9.414376089049009 8.79209280184402
Co 11.747680815441893 11.180777581629675 10.627782953106578
Co 9.432333046216748 11.884431692054513 10.02442884394376
Co 7.306957842646466 12.504872415269658 9.487904798732574
Co 13.206752420571686 9.09505449414321 10.4753352395539
Co 12.17378019937283 11.83695291631414 12.952944191061837
Co 8.296399407591018 9.019510696640515 7.172716752824166
Co 8.232218332048895 12.466695455005553 12.009107463320579
Co 11.721576803045906 7.159429190190525 9.602543940141219
Co 9.921992842128638 10.789575363047925 12.195568009764534
Co 10.840493195224768 8.833245595038488 11.013105708541893
Co 12.314512813987761 9.548512905770146 12.698995506996804
Co 6.870131682208778 10.327340497946055 8.66351456039055
Co 9.187662741498276 9.526054597635989 9.306179710087866
Co 12.550367813164057 7.327755207263973 11.822704377649933
Co 10.18566746913492 7.790736110743293 7.885151677163094
Co 7.58136374444106 10.533549574705857 10.871143319602172
Co 9.368043416583703 7.124610263172917 9.998836458709608
Co 7.940714009283187 10.283418612780258 13.176741147351269
Co 8.571035825082923 8.582202131927257 11.727004788217444
Co 6.17417630434793 8.339432951303264 7.739639085188903
Co 10.103218922261608 8.83927567930644 13.456681295183929
Co 7.2349929708541305 8.238429670479281 9.826273432193489
Co 10.315157519220572 6.8796225517622425 12.187702732308704
Co 11.972597454261663 7.678736120164535 13.980434986602532
Co 8.004187713071124 6.902598977876666 8.099776350534913
