32
Energy = -182.62702011 eV
Co 6.895476303190937 6.724194095365312 12.973828427809273
Co 9.856415504040601 7.768430050179389 7.931968462114417
Co 10.531372308258312 9.63136559028607 6.605764458534711
Co 9.464349162126968 6.354299280744893 9.795531474189334
Co 8.34507900589306 8.639469013976395 6.346840673534943
Co 9.136129150844592 13.19217080484199 7.1902838991922975
Co 7.395072072680494 7.043057626212869 10.715153786659558
Co 8.668398378052016 10.261438269894294 8.705948342651316
Co 9.171645441654704 8.643966768158359 10.365828624319851
Co 11.575794566827966 7.389306292167759 9.659990088531481
Co 10.855191937100374 11.815259131413212 5.979871709786409
Co 11.823760541174813 9.227598278564184 11.131674387086026
Co 8.083928673171563 10.848345715842054 11.181670764453939
Co 6.78601086284268 9.318181393378845 9.971472212909733
Co 11.04618773011967 9.541707353874779 8.925810369345012
Co 12.492448428202122 10.647429259410918 7.451433759732468
Co 12.194950226828919 8.131085958692776 7.436729772841538
Co 7.208419799771935 12.072184853713281 7.815751679158872
Co 9.857284070689461 9.59018966708843 12.487824967549688
Co 6.361394080924519 11.531447724280719 9.821664166758602
Co 10.485897360699727 7.382788175965203 11.805372207203899
Co 8.689948994188482 10.990440785832623 6.43284383430317
Co 6.747292908078703 9.760453906437384 7.5866603217286075
Co 10.270988947539099 11.018964418518042 10.606455407324303
Co 12.46422747020056 11.229205813612943 9.794183793739517
Co 8.712828293436186 12.508354913823029 9.508023806741146
Co 8.986446141509058 7.540924099926683 13.565437964866492
Co 8.783954035238452 5.802541060152293 12.036230303879789
Co 10.556910556544024 11.779080356619277 8.252501349820584
Co 7.67130856342303 7.776116468673097 8.503327033042114
Co 13.292770348046078 9.113922738246778 9.250712822769833
Co 7.654822641044989 8.79278463845006 12.229913631764724
