34
Energy = -193.79736353 eV
Co 14.146925092856636 10.566172054808264 16.95672393433175
Co 11.115307477825649 12.049188619192577 14.577671397950308
Co 9.413458789976048 13.125201690684028 8.673313490164155
Co 15.038982342376329 12.306430382159537 15.851333139686393
Co 11.552819941316345 14.35303825951143 8.938186918716802
Co 8.631895824220715 13.638907668930942 11.870085030738853
Co 7.58670106151773 13.937501797503062 9.837523466457132
Co 10.539205070269709 12.746973150106664 10.661317592737602
Co 10.941787625137358 9.869728668736714 13.543998352167439
Co 14.063318148063413 11.219228209494384 9.182092150282942
Co 12.24547755056416 10.491043080537315 10.309980309140071
Co 13.644974547057608 12.010579512477785 14.082561577020579
Co 11.828733368943746 14.91364756700371 11.171192646433534
Co 9.649012904751265 14.885604920833572 10.21304906060578
Co 8.423581621593375 11.808366114983558 10.402234374222443
Co 14.208783175196682 11.569042972635037 11.662471557236598
Co 11.873084592866318 11.736448069117912 12.36067596699468
Co 9.480363414916686 11.765434359390179 12.888181471840701
Co 14.274411313636296 9.376494678058016 10.980242279100874
Co 11.829971453544585 8.652953527086012 11.673960242143924
Co 12.457359048539352 13.976848976901026 14.623716081711413
Co 13.312683824639574 9.857842254952464 13.019074729920085
Co 12.54618945166517 10.255959134745673 15.276025218489202
Co 13.336056240934886 13.686138478588838 12.510680854595035
Co 14.836699385554862 10.193696334004375 14.798745836640219
Co 10.146389079415487 10.859622383521149 9.051212346495928
Co 10.738052895649986 8.705863349854846 9.579278802736763
Co 10.098987268268251 10.237719852337817 11.33523437839485
Co 12.939999983796763 12.973222257113743 10.311402179476822
Co 12.975267390102248 8.32949449781288 9.471952704247238
Co 11.858384992648151 12.161490739251864 8.40628585933291
Co 10.816402854556928 13.787664114229083 12.907682734276847
Co 12.78115575978178 12.312693037607556 16.298947671140535
Co 12.340460268436285 9.953394769092869 8.02502577340936
