38
Energy = -219.84603978 eV
Co 7.9509605015995914 7.597513123467961 4.256517151359353
Co 6.75066987150142 10.580447678610286 4.496315213200451
Co 5.566317069027744 8.369612957732391 4.655234648708691
Co 9.45284290148138 9.7787799931451 5.513760182662679
Co 8.658350885888243 5.446749881016923 5.30160573567651
Co 6.601354618945394 6.506172395028342 5.805727390405944
Co 7.306509104565404 8.96292157317596 5.980358945078427
Co 5.304045057356337 10.214060262329875 6.234890811116538
Co 9.244764306037368 7.514592502068499 6.216587691024728
Co 7.827322775416654 11.172218892648555 6.5820475296111
Co 6.948306863583029 4.191556666609815 6.529561884346602
Co 5.014998612261048 7.981121015166888 7.011249418447821
Co 11.05679867610765 8.693125720731413 7.242198287875347
Co 10.565787821017963 5.8298265363018675 7.2818995820952725
Co 10.412457216453019 11.010107524269081 7.652362224707906
Co 8.254551298971052 5.702220170476524 7.546730460132165
Co 9.188286740401837 3.6333131396272864 7.496087706529533
Co 8.861369643441936 9.421098170153313 7.764248480684503
Co 7.127287926509637 7.660455254699178 7.882554092617307
Co 10.183233290692757 9.355143327156176 9.949648352077666
Co 4.302472560797924 9.57679562150581 8.48674432881447
Co 5.767479061759806 5.750442366185478 8.05148840820765
Co 7.312019398419767 4.161619602282843 8.97907615886815
Co 6.502109187480905 10.017894284474806 8.234961787065492
Co 10.647345211310487 11.590940480469621 9.83676649581252
Co 11.707933679715355 7.6289649098891825 9.20674798784944
Co 7.581192325511303 6.307223553935885 9.939732155189787
Co 8.393828152364513 10.9970866738485 9.490874019497882
Co 12.150128245664078 9.966105284071517 8.939313721447393
Co 7.851365867949793 8.723871957278426 9.811970579186053
Co 9.572397196362477 7.332494752806394 8.750453948472087
Co 5.521415599836527 7.868165070051258 9.578826002262746
Co 9.571582041809604 5.087738693445597 9.385849887998907
Co 8.4538081788144 9.858404961947972 11.665726912911182
Co 5.481734698925964 5.620397479202724 10.304377366045465
Co 6.169332382676462 10.00688579939781 10.57711839806997
Co 6.871458853703859 7.840246909438319 11.651395715337484
Co 9.283405932671027 7.4609085723852715 11.126214095637087
