35
Energy = -202.20433653 eV
Co 12.082421517458465 11.324095294313947 10.10111693688852
Co 11.325769171453418 9.455058536453985 11.289955539198637
Co 12.256383415092062 9.01743551029442 9.07206926324008
Co 10.094157115450937 11.515140093617424 11.236608125787129
Co 11.811501917660566 11.243963492498919 7.878728023838604
Co 9.966603361384625 12.422238047163285 9.051596076631837
Co 9.434377950469019 9.732414367575098 12.716101300291987
Co 11.64035962226454 7.258826987568308 10.48625717816011
Co 8.171162834020793 11.657746858185035 12.683433563677534
Co 10.149339004494117 10.074354056090707 9.220195475727374
Co 9.447302309226833 8.131875990379974 10.900243816145146
Co 11.04605151519449 9.260877640654842 6.949736926037652
Co 12.211676549390846 7.311383864676431 7.45768676854422
Co 8.097525644532473 12.575619086330285 10.535258535399457
Co 9.715683538400405 11.203604891803764 6.976899525442785
Co 8.144983215544372 10.198824836359762 10.761804685733278
Co 6.289640678348707 10.447793270344867 12.290356050218307
Co 11.49504986908245 5.587064963614305 8.87531583355293
Co 7.505944245061861 8.49418980835607 12.308457255834583
Co 10.229544215944557 7.647910127752514 8.64032161086218
Co 10.99452256703927 7.539249154143685 5.419467039284649
Co 9.511406742395414 5.896877172848095 10.04777640259118
Co 7.9706624746614665 11.16878299445001 8.58943345147747
Co 9.653702595954492 9.699740427733175 5.1765369651985305
Co 6.134667038432819 11.31610919406819 10.122974077060118
Co 7.951480440947072 8.667898653014142 8.75208310283754
Co 7.464489916399597 6.980865092999602 10.472116359697589
Co 6.117716044065025 8.965828018419355 10.39952064818289
Co 10.142098572026603 5.983051405678314 7.005194382302801
Co 7.757565061947285 9.94628236042476 6.560173790879325
Co 9.004381623733336 7.950215489819116 6.510133311533209
Co 5.992293727070341 9.866925294223398 8.214786281015188
Co 8.159233843751581 6.374726686921205 8.198501232481012
Co 5.878174888808587 7.339781560976194 8.795029176698414
Co 6.701654642189779 7.9380490480157855 6.800293562016117
