38
Energy = -220.20406083 eV
Co 9.156833018935545 11.511372058084174 12.594552235719416
Co 11.780548869781281 10.845847846699717 12.852235037161433
Co 8.801200090935884 12.829482971716379 10.471255093647567
Co 9.953802080973043 9.640318606991787 13.920832730600283
Co 10.791704248075048 11.823559632784 11.08205500793831
Co 6.761965315289631 13.353149527517772 9.553920623254823
Co 8.811873808501064 13.897294108172282 8.38360136367887
Co 6.996289900848997 11.639863405096536 11.408887569095048
Co 7.989713696516044 9.557644805175974 12.625371698394924
Co 12.928652879648999 11.690699817339086 10.428115682287347
Co 12.62814258818711 9.475600110253133 11.08805563881826
Co 10.829774021133334 12.834332306393781 9.025350015663182
Co 11.865131509796608 8.495977409311221 13.19353733742998
Co 8.644486435724057 10.381842921528138 10.354552272383302
Co 10.301331991101417 9.38501258865874 11.638349059855626
Co 9.662752291954046 7.42559424727199 12.731889577638944
Co 8.954338280538327 11.591676591504928 8.337318089977991
Co 7.15012030473686 12.645691552290403 7.354194872190817
Co 11.089878814886667 10.294378425431304 9.301263042905369
Co 12.599788364787095 11.671909219917314 8.089566889794815
Co 11.464889042225408 7.3530473329883375 11.16394186343758
Co 6.717261958291312 11.114539092060483 9.086323549780769
Co 8.19596096168341 7.961849495375306 11.006275995089023
Co 13.7794670876001 9.961651630220864 9.033260920742189
Co 6.415038280502481 9.413500187436728 10.7443156766517
Co 10.697009371131232 11.679329682069595 6.832903327375675
Co 7.585573339895714 10.276006146574483 6.922382408631563
Co 12.02916275476864 9.599681960960389 7.168185601830143
Co 9.94625749557464 8.033005286131962 9.364959698349464
Co 12.33345759087681 8.185091420157313 9.03339412103778
Co 7.629514711625958 8.935012705124196 8.745415961600875
Co 9.543924622316185 6.097657401773112 10.68240744710125
Co 9.729251648721641 9.523148249103494 7.3537658148943095
Co 7.784939903022719 6.647304574812434 9.136928183048177
Co 11.406991482029026 6.030347523150926 9.215772718822459
Co 10.88199999370089 7.503480061495266 7.261829800463678
Co 8.49427975917053 7.597815561869302 7.033872065019915
Co 9.495009656121514 5.699610729382701 8.015351939557512
