34
Energy = -193.42804528 eV
Co 7.4584945104937805 9.400749378595124 9.392059772994548
Co 9.298018738477474 9.047757331023993 11.074031070498034
Co 8.212168482081507 11.37799172061957 10.470496341819265
Co 11.127251651549939 14.36580587187564 10.636371190476057
Co 12.849001526657526 6.36788127734788 11.265376899064968
Co 8.969458849909051 10.949822024648146 12.627879185503861
Co 12.032754380867853 8.703161181065857 8.044469958067916
Co 6.667007325239142 11.803653543741888 8.829309181346
Co 9.789875686803487 8.741439147769274 8.838881173871394
Co 14.790769771048971 9.686182051777507 10.95443422804548
Co 10.568083490488325 11.224904762665885 10.87365515343112
Co 8.172569717166585 13.116849600183778 7.703540493694855
Co 9.885082654460588 12.817008267254936 9.228215316380037
Co 12.87528419626186 10.292508880233306 13.741671572374582
Co 8.29305744039801 8.836104468763196 7.163481661077552
Co 12.004481933247206 8.056044713807033 13.940006646167452
Co 7.845985438732823 13.588531712922277 9.957981185481161
Co 6.402703240835295 10.043735212866677 7.475957460518885
Co 10.933126826110165 9.71261558281348 12.734279604060148
Co 7.234647345527661 9.628809364717974 11.724644381018768
Co 11.064992757598713 10.77938228652977 8.565884658308217
Co 12.937010365842394 10.989006916297216 11.525804635394522
Co 8.744724113335137 10.904993577674357 8.087063405983177
Co 12.754666520090742 13.338968987540447 11.89653992339402
Co 13.186537944156939 8.53224257276744 12.097664858613598
Co 13.354396049897826 10.424864458496849 9.276872676333499
Co 9.49276570081499 13.16493265402628 11.699202127771063
Co 10.973608861647108 14.38044755117215 12.937149921353264
Co 10.936899506871052 7.496820551710047 11.905925151076254
Co 11.270942876189796 12.067955078660225 13.04574396545532
Co 12.216494637608761 12.475810919735022 9.748090345978758
Co 11.661368187123939 9.192036834233699 10.340354983774935
Co 11.347588195637153 7.068085375980878 9.621364394545013
Co 13.5956106550432 8.028038020063487 9.825655495703266
