30
Energy = -171.02705461 eV
Co 8.59710315026879 8.086734266786456 5.050814927243713
Co 8.286362895962691 10.158994968033712 5.904234622349915
Co 10.912385208567146 8.261422071962118 5.502838102341945
Co 6.315581207450067 8.829091827842783 5.8430960444571
Co 7.543823909460399 7.074716455819535 6.84014555490854
Co 10.597361878833777 10.364442746505352 6.4589190602846
Co 9.748940690475978 6.363361745426328 6.179101304940165
Co 6.233336282279699 11.00736567357248 6.7330442412378835
Co 8.852779415038727 11.017273097351323 7.937682029152695
Co 9.465818467177515 8.475793292686635 7.319746378250141
Co 7.203765638580447 9.259216850840273 7.962243336369711
Co 5.312318476064252 7.709925283494021 7.605318865036971
Co 11.373241694120315 6.258586747460018 7.796240619438595
Co 11.874464462277386 8.50750278558277 7.570511827911131
Co 9.146304092784263 6.360509927146238 8.527090813131851
Co 5.011470093504492 9.844983277645385 8.513079094025967
Co 6.910962561151322 7.064374288184601 9.124114911469237
Co 6.837517121982101 11.448024269103076 8.960598561849004
Co 10.595260346049322 9.975792633270775 8.905298176674073
Co 10.604173342567986 5.4739082983937015 10.071504662197913
Co 8.749526235250485 8.568048417200629 9.771143862219285
Co 8.2359058613777 5.6168899090977265 10.500512664982201
Co 5.016630161500315 8.016730963855837 10.018649959286169
Co 8.697613246357156 10.868533839942751 10.311851473619262
Co 10.961079051675007 7.668901875266316 9.60247361234631
Co 6.6107809305589 9.588961573727014 10.313694347598041
Co 7.098675355145892 7.47825241186386 11.348860915365877
Co 9.589389792185992 7.180187847562891 11.444094792067485
Co 10.520970733148342 9.439583499426723 11.15199733393642
Co 8.380088133742506 9.315519590487174 12.014728340846608
