37
Energy = -212.73185635 eV
Co 8.316428964272227 11.020693041358326 13.394507254301754
Co 10.072903620694637 10.267801289956097 14.579969072084786
Co 7.156163702575102 8.983552938656572 13.02309158300094
Co 9.541456841399294 8.9398266078384 12.858850681757154
Co 7.993469325716176 7.365076392140242 11.636275485396046
Co 7.160211420749683 10.61859942365506 11.386173359377988
Co 11.42588295818183 9.105270449124646 11.255022157064273
Co 7.873243579939239 7.697971036121404 9.222045783966239
Co 10.260105021695226 7.1396068738018545 11.304447159834666
Co 8.172911720696296 12.699024773647597 11.690453657472448
Co 11.751619439292785 10.36016148154513 13.078427227741301
Co 8.99998044720924 9.214034174192426 10.569226028556027
Co 12.42009102945734 7.184364530479566 10.206061835737392
Co 12.169504859647727 11.356264187519166 7.775486342522587
Co 10.0139168275122 11.095113763960983 11.867669772959857
Co 6.570448585223671 12.36820408194166 9.822780950373701
Co 12.784207296959272 9.358165570150245 9.264656269340142
Co 9.294082204440445 5.98953117683955 9.539660303375882
Co 8.334125319440155 13.82541125621116 9.543438798949833
Co 8.745330144588255 11.509883739302104 9.826726337296703
Co 10.819116419185292 10.571140810245588 9.450373088557232
Co 10.580701004383648 7.9635904102334925 9.089162802348454
Co 6.31745157171 8.64230603307762 10.678360760134968
Co 6.918192290145615 10.137768222338105 8.923916621930625
Co 12.686762326638581 7.534281557357011 7.856637884291097
Co 10.210160092984967 12.721804771692481 8.51627732750681
Co 11.082620088794178 5.917793691673154 7.987727439671243
Co 7.164935946530499 8.407093004902846 7.151260498392915
Co 13.613965430613522 9.609449347505244 7.172482012561372
Co 10.007196651627497 11.27249947646472 6.761259330453427
Co 11.28207507507628 9.312978110106219 7.151020400525905
Co 9.018815580568342 9.606338896848094 8.088242952802057
Co 11.139831141973314 7.261559710246125 6.044975759496786
Co 9.221581993153645 7.215899579903341 7.312816879252916
Co 9.388179628052942 9.041600883882522 5.818361831250126
Co 7.92133623063264 12.239343618748272 7.822036489531016
Co 7.648604377925915 10.523604246021396 6.40772701987084
