38
Energy = -219.87098239 eV
Co 10.792656628443012 13.735928322959493 9.92094074887307
Co 8.562950876535766 14.516003123964328 10.373872311050008
Co 9.404692185783555 13.038037392120055 12.023113980610889
Co 11.597695946034884 12.377778683991286 11.611111536541022
Co 9.032868599205043 13.796428171357157 8.207790229259754
Co 6.929578747419458 12.99096885095067 10.932535132425675
Co 12.034858340453304 10.423100980336866 12.982403441385001
Co 10.793626003074767 12.202013150033068 8.134458082319226
Co 8.941257591602573 12.235595631388618 9.909363578512886
Co 6.98706443851348 12.79141248668693 8.65183455129676
Co 9.962564720167153 10.710471999294127 11.761748197954367
Co 13.716459699332194 11.288170806076824 11.673304908300253
Co 12.692044671605899 12.273688053382102 9.571911376546097
Co 12.019518897762188 10.171999012755082 10.578270675771655
Co 10.026558142877063 10.27319321046997 9.240156258125163
Co 12.249193726417609 10.308275432093787 8.23750941030399
Co 13.297865184281784 8.748154147504975 11.840568060975208
Co 7.754806330928432 11.056151390965818 11.769472134424696
Co 14.218736561033236 10.372830395961342 9.614846430833287
Co 6.4841259180592 9.207780887292 11.788737543337813
Co 8.578136569270423 11.336606641587935 7.638809403666855
Co 7.163140572466583 10.625561486580304 9.498284434410579
Co 10.952705893231228 8.544398567338032 12.019678507716613
Co 8.711936064067732 8.860388057512946 12.856948682167125
Co 8.587824574212611 8.964447316158255 10.614143069274508
Co 13.129746017095862 8.338607697562285 9.522896836961685
Co 10.273484636621037 9.89473646204716 6.926282811989756
Co 10.725439693354389 8.022899669291952 9.519273037942034
Co 6.505303962415799 8.417399412004935 9.592968718666171
Co 8.42427902936953 8.962049038557904 8.098788047291654
Co 12.097626030190115 6.798811951750021 10.971086009339922
Co 11.843563011813375 8.226391572543186 7.375960131915445
Co 7.346478686637809 7.1260373293165635 11.5804405840847
Co 9.585174795862013 6.832198130523708 11.423911182015331
Co 8.348045093748489 6.9626051389779455 9.353199489051594
Co 12.240816314791642 6.330417375255455 8.617081129662514
Co 9.832572952695447 7.173402053023305 7.546378593900063
Co 10.260558214301993 5.668731678584314 9.519192621524809
