33
Energy = -187.53793588 eV
Co 15.631634761584294 10.856089783645512 11.613986130845138
Co 14.80943054716963 9.590545200826782 13.295283907128097
Co 14.311248802147881 11.208045835429024 9.690409949735072
Co 13.836746321661169 9.460660588572614 11.252661271650988
Co 14.169497576894933 12.65567833400207 11.551175143027956
Co 15.007032475148046 11.844576307877851 13.623620798304922
Co 12.44329314337667 12.546885385257758 9.767320663003595
Co 12.985680652046405 10.691950836928816 14.089947482982897
Co 12.192060606831859 10.250893285894314 9.488415347721643
Co 10.8269359597153 11.749585853192864 8.325906885761928
Co 12.469927666279506 11.156255363912202 11.89596001165634
Co 12.715909565265717 8.534028965590226 13.151874622413805
Co 10.948012368433576 9.581616559924047 7.562185352679615
Co 12.99347901822449 12.999279632124184 13.579233998568272
Co 11.422746313455551 9.010366059058537 11.22986915511082
Co 11.614060258537506 13.451000160204439 11.714378063405421
Co 10.264544712992176 11.391981225461755 11.087296395060351
Co 10.819849059849826 9.819616686613676 13.286432584895927
Co 9.768375933137875 9.565562327967255 9.544056808866582
Co 10.827740937936918 12.101587569211858 13.507289407117092
Co 11.132885562552772 14.41291488074453 13.811283495372233
Co 9.037839023300108 10.77921450990971 7.012840099957544
Co 8.698628685725755 8.669617909765284 7.746047159120962
Co 9.174246419166225 8.95899004612633 11.867371458332668
Co 7.813032977371932 8.387126924737377 9.918238199164213
Co 10.163194529839988 13.494209015391274 9.851395269763502
Co 9.73359642396409 14.707432533205791 11.844229854264393
Co 8.748058275475518 11.125578778502748 12.91786581931701
Co 8.957286414425734 13.395232329235306 13.525516530435574
Co 8.68233502667288 11.768705171759896 9.096501586643754
Co 7.842617087550717 10.516169271276155 10.812694929228767
Co 7.151665893878476 10.160386480122517 8.546859528423795
Co 8.400575225575533 12.835620382907619 11.297556503190139
