36
Energy = -186.77608368 eV
Co 14.439735599628078 10.769102430318744 13.166312900289007
Co 13.89505190873598 11.916721098180167 11.342403978647939
Co 12.833001801529708 13.804119148467462 11.123784292473998
Co 14.007127347237349 14.94734925654634 12.592889041218104
Co 14.2810273175682 14.237693997876928 14.673167229298967
Co 13.448638303097761 12.222888712110544 14.492870685384277
Co 12.595735861287714 14.671220539751813 9.08441285499542
Co 12.679110037475349 16.84333661320628 12.412063136023164
Co 12.865207922622183 15.313657035420349 16.1754366964252
Co 12.917513222134295 11.323556908355586 16.65156451270806
Co 12.914230591631208 9.028343853409147 13.380792763384468
Co 12.646356188562388 10.722252852654087 9.747900425210888
Co 14.002714011039728 9.875166297796975 15.256571386731524
Co 13.813126689954862 9.479495533538199 11.281183334045297
Co 13.698321004042038 12.655964539150508 9.085256828791614
Co 13.736552980362157 16.079323489455632 10.51071400895135
Co 13.787075778910927 16.52758659405626 14.421305421566412
Co 14.00449118744817 13.353321996125487 16.725982555120414
Co 11.81187026889494 7.0203040723328085 13.6508626499149
Co 11.935164897374424 10.518673374963376 18.513966614991496
Co 11.461637110519053 9.433849805064794 8.219204171586096
Co 11.755635015843808 15.426711606542067 7.272230850899887
Co 11.47090950994635 18.853653466640527 12.341170342213772
Co 11.838697802008376 16.472342958280493 17.86889614383414
Co 12.960508739395701 10.913618197169958 7.4852744698229605
Co 11.987330305124566 12.955714832274559 7.600083154061769
Co 12.78860479349172 8.31715168427562 9.609424875162679
Co 12.982118571472625 7.381549260323589 11.730426203176672
Co 12.997269114514031 7.850402621082542 15.388052270779552
Co 13.23675413129935 9.118772484976418 17.32267243184159
Co 13.159102782653857 12.422652634559864 18.709567945220083
Co 13.16172932021399 14.718136138459082 18.4050391250982
Co 12.869329031658866 17.632585415577225 16.21852599792511
Co 12.820380023128637 18.573664493593192 14.091079429098944
Co 12.938303918792977 18.407294169715634 10.761981281382592
Co 11.954933459874804 16.907264209410904 9.38270856369599
