30
Energy = -170.09453972 eV
Co 10.807184116527848 11.094734923388433 5.142478573174304
Co 10.487312064578223 12.306930715320233 7.088120850177379
Co 8.909412038808977 10.668868413026212 6.371969450019703
Co 10.811600048867685 9.206424926804644 6.520411472725358
Co 8.566494206154019 8.627016392842169 7.361443302841276
Co 12.329284412944498 10.88952676237185 6.906513922025668
Co 8.52884629309874 6.385543806516591 7.868842151434684
Co 8.113492029839545 12.432328989463377 7.665410965265478
Co 10.417717039434018 7.71922501026864 8.339602097751127
Co 7.833504911958692 10.336685105483218 8.725822241861657
Co 10.163287698721446 10.352733239338853 8.454168774533336
Co 12.209106661660101 9.224402212977832 8.66769430750157
Co 9.730631690805149 12.635281209254165 9.256521581785641
Co 7.399514713498399 7.882780327746783 9.283284337979223
Co 9.280054139838187 6.51760806820809 10.015496833133318
Co 11.981794734089283 11.71676765565027 9.00645728387362
Co 9.316460795535095 8.834156524396569 10.239967132790913
Co 7.335881591769565 12.207665018235755 9.900815997986323
Co 11.40192376824432 7.683858097969948 10.433007056747549
Co 11.32194100972238 10.140362221864375 10.6505111426481
Co 7.915957429418046 7.539507491875699 11.675719314229084
Co 11.116053107746342 12.42761265622805 11.111624168356952
Co 10.017278646859921 6.503397348153561 12.172498334965558
Co 9.058533801651823 11.124134573837729 10.864799735991037
Co 7.058141790541193 9.737167454457573 10.782836261391555
Co 10.643530374654969 8.654590642571126 12.425720099409366
Co 10.381592792062253 10.984284992279317 12.767540511016076
Co 8.492461070091984 9.626837580865457 12.632952755343762
Co 8.87395368248985 7.714001541693132 13.81920825142228
Co 10.146200302094806 9.474713060616807 14.497708055324734
