36
Energy = -199.44982645 eV
Co 9.816977050831726 11.5928469701953 6.158795139941361
Co 14.841753334042597 12.492086691739464 8.307691195086985
Co 12.14189005024798 10.28301707065145 10.10628263774003
Co 12.788709038175588 12.033879947670322 8.842539109201065
Co 8.511875194244507 8.8395760775304 13.142710158343798
Co 10.350150110533443 13.949125110077997 9.223566327373755
Co 12.248871676251639 8.451631069803238 13.185260901460092
Co 11.335495615577921 12.933658482643013 7.37059338542073
Co 7.161406280781997 10.568032008477372 13.406745910368016
Co 11.894733043144162 13.367621657225277 10.792941360802864
Co 8.507986535690282 6.710924763049089 13.464982091744885
Co 9.312163002912179 11.042320200835235 13.888216530859918
Co 11.542032489232657 14.24389148632302 13.158737392445582
Co 11.560216642738427 10.63380202147364 13.447393022911013
Co 13.840978523769177 12.079264687871614 10.883545811624643
Co 10.97115583084353 12.51866367321916 14.621072219818922
Co 12.851623074016482 12.37350298877174 12.903603948077174
Co 8.54130247060343 13.077467601990104 10.54711547028887
Co 9.056839104816525 12.372734129562492 8.114120796884885
Co 10.431500333115046 16.118388638320226 13.100407169277258
Co 11.98607287016203 8.016393577590406 10.811309221342938
Co 10.268584067726417 7.2910353745731715 12.265178351670048
Co 14.01732130976417 9.101075811164286 9.910422840623067
Co 10.245037705924474 11.644860656950716 10.049263350161485
Co 13.47665221284782 10.108521816109421 12.042014062455841
Co 10.230878399761716 12.465347040490139 12.271833220073505
Co 8.418438651661091 10.831673291203986 11.56245635840163
Co 10.93391340214827 10.680757985168793 7.875923357780326
Co 7.558735585083962 11.207123676438329 9.525068343844698
Co 8.70505425832356 10.095474867063277 7.850810649456413
Co 10.327107528138571 9.571417926625974 11.84791729165098
Co 12.362019707812873 6.363886788834372 12.418349390273253
Co 9.93849350622163 14.648578593792676 11.438369405646132
Co 15.35149266152602 10.959186182772434 9.782123267296573
Co 14.128149476561179 7.882657464892321 11.837182490904965
Co 10.099116807054816 9.204301221187105 9.600185371034616
