33
Energy = -189.64909385 eV
Co 8.901629472675614 11.335236608004697 13.996353146878416
Co 6.840229921799906 12.23149843477107 13.218080758760426
Co 10.780028470549523 11.083536964995382 12.569366344536242
Co 12.686624665954511 10.804402554760724 11.110210169821528
Co 9.480193872724104 9.174254576618546 13.28254894919797
Co 13.243578108956372 8.596733521213249 10.408374176200414
Co 8.761610896374997 12.138916548565073 11.809053044189572
Co 7.490933725189738 10.17543988141903 12.476147606235884
Co 11.442241858223271 8.87045699609474 11.910738006844227
Co 10.692734638520141 11.889754792522238 10.333871316195992
Co 10.145602355801289 7.056809731167082 12.471164255501124
Co 9.434335102634266 9.933190282586326 11.063668867784989
Co 8.203594250456641 7.96189971920269 11.654806269528025
Co 14.533989498673607 10.414942037437505 9.747342060723184
Co 11.378247570885192 9.681378041675327 9.559386110322311
Co 6.6123470528094925 11.750958575128477 10.938239689863174
Co 10.156769530248365 7.6397229389644385 10.21243486035169
Co 12.00943218476995 7.476269909568856 8.732672130951201
Co 7.13960755757044 9.568461074103277 10.14321629686399
Co 13.262029443938454 9.429996706333567 8.129384266555029
Co 8.417661956766008 11.491555248969139 9.484716278442976
Co 6.261708355833192 11.07779935039222 8.605907013536795
Co 12.667053771089343 11.587034766761782 8.855821344357812
Co 9.067304557665322 9.245332947487203 8.68549334258686
Co 10.390521860851603 11.233410185760375 7.989984896771266
Co 9.742599451593188 7.108385597406908 7.951613420991688
Co 8.181098995350427 10.864387790305946 7.2039175902102865
Co 12.26035377504537 10.93758851359539 6.6387494275083725
Co 6.90778570189591 8.937348803719132 7.893147370696133
Co 7.8978643312117205 7.3456870454925465 9.418819043288519
Co 11.009610578565031 9.03637931327921 7.2253009281111495
Co 10.044564692816794 10.611490174254037 5.749819559623599
Co 8.859124461955572 8.704422371386762 6.400099361804394
