30
Energy = -168.95914332 eV
Co 9.335545454456577 10.528540246256185 6.326085892359982
Co 11.306911077187749 11.643599596734434 6.927537483770789
Co 11.858783631664457 9.47869230340385 7.572349649722125
Co 9.20193487921934 12.506651710098383 7.705007201490881
Co 9.3950639262989 8.549826888708063 7.656039825053469
Co 7.946197577037674 10.598047801799703 8.255932590357396
Co 12.245699124786352 10.23386893461773 9.724976755207114
Co 9.335124763249189 6.616585501565337 9.149206975813337
Co 10.114452029138244 10.536067038778395 8.583108847696687
Co 9.833582802926522 14.152346356236094 9.260064493620627
Co 10.855700612486045 8.29838737900081 9.435676713953521
Co 13.227954197049092 11.492493689706762 8.160389706847537
Co 8.506629982680668 8.79829148235601 9.791983977512212
Co 11.37049524355758 12.512541918314469 9.101653671300786
Co 8.857187523638508 12.151750632413137 9.898340200102048
Co 11.136593750566648 6.401114493791219 10.68152220610505
Co 12.167620357818654 10.397843415135057 12.030839674213262
Co 9.08653841754553 13.81024501369944 11.438800425987418
Co 7.347338140445346 10.592711455224693 10.661974815611888
Co 13.069208952971701 12.133830591043111 10.669837697983766
Co 8.98865303928722 7.102437529905092 11.34368383001862
Co 8.288327274121318 9.225316612166024 12.235137389566962
Co 10.031617238482474 10.27537705997952 10.96648898356917
Co 10.875313308480155 12.422645181087518 11.399832231912171
Co 12.821396929998038 8.279928978744305 10.758450047825614
Co 8.67506911344863 11.679810284838888 12.290660243066249
Co 10.945963359087228 8.343798876729585 11.97229494682462
Co 7.531889727111883 7.228772533732824 13.023474050586218
Co 10.198132745116643 10.235931102774003 13.347423896651915
Co 9.588491831808403 7.915962402825964 13.774642586935025
