37
Energy = -213.53848658 eV
Co 9.49139252498609 12.117527006388467 12.748974146008933
Co 8.681565249800009 11.234620842021908 8.56702123428967
Co 8.2485428446538 13.455376776350011 9.048149561839237
Co 10.309754941131084 11.31999552638397 10.543412977442957
Co 9.199329167382068 12.785469167188607 6.7072215067887
Co 6.973351841045521 12.332522222739872 7.246731828039847
Co 7.210698918688525 7.783246748418982 8.854208793993854
Co 10.507095289277208 12.729280592261754 8.62512248022795
Co 10.92105880134122 7.156520873927083 10.777051698490952
Co 11.85050950581768 10.674019637697555 8.900701521524748
Co 11.163444716732114 8.553235263045375 7.74999683615928
Co 8.262951572230584 10.692638704035497 6.180987049556381
Co 11.45015733799145 9.493495150006044 11.734628170869222
Co 12.523307737240286 8.547637591275905 9.699326759217543
Co 11.843090889843289 6.528382041338673 8.663138720029274
Co 6.602257908508527 9.948814443051896 7.848752627011943
Co 13.157137720080426 6.4507077232534495 10.612067241801396
Co 8.090455915631571 11.963534907858625 10.887210619873708
Co 10.537171837304033 10.271334160891795 13.747422541341544
Co 12.073763313268351 8.505704823620167 13.791660125061894
Co 13.269696580276873 10.368157922856533 13.205341918635304
Co 10.023059327718157 9.163741932666676 9.703461901224463
Co 12.04186427572809 6.520926073452592 12.676120540586387
Co 9.529342994465408 7.044793737454602 8.819112388411796
Co 10.441714488446182 10.710073425919132 7.051017968640581
Co 13.303203329245335 10.583315236817333 10.80380167639428
Co 9.9936243536845 7.8763379894071734 12.833237346780079
Co 6.377746246168094 11.72206661741144 9.359289991255512
Co 7.637180610174807 9.69337185443492 10.0219048155868
Co 11.767947053482498 11.818586178830069 12.305135406684158
Co 8.572785398300253 7.706364705532926 10.886346363510052
Co 8.797702573481981 8.97008759865983 7.6799014151048155
Co 9.938486435572834 13.528011291354893 10.784946047817098
Co 13.490138628470637 8.35409899754728 11.88316362971551
Co 9.046379520589385 9.870327070793042 11.95210716035421
Co 12.28429320838571 12.654477520027033 10.180032914655333
Co 4.9460200895822615 11.429420791805898 7.479515221800953
