38
Energy = -220.29384597 eV
Co 4.29562469533029 7.813717186794334 9.50727158202916
Co 9.861754689976895 10.440817027303039 5.3057453175017
Co 9.317098105705414 4.6537663024859715 7.331813365571382
Co 4.218956230880136 9.381269088131567 7.429028836633516
Co 7.979566258275999 6.450226559623645 10.932562167530243
Co 9.31154267028167 7.894523095210454 4.870736107265379
Co 10.778617226888993 7.639878720243474 10.627419333872423
Co 7.789465486506041 4.592222156190628 9.326339066318551
Co 7.199214564676042 7.687540724965873 6.103023894938588
Co 8.2453434284761 11.452179901244222 6.846092052614106
Co 5.331759603668072 7.373014337496554 7.50417489488205
Co 7.0657989584519205 10.399303632756427 10.809836389862992
Co 8.265996489492961 5.775276871502685 5.20439591276556
Co 9.941428637302883 8.409652157564192 8.692125337777762
Co 6.435042906954011 4.880679645071076 11.336979746534725
Co 8.72516219687487 9.251750238566258 6.851010676198196
Co 10.754098257950293 6.0039550969602065 5.674967797794253
Co 6.398930668153426 9.924713277673332 6.780916317066931
Co 10.572383720895846 10.052863276341677 10.146937481209273
Co 7.586677421727328 7.713748610666109 8.74090583770204
Co 7.011397690577163 7.438994385963913 3.8554046902890633
Co 10.56099588234775 10.467284048997115 7.707360770383191
Co 7.637324059227501 9.615443450689575 4.779816917830579
Co 6.317490333756839 8.107530022154496 10.936558877313583
Co 10.984608683452246 8.50150080455975 6.489371324550097
Co 7.125673448285136 5.609354948477152 7.376245047423146
Co 8.373527766438702 10.342411886102953 8.948975163580497
Co 8.670337737506337 8.699402609008075 10.72864775304885
Co 9.564197890864659 6.075418175884272 9.287277819104927
Co 5.978263157144643 6.147273965365075 9.458487679483778
Co 4.8192142824031725 6.5182111180683755 11.463665031732077
Co 12.155536133584077 8.861341526433664 8.782191195701913
Co 5.1625512950695525 8.430650540437925 5.3800466216644205
Co 6.464480210318398 11.549095423490916 8.487216281138853
Co 5.901998015865574 9.405700384513676 9.069761135038673
Co 9.213506082923887 6.869225947587484 7.054285567799988
Co 11.402387154893992 6.6624594845174325 7.948886375070862
Co 5.747410735691295 6.072966149777615 5.388882411596439
