30
Energy = -169.75066984 eV
Co 9.556031977187546 9.54659426689399 5.855538429630225
Co 8.648831837057692 7.526234580735135 6.508354186777116
Co 10.314971555667002 5.871008164492922 7.399764010874228
Co 11.003462701617437 8.073431454166235 6.993338927604126
Co 8.948829966129207 11.6158126052872 6.87003252898756
Co 8.027803788786011 5.640411689934688 7.830257313509904
Co 8.535262660437908 13.74200396635662 8.196109807451194
Co 10.434009597560953 10.026884346504492 8.029467983069084
Co 8.085370268065969 9.582178253038977 7.693855745829206
Co 6.8197688029471335 7.609901688671529 8.23728072790402
Co 12.467359085134602 9.03319298383488 8.659553061991353
Co 9.373958382959849 7.643046348974519 8.683635128723859
Co 7.3670036765648845 11.800560817373505 8.474532730726843
Co 10.263325492694158 12.294905692164434 8.599334905107126
Co 9.820776248931976 5.355262628645308 9.544265808193934
Co 8.75284323009293 12.900466983925792 10.315438456638459
Co 10.97773327405963 13.31618128815045 10.520292329362025
Co 6.242109423179487 9.765164675915537 9.073136412000727
Co 11.515672530078325 7.029240817913989 9.2553551773503
Co 5.837079806117804 5.690671543051875 8.976672905021355
Co 5.734905972169293 7.632753160988333 10.329875088111418
Co 11.908478888534946 11.128631729701134 9.66147532565354
Co 8.825526425264988 10.657351486678191 9.826156847528484
Co 7.67328671941247 6.2739506185026155 10.13528073884945
Co 10.718776130528465 9.109429366304468 10.234050439279759
Co 9.736293035505872 7.132015094571129 11.071079986215382
Co 10.41820861336098 11.288682033483129 11.373123652850584
Co 7.82607752994146 8.643490210272612 10.23624736248266
Co 7.6255954785778135 7.4296590218568745 12.13005130766538
Co 9.21109651228558 9.311332092461303 11.956892285463262
