31
Energy = -172.58835901 eV
Co 14.313279370494337 12.51508489094382 10.284062560378864
Co 8.212167453247792 11.439457731894372 9.35923358596043
Co 10.305025105236433 9.905002228478356 8.992729121097653
Co 11.932796348194977 10.731525710731196 12.597286483694475
Co 11.828253639035744 11.223443808319805 7.963398050356672
Co 9.098848942608269 7.735884428331784 11.994283672260783
Co 10.088579447434661 12.668781507640533 8.50504019174049
Co 10.416274897015487 11.546864157861158 10.745749874091057
Co 10.480675037139559 9.004376172574085 13.409436952476833
Co 14.328354113000845 14.011951357087097 12.125570889148795
Co 8.651073340327526 9.610772601708891 10.811926440848584
Co 12.111911049321986 12.882634048146953 9.51079287141932
Co 12.465762688178529 12.818589932718726 11.762914057724387
Co 15.915312304220251 12.438459115693123 12.008549747746207
Co 10.908268088073868 9.040163145130872 11.079827392526719
Co 8.031247936794164 13.088976962847 7.811156929692554
Co 9.896689421581808 11.403692254615562 13.582233225401051
Co 14.341425898342038 10.643606746451844 11.621186324149306
Co 12.504582164399118 10.575839269425156 10.104515746310659
Co 11.388266856778307 7.196018713185334 12.405201485742598
Co 8.28369345252829 9.656424131127919 13.105135286530079
Co 11.823399503686435 12.681292940855874 13.91604364479739
Co 8.85849992128724 13.486020499906854 10.292350442708372
Co 8.163116226368292 9.274590513721511 8.532775839072565
Co 7.728221768533272 11.674478728537892 13.966022226615895
Co 8.275073913354275 11.79033468325948 11.778285877827596
Co 16.55479189829016 10.425343058346323 11.600762304566866
Co 9.114303311812318 11.014678455207592 7.262564291748434
Co 14.068175882083223 12.035134985301138 13.376221804394794
Co 12.968777812931334 8.841567178349342 12.178243287961632
Co 10.15531449388219 13.271191870955063 12.26492258582083
