34
Energy = -195.05271431 eV
Co 13.206074043539248 9.250519697905435 8.930530199601277
Co 13.575456936105695 8.228887319224345 11.006170617909028
Co 12.817685170895698 10.13286300402949 6.818566535686534
Co 12.032629278531909 11.346321390632207 8.673189621754311
Co 12.432545825925517 10.340507357088827 10.926623395253117
Co 12.035347920036678 7.226855724810367 9.57600992876362
Co 11.638277592133468 8.218480279811835 7.408719467826301
Co 11.572118930153344 12.241163357538765 6.583691024005868
Co 12.82140168877064 9.411766247900994 12.943836576955453
Co 9.691184364407293 7.226785144577012 10.080791924173425
Co 10.897119969229168 9.243675203405953 9.393288408470486
Co 11.313902308450098 8.276460430963049 11.586930302522672
Co 10.468316676658668 10.261314027685495 7.168201051053818
Co 11.214027315635954 12.391024489230285 10.671506175985092
Co 10.752732524457501 13.337694880376064 8.455365909413556
Co 10.121430979673534 10.498030983191594 11.477559681424937
Co 10.561203856213346 9.354768217759696 13.471997760605516
Co 9.654949181955935 11.373997956988344 9.178976008021127
Co 9.245180420223198 12.245078253315162 6.989800262708671
Co 8.928071675119096 8.394978139980104 12.089274949557153
Co 8.385304005581185 10.46405475173244 13.04996201298134
Co 8.481655666621673 9.32372890038159 9.894537056418844
Co 9.29791349834123 8.201221739384744 7.91293002151731
Co 8.164235150847222 6.291583213383837 8.580492161116549
Co 7.980487164512243 11.458397372124555 10.975725695840136
Co 7.308284875214188 7.31698123461198 10.610646069110734
Co 6.833660692570587 9.399273364509085 11.599487908903455
Co 9.141920333356662 13.386325764893519 10.246805164913546
Co 7.609553635306454 12.349248665419763 8.731577907793598
Co 6.435264120253072 10.385451986250313 9.453751081030827
Co 8.053994854378393 10.282312863438758 7.678690781406145
Co 5.27073466037088 8.405253914186629 10.07417947174961
Co 6.892829659838275 8.296027325479754 8.422941343035085
Co 5.905381261342161 6.275624674325408 9.184146628794815
