31
Energy = -176.41828149 eV
Co 12.335351051378618 8.741401999863028 13.801547982561807
Co 10.127323799434848 9.389967617652268 13.730106816191055
Co 11.844560414725418 10.821998138232829 12.970799936450621
Co 10.81926902859346 7.792174217030942 12.209359837509728
Co 12.670917065772427 9.164947024573193 11.539372393573338
Co 12.250652557756496 11.328273957189243 10.604777312028073
Co 8.562966510230643 8.626502803155745 12.104290996952686
Co 8.827723212107724 11.02973643868277 12.697436125227396
Co 10.401389075685412 9.965168785299658 11.320384377752434
Co 9.197892186666762 7.128554121079533 10.450510339897136
Co 10.489961670182009 12.406698360111836 11.64274832742293
Co 11.2371854463421 8.158243918811378 9.909599279904523
Co 6.752221382587113 8.06446394336357 10.615621666201248
Co 7.086682799601771 10.296972323995544 11.329344464147242
Co 13.114357909553974 9.605006349122668 9.241738051416469
Co 12.6944591457687 11.678097389410937 8.27385196741502
Co 10.721184921768433 12.59403291350194 9.21164343768033
Co 10.789549307644444 10.282975677750311 8.893707440317035
Co 11.983045364023159 8.54256727153195 7.573702034399216
Co 8.568152509959019 9.246921384346502 9.670585232628044
Co 6.075162032503718 8.7119619953732 8.46655115116893
Co 9.773852287105672 8.021572096412841 8.05756171439368
Co 8.878744621409352 11.499636889668732 10.249658396684483
Co 5.136453999389241 9.681678325238982 10.315500045852325
Co 12.487567726398654 10.450826349433337 6.390800063465181
Co 7.742053371000863 7.12779780951099 8.573289295300187
Co 10.924898902212323 12.131087764871383 6.804863158372264
Co 10.209545146995344 9.919478959895157 6.6354603437322375
Co 8.929930957308592 11.513314241351614 7.895420267185944
Co 6.865281005270525 10.805984151185006 9.024772076036776
Co 8.011121931542847 9.434130067895346 7.370490041758447
