36
Energy = -207.76543939 eV
Co 13.761042497388127 11.223673195219263 10.84345274171103
Co 12.233845367127804 10.696652038586727 13.98857184347478
Co 6.704628079138806 9.371559300817403 10.930845618373372
Co 12.030306790280537 14.031203222905845 8.834865007076615
Co 8.039336611785492 7.5912181388384035 11.512528325318188
Co 11.018246858208144 7.776364972752929 8.688883295636922
Co 14.73716243488324 9.126020501129775 10.437689053023323
Co 11.329544805069363 8.650259641303833 13.176331102218604
Co 12.512918751544838 9.100230125552429 9.992362474248443
Co 8.34815807311026 13.851205109555224 10.496077581134827
Co 9.088438469143707 12.342943326493161 12.173164828261015
Co 8.924045956954764 9.914991988297803 11.312796091748446
Co 7.970033032598836 10.182115689818444 8.993394662737767
Co 13.979220320632242 12.752209443542197 8.920136294395576
Co 10.477727591408032 8.054600296787944 11.111275868697366
Co 9.308925017301997 11.910295509023204 9.837021713737993
Co 7.5226137290691115 10.493812448773799 12.996877888245779
Co 13.771898005212808 12.052503466374562 12.934660558135274
Co 11.471358457961752 12.556600855923252 12.732109492383627
Co 10.337172913150383 9.855140769403887 9.376141600828012
Co 12.955646334644769 13.38570935578682 11.054395838127183
Co 10.669248224413018 13.59411802016951 10.789442755393678
Co 9.007957780389601 8.578437315683713 13.290360044832855
Co 9.938558184758056 10.675864937922814 13.498487953327954
Co 7.250047654614165 11.649403727705634 10.887754296921418
Co 9.85551967416316 13.713122791631626 8.511998244084896
Co 9.532098323106704 9.174237233678278 7.339986726809503
Co 13.865397875177802 10.472492083542754 8.619056383409559
Co 11.35450581769903 10.544824558243754 11.609273682763813
Co 11.872175043518192 11.764027054250375 9.458794510440724
Co 8.780741048168219 8.101327269816894 9.448971128186345
Co 13.38840440810686 9.509573872341377 12.331069470029545
Co 10.133992129022468 11.523411245443805 7.633900303292993
Co 12.290698047703435 12.27396162018453 7.230878106119191
Co 12.709468229475291 7.467903444300771 11.577276634528797
Co 11.864322325497255 9.910664599504445 7.643305502946213
