32
Energy = -183.06252255 eV
Co 11.795254040348095 12.544481182224194 9.729819488660423
Co 12.146939246589845 10.298048924346963 10.785442740568813
Co 8.382163281466912 12.001654370902267 6.775549124661718
Co 11.780991984644956 10.214698298187331 13.19437336162683
Co 12.15516314312743 12.58239750912317 7.411240838268614
Co 11.806207358624718 12.236448808164086 12.116898645787549
Co 12.316442446349903 10.44716819928683 8.444109663233535
Co 10.383305496079878 13.017754877933369 5.932789745005426
Co 10.181223486673636 10.789546860951553 9.312676500412268
Co 12.54747255056527 6.3052663331873156 10.724663007727807
Co 9.946244913698974 10.763612735659304 11.74997004475508
Co 10.471520989017845 10.92779124640918 6.96117380896024
Co 9.974859241176702 12.926339219326248 8.199414264797907
Co 10.591980208866488 8.754618515783147 8.0843317851101
Co 8.009800000498451 11.89450689349255 9.144668178264833
Co 12.419298088733274 8.296991138515427 9.506956753196716
Co 10.647268092012105 6.613854922207877 9.363290798258118
Co 12.173748536076564 8.2352840615859 11.918139789715722
Co 9.617867671330654 12.860947000668856 10.569513910460419
Co 8.657629806890082 5.837128202797468 10.299738308196707
Co 10.312925012566028 8.655371660154293 10.515126686240755
Co 11.136137584538062 14.251734687662841 11.425568649307365
Co 8.505164789482158 9.928548436675133 7.928209843168965
Co 9.656395836669175 12.792923219199889 12.919245547596484
Co 10.414493217474533 6.569600660497191 11.66689156054175
Co 8.602917782754625 7.8534943993088016 9.117262984182466
Co 8.152898609390876 9.8742675374489 10.3574286067722
Co 8.331600631780152 7.778274148896263 11.503964884406413
Co 7.8298626115664565 11.85918486296584 11.655958039692603
Co 9.682668658641626 10.7977422477442 14.092455331063482
Co 8.02454363347511 9.787621004047208 12.755086918597213
Co 10.047744435672897 8.61284551432007 12.940753159931017
