37
Energy = -212.19016339 eV
Co 14.304218466767235 11.888345287144812 10.903351377089857
Co 13.782275534792296 11.819734991919944 13.209490151151002
Co 14.961934649369566 10.003659094137351 12.15866918173129
Co 13.396500825673026 13.834568652740291 10.063038119370527
Co 11.46648683136222 11.618750157432851 13.828684704649392
Co 11.711788911085783 9.554316218729168 14.900272027374339
Co 12.670912376651664 13.671358248735478 12.239793649908727
Co 12.45019711850487 11.803587230150365 9.166278292862527
Co 10.390259007325179 13.157924855989817 12.441656421053287
Co 13.407626923686404 9.797031838203074 10.47195417708612
Co 10.466936161224341 10.027756613228853 12.150835063011792
Co 10.581203885978182 8.181441766936771 13.439117325936513
Co 12.576059285734019 9.095018247571831 8.356875424049015
Co 12.112012281726008 11.58926968034384 11.502676689458353
Co 11.962346056228817 8.177223091607638 11.354713515267575
Co 11.14002356486904 13.616554133110961 10.262567500961675
Co 9.456110628218532 12.619495436460602 14.510760655142635
Co 10.144255501292783 12.556218451063387 8.375976200335417
Co 11.024017973712185 9.771526303318312 9.86082585923082
Co 9.59267912351568 10.279790733441489 14.390906762051657
Co 7.807201523099599 11.957633104165652 9.26601168747452
Co 8.490960046274903 13.396337344063923 10.914157916528243
Co 11.244411154898252 10.731831626277302 7.395977165755889
Co 9.86737107301857 11.696743209435207 10.512948823117533
Co 10.972538941810868 7.5178113288232815 9.274220885775518
Co 9.959381147920077 10.11809189664585 5.615043914825499
Co 10.431699170052875 8.460097559612338 7.241626601946943
Co 8.365943970912271 9.850358324714334 10.543486829351366
Co 8.561540853064539 11.638325671191321 12.593565991631461
Co 6.774759180624501 11.286195291066523 11.234900094760242
Co 9.643907351509966 7.993249471848038 11.17049616659487
Co 8.29975571787369 9.241944332932507 12.757256319480161
Co 8.708208897231673 11.696139371618557 6.753167187070145
Co 9.201971962532731 10.268018382121728 8.417436030653741
Co 8.313516946671088 9.118017599308098 6.67375876682037
Co 8.747689040161873 8.061054836138098 8.914832500858141
Co 12.812241813772953 9.705523516917497 12.933613918780917
