30
Energy = -169.37527497 eV
Co 8.774285851529495 9.125885289988803 5.740112055256232
Co 12.812372803696375 9.805089620992165 5.897764404066055
Co 10.671117370284975 9.886766347722483 6.6074612113593565
Co 12.282104664738196 11.70334541951005 6.909982537961786
Co 9.599374692882728 7.967068702258204 7.5389110942049
Co 10.067053351415321 11.79602848742707 7.813110975598019
Co 8.327093722258999 10.180215973581475 7.712368091961609
Co 12.455008448463792 9.407712051068888 8.105472679566468
Co 10.218471858860644 9.734362795257278 9.091693042778406
Co 8.214658429180476 8.416275304711156 9.321220609356867
Co 9.441912669912483 6.444340231935953 9.237624872022481
Co 8.027075916630674 12.340753140633828 8.704440489931471
Co 11.43149155343826 7.657331085295641 9.00039587470252
Co 11.97549343880668 11.40255511915646 9.1498671747582
Co 7.990820306028062 10.704558658070098 10.200803936206674
Co 9.927515326446036 12.296091215543507 10.123051141532342
Co 6.266792958132607 9.187627991965712 10.280436104191619
Co 11.954810626513977 11.75042817937197 11.403973622200306
Co 10.00376313299297 10.252656862093438 11.429112148865515
Co 6.865696676221702 10.53524184556838 12.252993584850365
Co 12.138694201387127 9.442994232682334 10.695909396260365
Co 7.98869820968742 8.63674025036511 11.671733043303519
Co 10.48631148146833 13.36503080631441 12.107409866939747
Co 10.131075088110013 7.902820793482855 10.901049223222074
Co 12.876699063684846 10.240472193803464 12.82168110104827
Co 8.67961809237888 11.945477506732935 12.171611931269302
Co 10.769502818012162 11.360378721924553 13.341050418571626
Co 8.852410620408781 9.791098067161856 13.432016990798566
Co 11.095049204976632 8.892231549154383 12.875110318558276
Co 9.330389367138066 7.483783501912264 13.116994004344559
