38
Energy = -220.24529822 eV
Co 7.595770726668513 8.264230920967838 6.262910514940183
Co 9.651517947077682 9.797139430404249 6.456183059280096
Co 9.654955718902855 7.180738531912587 6.069007906444002
Co 7.52892851305733 10.618778592696735 6.036717097130105
Co 11.980171097991787 10.42511104479459 6.679935246607026
Co 10.532164737958968 11.869215027951851 7.582540339810147
Co 11.329124385473369 8.252360593174998 7.188048945591126
Co 8.176480537905418 6.0321921563208925 7.433764867883847
Co 8.428289259342844 12.758579483950806 6.980555541555011
Co 6.477095630860276 9.548387251275614 7.827058604183725
Co 8.992445323489518 8.193148590023096 8.123255559384399
Co 6.284049485383401 11.945625189139086 7.566952005429588
Co 12.03602726456745 11.583246966427035 9.41747768028225
Co 10.367658021748436 6.2860746379626855 8.310517665438908
Co 13.033805749247914 9.621516063433202 8.551668802466414
Co 10.674644799940788 9.787234932715831 8.872883388801387
Co 8.396860150981174 10.817987768738906 8.258875318738113
Co 6.771205611222776 7.424954000171025 8.644440966293612
Co 9.818341596617444 13.831975507792517 8.512816880135295
Co 12.145861143798173 7.5592216999068835 9.239535545809563
Co 10.763715542070443 5.813913420511271 10.639631667614044
Co 6.371036486409557 11.00968509902446 9.71390297069939
Co 7.768240886655288 12.923917298377237 9.22733866587237
Co 8.563358426649849 6.419648184849286 9.815819157880727
Co 7.973668656012625 9.249924684036943 10.070449549302975
Co 10.174994220882603 8.048431134141595 10.502257868132991
Co 9.774299293091396 11.97463759163506 9.86581557055477
Co 5.401290622369125 8.856653195398865 9.856434542853842
Co 6.966876806487853 7.4574084995191345 11.165228648373633
Co 12.325408480261386 7.3333753723024255 11.542205324598568
Co 12.169027971701498 9.495201959927792 10.741693214883968
Co 11.103956477242331 6.038655876652185 12.97491639160915
Co 7.977694963326528 11.346978781594647 11.290415366788043
Co 6.324003560947404 9.739089989175932 11.794633696730218
Co 10.108517902713652 10.279139413806108 11.369820546264645
Co 9.087870097519858 6.719750141987375 12.12092322525167
Co 8.423474619021706 8.983073172255096 12.361243494892378
Co 10.705037914405626 8.370668425050624 12.78999479149763
