35
Energy = -202.17218094 eV
Co 6.996942578216812 10.432818748871094 9.834176133908475
Co 10.796691341384141 12.675650218086526 10.375307507681722
Co 9.755029955804009 12.113151691660438 12.425784373130943
Co 12.080728561263246 9.229831507697817 7.280044106227173
Co 7.593770336767026 5.939774789680364 8.335633302462485
Co 5.67850745604697 8.522900665161444 9.783358917377493
Co 6.85486780589985 6.715549591447667 10.521932699022509
Co 9.121137439544299 10.198477819309558 8.239196391094097
Co 7.752086904006028 8.720617589622522 11.349884469128202
Co 11.320459538924739 10.723329913515627 9.081179650379132
Co 7.748569470363666 12.66458235058968 10.10253733021665
Co 9.258169194123044 10.998687910219452 10.509097800555745
Co 10.372479104539934 8.049540869607096 8.309958098410636
Co 7.911382088941953 8.247549465548406 8.96962028079991
Co 7.454394682632849 9.42300106733898 6.8204028839399635
Co 12.393091815304512 6.916871992371354 8.099638308570018
Co 10.027768176522226 5.782909417108657 8.034891928475794
Co 7.228727834710427 11.716565632672602 7.947900481460422
Co 9.512416374666985 7.297822831805722 12.17596353670671
Co 11.353785741154233 6.716438211282081 10.202951928005861
Co 9.095494144869308 6.506956892142547 10.059030888905925
Co 6.071106046651251 7.609264624414673 7.679566735902743
Co 11.436743833235237 10.530949317975825 11.452143095545479
Co 10.924217111182035 11.282964971562901 6.909550509026774
Co 9.499590407393184 9.728504977827443 12.581786638709994
Co 10.973802152982634 7.157988347420919 6.240726087291341
Co 10.044371782143857 8.801854360647244 10.47725893939617
Co 8.603938894477155 7.335524094820692 6.817923015097056
Co 7.561357497821402 11.053915332614364 12.063755431571165
Co 12.341568194684495 8.751294129026459 9.702110671158392
Co 9.924972119561321 9.28501715054102 6.235156025026214
Co 8.722661053873722 11.403524989922202 6.193082649116357
Co 5.574923972887296 9.974160742862011 7.967008764894078
Co 11.682142574823907 8.226219785181172 12.007343989970416
Co 9.462249381948832 12.466045001521316 8.509922340644112
