38
Energy = -193.34786173 eV
Co 19.58374232658591 19.21632233106801 21.680211036925115
Co 20.772437893931926 14.73937343612299 11.538376595721164
Co 17.868355575456988 17.561978883821748 13.342308740710536
Co 14.789268741885898 19.165302746179318 20.578486166902994
Co 17.530836289556415 19.606613688217433 22.235677303102687
Co 14.958766357058172 17.02940221472334 21.4831156601102
Co 19.400734876750878 18.786947574301674 11.96678248589008
Co 20.580440183284036 9.083868165100027 19.728649669943685
Co 17.526834773406772 21.79739888696478 21.695696124895935
Co 12.239622224521876 15.893404127809095 12.646371882996515
Co 13.478316755549642 14.104973751908345 13.354580088546939
Co 22.44818674334948 9.468458713289387 19.970693736621108
Co 16.679202966949944 20.199522055515978 20.242622371040913
Co 18.647715615299504 14.790105254131051 10.654365988551998
Co 15.785188116688756 17.404743765173173 12.29028015249074
Co 20.22517105180191 16.420665667616653 10.06021208908004
Co 14.754634493572206 17.424985045614704 19.203458424320317
Co 12.70792703112213 12.975005429049544 15.1327367446867
Co 14.37493588212104 13.017352435094548 16.860623643213135
Co 13.902215129806873 16.6083377835925 14.026757098336402
Co 16.69326092735665 15.343199676972727 12.056803975066074
Co 16.84667083455558 17.963240694566892 20.8164598962197
Co 14.001062336681956 15.163567581590273 17.97435312427133
Co 12.642373320537855 16.923271837570752 18.913978603856602
Co 13.93844988075708 14.944051701083078 15.6445793221098
Co 18.886573757307918 15.488578052683488 12.807212782108277
Co 11.745564210555267 15.12649475179167 14.74472912167808
Co 19.599200724620925 21.31902732971225 22.085717439535035
Co 12.609558379620905 11.51253270415367 16.942493625614166
Co 12.225640937884966 16.10231597402181 16.804012396657143
Co 20.507535403099457 16.837552011920167 12.231489357061593
Co 13.123356805040583 10.861218108512254 14.901077230340885
Co 12.199619935695928 13.913942985882425 17.18504825042725
Co 13.88533125018288 15.47768589848391 20.187311950472488
Co 17.1740259151315 19.043283591595543 11.635231318425262
Co 15.564422639015628 14.997258496751755 13.899627614939641
Co 14.327416907219401 15.739766430952594 11.857802013057139
Co 18.137309445634408 16.990472510430877 11.072823828211014
