39
Energy = -225.82137933 eV
Co 8.220380549632317 7.876119198675557 5.9750421614226115
Co 9.440992292112549 9.826639549433153 6.288597820998146
Co 10.169577636653285 11.947439091560486 6.197682201516961
Co 7.8575130068578805 11.252435764451837 7.178398675193712
Co 10.745657747981284 7.907257096942968 6.171193336659009
Co 9.388823286831675 5.948217139028052 6.190294909647456
Co 7.660783298967615 9.08285928162139 7.914279968524254
Co 11.655682302889502 10.03645889970784 6.906820151386744
Co 7.270251891226684 6.7005761677474815 7.822682363671923
Co 9.358351217225504 12.578810784084869 8.247330321635676
Co 9.938371476355846 10.083928635540017 8.580357051487372
Co 11.234455671917974 5.930451444580679 7.576877787850342
Co 11.575033020418509 12.0169987234519 8.167417413789408
Co 9.485058513393577 7.514184044370042 8.102866880695323
Co 11.784617595299181 8.122534863404178 8.259091560358373
Co 9.104354686585214 5.188722678896557 8.335063136669579
Co 5.983532108902184 10.319076912302116 8.81031671044291
Co 8.005750017228484 11.149893811878568 9.563530833833706
Co 10.578223299694848 12.765121400950106 10.231677729933093
Co 10.516320444965194 6.312987626181409 9.90137910614165
Co 12.208094271383542 10.15075601458768 9.336588896253835
Co 8.290843906951121 13.307543220976099 10.283408953718785
Co 8.166636502188469 6.486273473454312 10.002878310822066
Co 8.541819247820364 8.803618315589201 10.186187051256733
Co 6.326043309591387 8.052566470472042 9.503262604982334
Co 12.81358667118934 12.164656454353466 10.271253361141385
Co 10.932518930778347 8.508119659099883 10.443163201127417
Co 7.981286536120797 11.59641192945368 11.91655286551513
Co 10.064640072348098 10.631508481173903 11.108276071898338
Co 9.44242230888136 7.283027347907515 11.843754480435203
Co 9.504435588894074 13.275370875108553 12.265974805100392
Co 6.598483886711581 9.913753674866962 11.032680299614572
Co 7.0430149551264805 7.653816317575457 11.745938382102844
Co 12.42442757849484 10.192363972378164 11.637001386943227
Co 8.460960746133464 9.37020502726578 12.518983305784563
Co 11.600828721150211 12.211631035684338 12.326560510350358
Co 10.748545970808445 9.047596612789489 12.78655494740439
Co 9.817876064484011 11.151649860172517 13.428414688221215
Co 12.034016267275293 10.61262974375295 13.915877356939506
