31
Energy = -176.87627878 eV
Co 6.776684221057093 9.468055596177841 11.450783889029791
Co 8.157885814249 8.808814148852672 13.326703590639738
Co 6.881008668191795 7.973536193362371 9.45855732232651
Co 7.099663670925999 9.14725525010525 7.350028366592948
Co 7.671601410803844 7.34702345841896 11.545309809538955
Co 7.725371690252553 11.353019832056601 7.306701394893445
Co 7.943465580080981 7.004718863206904 7.614929209181085
Co 7.970878170193509 11.425002502351548 11.416675223062875
Co 7.761406348758774 10.185989638454679 9.393462164666593
Co 9.130022816973904 9.30582498510468 11.324246519013784
Co 9.222333860184762 10.742413182327724 5.511884944596818
Co 9.403924659389507 10.801903694985317 13.149619107722168
Co 10.506657082011964 8.476786427602283 12.98404137603266
Co 8.457838489427854 5.985578117528192 9.617059685237304
Co 9.259832479438023 8.10924091409091 9.291323830959545
Co 9.432564214216868 9.741442195540683 7.5487621301954615
Co 8.809047635416134 12.330258921834833 9.315507940079481
Co 8.608202233299071 8.470741881314986 5.7103686580060184
Co 9.885994889009563 6.8625663649798145 11.40647825214314
Co 10.125488277724688 12.239677242532986 11.244474793458282
Co 11.33678130520802 10.357857694806123 11.815786594819315
Co 11.044671829750314 9.252909098434092 5.976502213096157
Co 10.301349772938645 10.492767988945605 9.610164915039297
Co 9.899566837650534 12.137197570629358 7.283502112067554
Co 10.803361056534857 6.41172596246689 9.292983535492773
Co 11.378098434751664 8.402533342450802 10.611463289051924
Co 11.337282521951018 12.510409493535203 9.298607754919207
Co 10.17090072854192 7.390420945585777 7.144043512795074
Co 12.594735395218287 10.500783754599505 9.732760005856537
Co 11.578363054224559 8.70476573277742 8.388514123123587
Co 11.740082159666779 10.831961331741246 7.56568658906036
