35
Energy = -197.36583262 eV
Co 10.01895940876458 14.091193007616923 9.99242319122878
Co 12.570541720934923 8.522783335243885 8.369345227904708
Co 8.564047042358807 6.556379074852256 8.41007491352457
Co 8.78518875328717 12.722730594123254 11.344412589634713
Co 10.57325963616613 9.601947077333524 9.44956334011862
Co 10.672891920301259 7.246344904247872 8.696007292676015
Co 6.802450571059849 13.2028525575288 7.849624608846769
Co 10.771212612674374 6.4473667158355035 10.868602387394349
Co 8.704247344587975 8.78140773700664 7.983104270163289
Co 14.258417735269987 9.985285626100199 7.892255157873715
Co 7.159174922848412 11.064287453758695 11.76485428460127
Co 13.958653497786704 9.645684777213932 11.894173821924925
Co 8.699741145829611 14.801691863582104 8.16826256556597
Co 14.37221497544602 8.76699886596471 9.7934961971272
Co 10.301700627183633 8.42943671373061 12.205453047173483
Co 7.454155416373551 10.907184154796083 7.696582539803665
Co 9.785531673793175 10.784281568299138 7.575117506576507
Co 6.5821507498871945 13.329835925740436 11.779977765978773
Co 8.865240870732503 7.881243480884511 10.224395825268516
Co 6.559992264897051 12.006797306326984 9.766084735176971
Co 8.736678319661577 6.6534627892988984 12.277432177945641
Co 8.031578274800887 8.910757710969163 12.033469515435089
Co 12.023344850659097 10.658914955956186 7.705900523119203
Co 7.511259956318402 14.1841592454845 9.898747169175381
Co 12.675035292449305 6.462407902662137 9.420969860777124
Co 12.738356709885323 10.53282488887812 10.047141224156997
Co 12.414243124257556 8.255824169540915 13.150424038504605
Co 9.577186261431777 10.582338715397706 11.526753647004263
Co 8.08291364508431 10.148445051294612 9.786108501230158
Co 12.28456305447128 8.228668106676762 10.820782539230951
Co 8.751695358864863 12.471903636334831 8.896419259432193
Co 11.143881955750121 12.399145437269178 11.391353176756242
Co 10.893574809866596 6.449543627401605 13.14253209815962
Co 11.039872605561651 12.124499193992527 9.175308546767242
Co 11.804183860109209 10.329512798012454 12.170987423097358
