33
Energy = -188.43026776 eV
Co 9.27405894655875 7.876661865707337 14.412602966274056
Co 12.770626514578971 13.158063195115048 13.533828300013488
Co 12.656849130864982 10.999361919056655 8.581224728719953
Co 10.98972773676897 11.728268190590567 14.288408951409547
Co 10.753706248739261 13.187242663878132 12.403170891094408
Co 9.25985722040302 12.239054921800834 10.744197480540729
Co 11.197438555024915 9.326465890334978 13.97710435528454
Co 9.745859950880899 8.465155232103909 12.27814561882955
Co 10.400048668422635 11.931116599629043 8.773522994215723
Co 10.636468585899136 14.040048990223244 10.182553358986377
Co 7.5349552537017175 8.526718384905527 12.869896138806112
Co 14.794867552948256 14.47784629523575 10.479032430458124
Co 10.532412415145677 7.5185534372902625 10.277247813539711
Co 9.28345304649176 8.358932983758976 8.485490036977051
Co 12.737707396287663 13.915051986531918 11.271725301088809
Co 12.201407877756381 8.815677089404815 9.289408749759161
Co 8.203245282635791 8.526659747274955 10.520595530747103
Co 11.973650312355604 9.018842029677167 11.616656858800603
Co 13.703262691090318 10.231103268667642 10.654297634279521
Co 10.248768238822828 9.846696286400885 10.103457822938037
Co 12.838350281313542 15.413379935952639 9.557900111286111
Co 8.77280677368923 12.267623967214929 13.183272115742907
Co 12.723948415684712 10.882576620985715 12.882229145305299
Co 14.218614279644465 12.398909207274196 9.662698675061073
Co 11.90365687249906 11.726900832415362 10.697728307886065
Co 8.263785519751156 10.575079471431746 9.279850932924942
Co 14.268911566745322 12.289763546937019 11.922486883396784
Co 14.37967534740469 14.224424277970584 8.263863316410896
Co 12.298866587681296 13.362903668470375 8.781914866267034
Co 8.051601464337908 10.485537385898812 11.698699971192864
Co 10.720416241942283 9.920664739131903 7.751481829186539
Co 8.935062511227173 10.077291527283105 14.001060943509566
Co 10.394166755421656 10.787373908047476 12.301783774381844
