34
Energy = -194.91482928 eV
Co 12.122652579602123 8.718833659783574 8.857036731295393
Co 10.808651125454801 8.602178662170838 12.624274302631592
Co 9.868405204513031 9.444895029478563 10.147881500834067
Co 13.652975681505184 7.324310243019834 9.99188937793196
Co 8.630011874343005 13.355794895700162 9.800338137780251
Co 13.626625962078478 11.940210340753115 10.252755966613645
Co 8.044256419441709 11.461212419831208 11.342134770624035
Co 11.64991979654226 14.410631378575466 12.989236197385257
Co 8.214429147527776 8.5868923342168 8.617239782688488
Co 9.955287659891763 10.726926723430664 12.505553035646301
Co 13.304334767915565 8.49699138506481 12.003984205073735
Co 13.342011509908893 14.037624827003768 11.392568856138956
Co 11.994001697322398 10.074098542314625 11.039679244633959
Co 7.605008938785449 9.256236720402665 10.73039124642199
Co 11.022183287740399 12.327048504447442 14.045380751595678
Co 13.46323723625855 12.800165189868528 13.435265361626595
Co 11.870529642902733 12.34522092137107 11.852196362979214
Co 10.120962765632886 9.870048572769726 7.834837791318822
Co 14.04661148748767 10.865045130796501 12.239657217627105
Co 12.321323538718858 13.8569505570825 15.084841863772546
Co 8.45652218864584 9.044610785955934 12.778534036264636
Co 10.203640583383088 7.490757824483803 8.827532536943595
Co 11.914005461441732 13.307927000584842 9.457563659300417
Co 10.19094058257889 14.602862262651438 8.625784565496811
Co 9.172820697879645 7.487567954329482 11.134704529376078
Co 11.924416746432597 11.000280261555453 8.844206160205118
Co 10.20434197599841 11.823599955285943 10.331340780689734
Co 12.154712307278526 10.382016781769922 13.42111369123232
Co 10.560498826821433 14.36234666541686 10.923736090887166
Co 10.06682937975377 12.326421302730646 8.10804318335913
Co 13.99555164259924 9.613558066666313 10.000085523612428
Co 9.477394968428822 13.011868648334435 12.367270555026334
Co 8.378987804052532 10.95499761178241 9.045456991628736
Co 11.51997362938055 7.51883793390644 10.752851372259684
