34
Energy = -195.61988799 eV
Co 10.821738236453621 12.513913947320997 6.959443759608746
Co 10.052290552607278 13.074206666603208 9.210253133585718
Co 7.025652568050717 10.150917304277595 6.936633364223917
Co 8.995662319688147 11.508182804709376 10.577170155763973
Co 12.447512110146755 12.88374692836674 8.999724009278387
Co 13.746493150625362 12.357242579502456 11.006385261093563
Co 10.53697250351995 11.085649261848605 12.81890772762483
Co 12.837091890565 11.35889327508211 7.307132958101389
Co 7.864348121125685 7.663436346148198 10.837105413901062
Co 11.019264057476413 11.028710367761871 8.7628653160467
Co 10.978457070890412 8.492456571219787 8.65666309412483
Co 11.010064228247252 9.926414393826 6.743722015131457
Co 8.884684830528057 7.144721243226879 8.81024395626053
Co 13.014053635974953 9.14150530920669 7.89270247594676
Co 8.146616007263813 11.194921708812362 12.799902378142047
Co 9.15834263209165 9.336474457954951 11.903674587235697
Co 11.336347701811587 8.513627432667588 12.662167620515214
Co 9.575249364682476 13.105000570862819 12.039215769015286
Co 9.160032018001191 7.306382758124345 12.861679476283884
Co 10.323398641005165 7.534386988960996 10.709945858428775
Co 11.44726378337116 12.251610013056448 10.99287907579928
Co 8.902447205405318 8.878555503160186 7.203458618061403
Co 8.945643372234256 9.44638438613752 9.460428851511411
Co 12.631556851940731 8.323360450536729 10.404063452298427
Co 11.073727473864412 9.869019838703073 10.729213299167435
Co 13.162439003266648 10.586998003638808 9.700717030910193
Co 7.060824948976464 9.81598681414467 11.057668143088232
Co 8.982445100806565 11.227485460326049 7.658272766477495
Co 11.928777580716117 9.976824644417325 14.258854570059246
Co 6.964430857104952 8.638735431779164 8.692549797253589
Co 7.364820365653585 8.911635706143375 13.293026404339106
Co 9.541731741179573 9.352629198314476 14.152590740562385
Co 12.835002039389556 10.492721533322602 12.122707986092077
Co 7.162725895317845 11.02013163709443 9.068763624743427
