34
Energy = -194.1165322 eV
Co 14.2534140311506 6.882616635661511 11.642870910806703
Co 8.518740434277692 14.655804047005967 11.159211964874235
Co 8.708305787915478 9.980202787349828 12.254313156691394
Co 12.979231637866125 13.702788988938167 15.035672626074364
Co 10.996947985172358 12.83705227397973 12.02228210064855
Co 12.330944801310267 7.580543962022695 10.56368120535831
Co 10.604187124094441 10.792054113432389 13.228121147247405
Co 14.705311763402483 13.047844354538775 13.318232870748837
Co 8.618725661474912 12.379352804165785 11.79662878960123
Co 12.699852521306811 14.288298129662516 12.846620280864975
Co 10.229631018051487 15.52253476128523 9.729321285882195
Co 8.657082743896627 11.74989709144821 13.981636487144318
Co 12.57914377563981 9.448130046624275 13.446303851167055
Co 13.647843635153398 12.751866662350883 11.282587082324769
Co 14.620872366462038 8.495451840242836 13.167907314877787
Co 13.934688623564249 11.01705768542986 9.575383275412548
Co 9.87336475720849 13.26241629676969 9.928018130935481
Co 10.870897486598459 8.879136910183044 11.80974868340144
Co 12.414903741427546 10.741050456300211 11.519384683127006
Co 12.37340819173774 7.242290039263079 12.834320189545261
Co 11.882564327439585 9.634085912861307 9.585936171537446
Co 12.72662953284135 11.914558836076809 13.66479343128286
Co 10.59205948254373 15.224011636306134 12.059436512587158
Co 11.4493195777118 13.992492933669539 8.28484158182336
Co 11.810803900911877 12.024333066166117 9.500264556572695
Co 12.08499896005843 14.361315108833644 10.442069139050153
Co 10.112197368281715 10.899833087070933 10.71212816951268
Co 14.555722470880145 10.762789413591305 12.708130769010827
Co 11.130248141275814 15.069479331830735 14.343310981954154
Co 15.623366130716478 11.557898088395179 10.92806515406584
Co 10.744019918264 12.815263041281161 14.488856902829657
Co 14.021925889510493 9.115424852010399 10.949793574655313
Co 13.658972022099881 13.286324273302073 8.995722253111637
Co 9.122493631002175 14.018386356968096 13.396057784911042
