32
Energy = -182.53934069 eV
Co 11.980411271399607 13.661000856313226 13.221666448084957
Co 11.459976092298044 11.43223794489842 13.124349383649104
Co 9.646808566068827 12.820662067247882 13.625474042992133
Co 13.677325407139854 12.043841101357877 12.927459670301685
Co 9.508286936094333 10.606544928599186 14.289283358280933
Co 12.950931700242256 9.753212977954625 12.381441659476355
Co 10.652217691626422 13.119371747549524 11.470314688582476
Co 10.867715099315397 9.083375343940693 13.223268286059993
Co 9.48076821159311 10.782295226713572 11.775167204923422
Co 14.305155069274324 10.998713532399451 10.962582039602268
Co 12.258281808301199 7.583082383517958 12.019475079532995
Co 8.282502802867588 13.116227811674229 11.830576645207895
Co 14.386050800255667 8.639957786524299 10.971665238611099
Co 7.5741902569041235 11.230106241455637 13.117191574310258
Co 13.001519013359538 13.206880162257047 11.068298137573548
Co 8.41463290166257 9.007335320153501 12.916742742185045
Co 6.282971609751547 9.561339225074873 12.117416359771877
Co 7.172189842916997 11.277529591176952 10.802322987200025
Co 9.172060547346657 12.195104559568039 9.85733168731188
Co 11.868229602298172 11.202499201700018 10.692743806155402
Co 11.322373356262034 12.91419693937999 9.115533459226558
Co 14.021461347177592 9.774112469004436 8.941537148355945
Co 13.560512043666412 12.177716669440022 9.007967902220336
Co 12.19053771027459 8.931064263030404 10.143567828242691
Co 10.133111547240102 8.356903404789724 11.230575612097166
Co 8.009126572883483 9.148531130874844 10.572791528980716
Co 7.899709753471265 10.614027959328178 8.690645460039338
Co 13.913652595625967 11.13247398276898 7.0428503050397735
Co 10.001140746335437 9.970147250034648 9.50712690459388
Co 9.921618522651498 11.617987227062509 7.7372984022572435
Co 12.11100664783369 12.504044219838459 6.993595994039005
Co 11.920046829354277 10.623622487666934 8.294463008985037
