39
Energy = -226.72002706 eV
Co 13.949027575304543 10.804186774261412 11.639042195819448
Co 14.283746651030292 9.702208955200739 9.687257390270613
Co 12.709150637715485 8.765795656345658 11.515362801859652
Co 13.879027220285726 11.763601899978807 8.960052255000447
Co 11.127749720986241 7.239943865359373 10.726567278142886
Co 11.847118904360054 11.16327956578242 12.506165143964372
Co 12.528857379368773 8.395098414852237 9.116313549311876
Co 13.050621218997323 12.740598629197086 10.860059501327834
Co 9.795317101701214 7.2880629024495365 12.646735481387955
Co 12.04512703949921 10.642365300440623 10.093181949533623
Co 12.533228512746524 10.35731442771207 7.680370939343686
Co 10.725481537883152 6.724756655427784 8.487282357709883
Co 9.038171795839872 6.201490434723421 10.591224505328475
Co 7.563840600471392 6.797642743182684 12.339352599443313
Co 10.272921059658627 8.947592685502984 9.435698174786433
Co 9.4551888782168 11.320319590589559 12.710283804345437
Co 10.52806426552281 9.380851001160432 11.91328934782035
Co 8.400054687204925 9.220499963037522 13.124568476993488
Co 10.712278256669135 12.62433676511896 11.067518964736847
Co 8.436252103262644 8.495972612605325 10.91641905134824
Co 10.971174244709312 8.68883849056005 7.26379897009068
Co 9.372793245464958 10.883253423668 10.321574637612184
Co 8.553856976721043 7.364777167909068 8.682878326862415
Co 6.304839496867845 8.712142036047515 11.973445879933198
Co 10.429042798250219 11.109159443619964 8.115043373825733
Co 6.702880156804891 7.177380023034857 10.048191413273702
Co 7.411954247219777 10.752860699488952 11.609605847759235
Co 11.732449458035925 12.826167894131931 8.9065663711995
Co 8.336655069237626 12.916847188483143 11.259441621256896
Co 9.37174472520502 12.983032647896685 9.07691690811591
Co 8.38022069555637 9.764567919394326 8.131866318144187
Co 9.748934489950544 10.281422771469384 6.077909251051966
Co 8.868940633162826 8.023721180492684 6.511955496646449
Co 6.532463501841232 9.502845308263408 9.741449058535684
Co 7.3854163949569465 11.747239075978909 9.396313567505533
Co 6.61586412622415 8.254612836705192 7.758456372354222
Co 8.319098244890217 11.919575370892797 7.215382351899825
Co 7.499060197821157 9.802945927952363 5.941193664933844
Co 6.215131396242174 10.661911256834426 7.678896656876682
