33
Energy = -187.49973292 eV
Co 8.117203288523742 9.323947304122619 12.690658110422342
Co 12.013827883338141 11.93246964349676 12.825522525153081
Co 12.24905090627985 9.56274807519574 7.673395960392033
Co 9.805471319302537 12.71813700391109 13.475021294444252
Co 10.028848013493354 6.692375295811353 10.025142363906076
Co 8.136068840493229 11.226116850342361 14.027115262871774
Co 10.119609894178824 10.508353232085241 12.964258743620576
Co 10.09609691967614 8.259103953908063 11.796199685520577
Co 13.383071906367437 9.26973221634348 9.703100773956585
Co 11.503416423465373 11.649409297739266 7.190750346759436
Co 8.643466759827557 8.433035920996355 9.1315630147333
Co 14.128829722394377 9.104581313466271 11.807239708210346
Co 11.931184299291012 9.90809791173356 11.656555138569672
Co 10.830992326606129 9.639351015390632 5.945579572513442
Co 12.28913753476561 7.651936474822222 11.237551004745397
Co 6.2888579260724216 11.660370766176253 10.385636343888477
Co 13.594707667410889 11.555928581629155 8.506030310007771
Co 9.499269787150917 10.19760541959231 10.534556161384105
Co 7.0695347566886815 9.570940368571934 10.635083506313036
Co 11.085671486476643 8.638937977151057 9.56568129309237
Co 6.239916734621265 8.238845647394356 12.239284578994692
Co 9.798938035834583 12.456087757641068 8.980187492133627
Co 10.279823512360517 12.340219039807497 11.288932594269632
Co 8.068577877409579 7.394415539893426 11.098216023331855
Co 8.040665694408789 11.590953331220806 11.783076821169814
Co 10.319232555138113 7.941562838961164 7.559696020800347
Co 11.63483356329788 11.129018155980988 9.57992697276167
Co 10.547970423933174 14.311331307919524 10.150181245120411
Co 12.455586737396999 13.088004948748582 10.842433197226232
Co 7.956462737438538 11.02767339589148 9.002782470619872
Co 13.74687629837627 11.239681604930217 10.878086353656185
Co 9.867024021387644 10.183747780245193 7.981154403807614
Co 12.013665575329982 13.339171457616015 8.623292134340105
