35
Energy = -199.6132221 eV
Co 17.29538014887817 11.557597768983383 13.1243543514495
Co 10.029010129990256 13.622415325402153 10.362221454216638
Co 8.157564229256879 13.415577286060662 11.563887761314483
Co 13.779513300830034 10.529710536780563 14.943806028733645
Co 12.189330085812255 14.010206628179303 13.530526221956551
Co 9.980333666978916 14.359248308992143 12.743218999752129
Co 15.682971333471366 10.038180896663585 13.71784108272237
Co 12.09880080469633 13.625326002620117 8.74177343706956
Co 12.038865791615455 12.22945483314888 14.940991395928236
Co 15.215400669766847 11.72726304717357 12.127854517882167
Co 9.72069892979865 11.845059163168154 14.449124805913366
Co 12.061397681638924 14.054924858458907 11.206548734697407
Co 10.054865487445193 12.425756798525908 8.403366574448077
Co 11.622485400425408 11.849411393581322 10.08943245032975
Co 10.358815289347996 13.960767224202884 15.011114652055927
Co 13.845203129754124 12.83309716010481 10.288615944078984
Co 9.590663528996387 10.190985077272892 8.518225363630846
Co 9.245327555241243 11.23357966582253 10.599546930615695
Co 13.254479829152189 11.602490966141012 8.35946389486583
Co 16.12494080127053 11.753332702150148 15.10275698698507
Co 12.823012803044918 11.976769291111177 12.366855205763848
Co 13.662843121688105 10.532332844147993 10.483376618582565
Co 10.503363680309645 12.167403171021574 12.325962687759917
Co 11.592485536374134 9.921182789004947 11.476687200045896
Co 14.228973644948043 14.012570279331143 12.284309566109973
Co 16.21177079701824 13.499346530379684 13.444582639371943
Co 13.622060926408496 9.800140387312636 12.732322871972416
Co 8.180828395805992 13.556342377074877 13.968608259914145
Co 11.412777457677706 11.030132223478379 7.238857910601776
Co 9.806344250280015 8.945703086080885 10.455152657757722
Co 11.742888450916348 9.698352712652778 9.124896556673658
Co 14.250095576242682 12.643337962415302 14.200266894637714
Co 8.075009065444938 11.553831223231336 12.807951362899667
Co 9.57848757026477 9.876752459038213 12.65042290897091
Co 11.562780984246025 10.3370904104557 13.816366692475306
