31
Energy = -176.22097388 eV
Co 13.063723551082402 9.181760437821257 14.77695871256077
Co 14.568485600049431 11.319559957589217 9.48551416368495
Co 11.468349994613598 9.18115125651131 10.944378318330045
Co 10.679708951558302 11.59592839896932 10.569391857642547
Co 12.699296369888616 11.537667935253403 14.99155314361447
Co 11.015979388519463 10.079166710697507 15.218988429651752
Co 10.653450491688979 12.573224715154437 14.231492104485245
Co 8.29181766958641 10.980819747181817 10.37113867128149
Co 12.991158115154978 11.171134555066073 11.151802176910511
Co 13.200846083869491 9.127768364326375 12.501940842275685
Co 10.740501532714914 13.588289328431781 12.023776414467555
Co 14.18631811339355 10.997611394855449 13.34033614168758
Co 12.687653203244539 12.773312896490463 13.02578581802021
Co 13.772646354488721 9.085035033494552 10.186281366990986
Co 12.151880931751155 10.217518596237076 8.999841803487046
Co 9.219140378514263 11.89828202069044 12.476790340868714
Co 11.112761808755037 8.543334613242171 13.402135274171991
Co 9.85788452384199 9.697815669269236 9.22986160555282
Co 11.318077669624547 10.77912261957626 12.941244700540167
Co 6.938115045071582 12.585202074212331 9.363075139983374
Co 14.761117374728256 12.575537904771595 11.57028373652983
Co 10.809826314198192 13.792424793741938 9.581797351905172
Co 8.766076498125503 13.429081016387615 8.276857168427021
Co 8.809134832030884 13.261125371945472 10.572852083612554
Co 12.648921101149732 12.422602550881136 8.994855217881092
Co 15.296979263311965 10.27110784110365 11.440876359424186
Co 10.409094315970432 11.820598192405471 8.25544730933342
Co 9.158300864234153 10.178770589747359 13.950819017916603
Co 9.454004652618302 9.539356364052923 11.793863843736125
Co 8.199508953610485 11.142085672014673 8.09365269889538
Co 12.825350815861 13.704100597356616 10.90586368006097
