37
Energy = -213.67487881 eV
Co 7.253395865382984 12.064241023311546 8.512378926792262
Co 11.241812541258106 12.793526117681157 9.642082935638815
Co 11.424805544671381 11.689609251097014 11.64298027519275
Co 7.833270281431722 10.231709389344024 12.375094387913146
Co 8.677102487081315 13.467802648408284 9.814445215776967
Co 9.092966064157597 11.891848652103784 11.403045950319525
Co 10.205815159791957 10.119079554387525 13.069896318696179
Co 7.856879337677132 10.25054624981183 9.93328944991353
Co 6.055334041480338 9.381068456868466 11.137850395378742
Co 8.666387826717285 8.386423035551422 13.49148539786817
Co 6.797312897452994 12.03164640565287 10.772452493976019
Co 8.153619418940897 8.15425522109994 11.275708482837297
Co 13.291034235730292 11.387197006280985 10.155017621407154
Co 11.525328739607078 10.293361725414004 9.25787014647707
Co 5.7332242713732855 10.337711427711602 8.974607900835018
Co 9.958112385336989 9.75101033526393 10.875391197163895
Co 11.766848450081426 11.915654548349124 7.561268664681158
Co 9.483271886106346 11.528400659944207 8.821944471333596
Co 7.820028411353923 9.88442517675491 7.551954381801601
Co 6.854171992429175 8.275010644612653 9.105462348101135
Co 10.192464883165261 10.212467145597989 7.06868941586075
Co 10.532083974741914 7.89014484657116 12.155934000996702
Co 7.190674932984085 6.3122894613991045 10.266386412158843
Co 9.392030127934547 8.597102564161638 8.84836645897241
Co 13.435486667895526 10.35654804874575 7.852438792920796
Co 12.273894742743499 9.544915081927336 11.576749125342268
Co 8.244124380565303 6.599146746934718 8.216405978610018
Co 13.490559353167779 8.9504730160734 9.676324062860854
Co 11.806293576464682 8.596057402146034 7.6054293918529385
Co 12.174277200886209 10.201645943882577 5.958396079658875
Co 6.929907739046647 7.880699029530576 6.80886608721535
Co 12.824961021418694 7.368485073093347 11.61875967166828
Co 9.521457633303413 6.5725406038635406 10.275216172887953
Co 9.248717058296565 8.11186114780571 6.620400311159051
Co 10.591770524555885 6.6548274438543435 8.067940638066444
Co 11.459944484661296 7.854870961255365 9.918236392141196
Co 10.356093661818921 13.816861755220256 11.446697847234276
