31
Energy = -175.85586692 eV
Co 13.709182637617996 11.068995696172925 16.882094147206338
Co 11.527790507385756 10.683709298517348 16.152821866384958
Co 13.112896357228703 13.533163932413547 8.989990170475318
Co 8.560750958677604 11.317961050911027 11.127268334137563
Co 12.907734030928289 12.453909025715625 15.240866804012919
Co 14.514613624778384 10.782995881163357 14.702084131442398
Co 10.02921341267077 10.354197882619939 12.964948672128582
Co 14.000806716671304 10.321351829107872 12.22549337323678
Co 9.151661449828584 13.483764075508592 10.324442369996
Co 11.134141759752207 12.760383321473238 7.734019426510451
Co 13.225273403182328 11.452578431794086 8.159016899647662
Co 11.265975574468065 12.312131670548979 9.946638175446655
Co 10.996591796475021 14.567494114151803 9.353540646084946
Co 10.558811360004917 14.839932571479931 11.697079719973589
Co 9.885259888379842 12.72686606347346 12.394062426480746
Co 13.16748395485056 9.114520536986538 15.723804438294122
Co 9.180871915732595 13.902674181051875 8.049306176677431
Co 12.578621924043048 13.878698812764965 11.273856585830933
Co 9.251885776604118 11.686862714029688 8.863812434497909
Co 11.860866798912584 9.122346184093034 12.153667849600536
Co 11.069763850558704 8.78395757639389 14.500950737052184
Co 14.017013775661225 12.147118282903918 10.649754423752638
Co 13.576521420942845 8.518683272279118 13.6125000440561
Co 11.836392023284741 13.657064747851615 13.458578735874369
Co 10.429559278432505 10.15177775785346 10.590538295958595
Co 12.778851441645859 10.28718472585024 10.152340300232325
Co 13.885861981439032 12.527573854484633 13.0286559016552
Co 11.198745309780522 10.460636107514194 8.355801660381301
Co 11.941126029018843 11.624510300293542 12.022957932849684
Co 10.544165647870127 12.058935143134045 14.506706797473814
Co 12.360193981695868 10.56602208600731 14.028709115510244
