37
Energy = -213.73422879 eV
Co 10.415212348691236 8.853765660262026 8.161881500578648
Co 10.201375839332398 10.926669610014846 11.695196626956687
Co 12.465970213873561 10.881637650320656 11.783847901770761
Co 9.791541728984367 7.191259460185605 13.395013401547615
Co 9.047921066284381 12.876841288255939 8.269544056203266
Co 7.501704901217559 10.695969335860584 8.087500222234679
Co 10.254284437830833 8.793049748624217 10.599763926092503
Co 8.654851154912134 7.1072389291321745 11.399352584809366
Co 12.743455221372926 8.624916748682393 10.970414734780034
Co 11.238503828458201 8.922578835879719 12.679368651681132
Co 6.025346597124877 9.777657228452387 9.760287457615838
Co 9.621019023483074 10.850706116289599 6.9196372563887705
Co 12.056772450550243 10.176456409124867 7.155130917708386
Co 9.699543800947446 6.687934782822341 9.305404683216429
Co 10.526994727308894 8.928847793482642 5.7494927985021445
Co 12.208642678313112 7.821981252493671 6.975045022845679
Co 11.90486084580837 7.32034967502935 9.244530308172571
Co 7.736447678353955 5.551413414060893 9.966703473893405
Co 11.038372527621595 12.577848589489907 10.27188595311672
Co 6.883531651259537 12.862641394792227 7.62539887391733
Co 6.565866989963666 12.070124788870642 9.797688776390373
Co 6.252656372079949 8.602336262338039 7.727472155627677
Co 8.715346590100546 12.67146634794942 10.588772538099493
Co 7.4434140251874386 14.188812386156297 9.380093357403382
Co 6.781460965392106 8.452830186015646 11.567607417949366
Co 8.888709717860136 9.172818799697842 12.631728867025608
Co 13.437906520033327 8.963965619594802 8.596037572644214
Co 11.224729869911615 12.167066041556804 7.99481776794815
Co 7.903297188853309 10.45563472348677 10.970664500376262
Co 7.775485661604645 6.672467569029354 7.899080718708875
Co 6.284681152832144 7.2538635644375 9.663383042556958
Co 8.455265656794083 8.745688450308403 6.895870354600095
Co 9.598953049592842 10.845774312965 9.302923185119395
Co 11.911580560631723 10.393665584558052 9.621968967696835
Co 9.970594566306156 6.8926318960024755 6.987498492613562
Co 11.080509906266684 6.828116147728638 11.479283118432845
Co 8.140450274287343 8.640235185473966 9.326970604201161
