35
Energy = -190.02980414 eV
Co 8.197776763784034 9.703897111051154 11.382809796450182
Co 6.808116619762499 11.7706417138044 11.48068531262037
Co 13.198417700568687 11.663914747166602 9.958066220923037
Co 13.023197123220411 14.300348537580597 11.54883391161595
Co 13.398245259174704 10.981202988421805 12.242794284912145
Co 12.274360315389618 8.757281048172858 12.184626281040265
Co 9.274086730327053 10.090901895036057 9.50510987870387
Co 14.938451204153807 15.125270561506085 10.68803022383962
Co 10.440442753671835 10.045382454831936 11.931439765628202
Co 14.952410006880013 12.913506196860144 10.876720951285499
Co 5.740031901177939 13.054593123351468 10.226474878647863
Co 12.214666657923399 7.3361020067894405 10.500565537086588
Co 11.600688110897035 9.534555182123798 9.804251832652545
Co 12.170906282250273 13.740385042925299 13.724737455212681
Co 8.535890389993225 10.833734849621544 13.330540545177668
Co 17.170953476025804 13.405353374327259 12.669112122959806
Co 10.796428907322314 10.058470558653017 14.214502228606646
Co 9.998533114823513 8.13404402487641 10.476174664727127
Co 12.817556583588685 11.635277270093837 14.4738122291839
Co 9.524151092960595 15.476457530123147 12.194615498262376
Co 15.676283362056266 11.79908955437411 12.761464410341897
Co 8.983672784812224 12.150202470909313 11.494127617290406
Co 10.85861898972611 11.74666622961632 10.25802800881974
Co 6.426024833616021 10.060525482497267 12.725249273819117
Co 13.771227772138191 9.306664911930982 10.418066528530694
Co 11.870436736750067 13.722180665462844 9.612030550994703
Co 15.118569944773505 14.121454846824452 12.843764431466905
Co 10.742031791096167 13.76056346454672 11.637667514745184
Co 10.817550037756625 11.991583506643988 13.07518580636155
Co 11.63995467034386 15.82541012484587 12.673477669607117
Co 14.046621913284236 13.703415797315637 8.981414635646942
Co 14.787809631019348 10.418716574856944 14.189910510636603
Co 13.637112724668896 15.437740509868439 13.746592520785198
Co 15.438201957825116 10.727647386511041 10.770155664694562
Co 12.885115818881582 9.28457855076384 14.217217242771042
