34
Energy = -194.97772362 eV
Co 12.687725912616488 10.736007881820708 10.389003598713018
Co 13.09218203033882 8.528622190645804 9.804929592595279
Co 12.163834435098558 8.992776543686247 11.881746649466969
Co 12.207882628138565 9.93319178029693 8.070014516274243
Co 10.977244356782784 11.61694348015085 9.138197324805425
Co 11.561863271093321 7.489313723747442 8.464742870335124
Co 11.188638816791816 7.13623113069073 10.766851734976964
Co 10.590679211033214 10.973679110598464 11.544928736100516
Co 10.68320418126796 11.336109192823944 6.83882144580872
Co 10.74583220285276 9.303734263917306 9.873013510647157
Co 10.038019187633425 5.805206363012627 9.11387042170791
Co 9.014390127143807 10.386757272762061 8.195788527560909
Co 8.829652857422365 11.707913670356158 10.268502114247646
Co 9.896019769963514 8.82303805594834 12.136676457052435
Co 10.514417462901797 8.975745996616384 6.853794687908268
Co 9.26774559410306 12.848294972149256 8.24578038392779
Co 10.32010532450285 6.601076724903255 6.753781913239242
Co 8.971195938024474 10.015994438120812 5.552927109118414
Co 8.895218366660128 7.037213691032915 10.821809260202336
Co 8.3371952389294 10.571288116582101 12.344284485224607
Co 8.265430747992847 5.8540594220669 7.328598767806894
Co 8.231536319527528 11.92926196544431 6.446489107049141
Co 8.20784341712636 9.347169409358177 10.375800855614838
Co 6.63765263824841 11.483925631049944 10.723788691521088
Co 9.120595227237834 7.85579231899657 8.53960638115271
Co 8.292091428767344 7.955993557772047 6.3120226533199055
Co 7.739713214942157 8.186899982992033 12.566430704533559
Co 7.53469558357199 5.872341530302226 9.447159425620562
Co 7.056286576624616 11.739926564062563 8.45465518367546
Co 7.025971301368106 9.835402988212406 7.006633364561295
Co 6.499590157387075 7.693372448885097 10.448346632703226
Co 6.128149046676474 9.553561424531306 11.744947726071706
Co 6.808556178527899 7.744074671063813 8.125985848201571
Co 6.190819528143278 9.711144853789248 9.188352720513006
