37
Energy = -213.37407998 eV
Co 7.983083564385326 8.101833614420146 3.994922090927532
Co 7.065969555413418 5.866652955412689 3.9458903257825417
Co 5.5203314657181775 7.391159061529343 4.749788918210146
Co 9.852672540729579 6.865088495261747 5.158060333990043
Co 6.622706307844921 9.280548405848993 5.7716680189276826
Co 9.081038457811333 9.007884991762777 5.934882488694278
Co 7.620385770088381 6.920962046770251 5.841291686535183
Co 4.212661734349039 9.096929904064385 6.355088787392101
Co 5.878188018633571 5.391061439085682 6.05658502816166
Co 3.7191659663128123 6.691846010933994 6.073256524773611
Co 8.558293067962484 4.889176736021862 6.356806084203482
Co 10.44322812814391 10.633827463311828 7.154399559440619
Co 11.176837084043417 8.21735186037403 6.818584193665552
Co 5.52785599170274 7.458854881527273 7.139763321868864
Co 7.969086343668942 10.595660294784034 7.4762348891073245
Co 11.461204055500794 5.855594662284106 7.425034972901201
Co 9.415373515301187 6.7744872296580905 7.42305707711817
Co 7.5229322005944335 8.242956067305318 7.700433868856959
Co 9.379410757450433 4.937735445671204 8.7166703519245
Co 9.573144342531549 8.975916404429714 8.35652008425158
Co 11.116163852416005 7.431553656670008 9.153752486805773
Co 5.697792894584505 9.862419377589774 8.059779552175561
Co 4.719628577673059 5.796862994765742 8.373540473628923
Co 11.403433794924688 5.188633738936163 9.667651306225288
Co 11.456435223324231 9.847494106487053 9.187102596329845
Co 8.454172125604709 6.959601859251713 9.66900106531757
Co 4.080062523602396 8.251910625233974 8.70516981755501
Co 9.257185721621983 10.976434054423299 9.52242438249106
Co 5.404887473163162 9.475140997182095 10.385011316795254
Co 6.068719333312271 7.348076548430527 9.6093116903222
Co 7.12842179130224 5.743420778314177 8.067988643443616
Co 6.7964538402640535 11.464064055446936 9.536222368822747
Co 7.546254211467524 9.346061481687967 9.65481406270796
Co 9.659191461275459 8.872946065005225 10.727192928619793
Co 10.121185923113975 6.546111368521386 11.075622466602344
Co 7.934895811867519 10.505620023627246 11.515225491457308
Co 7.46987159915077 8.086445324824767 11.539575770821358
