39
Energy = -187.74866275 eV
Co 16.703494999396103 14.39817113190244 24.73910510143229
Co 16.291775320442348 18.474173052250176 19.605253850412108
Co 15.852535769628423 9.176887983407942 14.023886893216298
Co 23.152557381876193 18.95979477469334 18.054577110704887
Co 16.69043476904254 16.569702401509893 15.308150257216003
Co 0.32183279548902977 16.19907899705641 17.896216185526388
Co 23.620710413869812 17.017583906089794 17.16695300184733
Co 16.473506256398558 18.702411514472402 15.166153104282115
Co 12.236091590562104 18.34281085387709 18.705398335765295
Co 25.11460216417343 18.263529961572104 18.69769490092248
Co 17.23000458019708 19.588200966564127 13.231701854548078
Co 15.581725387132682 -0.5870316463231484 18.070946796640563
Co 14.882033740158557 9.286562577810304 15.79955121404341
Co 14.84028206211142 16.637559973787777 19.226924110438677
Co 23.77656161144291 16.36537360970102 19.200207516187135
Co 15.15849137046254 23.004413821840945 17.069571500719345
Co 23.920479003656972 21.071146605305806 17.416063855862472
Co 16.066482459633285 15.89266696350943 23.17738747414439
Co 18.547783113415473 15.496158711309468 13.264506725458657
Co 16.990675111174564 16.359400588412772 20.16944475856034
Co 15.274528575473687 15.325113943876474 21.066964298464438
Co 18.926342414447564 16.76333933521906 11.60237260288704
Co 18.28821230611927 15.070613504454872 23.80196520015088
Co 23.293739959300954 19.828949199116245 15.906729130045893
Co 17.272965009486455 14.65676231330741 21.879811829379065
Co 13.106258227552633 22.674870634919607 17.20788020641615
Co 15.049754530772315 17.840937739955887 16.71212762932309
Co 14.68475579217672 20.85013878097326 17.22493485746963
Co 24.952520400303882 18.44251164782371 16.437855782485727
Co 12.933632840746274 9.156861039802271 14.39941961397721
Co 18.37324073293031 17.519794397334547 14.121351097027004
Co 14.0739457096 22.453074713475072 19.095805657607965
Co 16.758488376414494 17.042299323625578 17.734484701229505
Co 14.358983137093475 19.025159630922055 18.688180287917998
Co 13.313605911921401 16.668742289704 17.45052416537675
Co 17.167218100978406 17.663003254335596 12.225875486459701
Co 12.793202293245196 20.719190569834385 18.272806406600115
Co 11.773931880007105 9.215623073046505 16.21262288978894
Co 16.445491171776958 19.43696192441952 17.352727271356216
