39
Energy = -225.27027949 eV
Co 12.72143182784825 14.325194251609767 7.756304530681086
Co 10.627242495847918 14.741526235972895 8.582300513015575
Co 12.319961856952546 13.922048289100575 10.010301509187938
Co 11.095992664053943 12.66665074722789 7.54855757476598
Co 10.097504508193731 13.93327760056102 10.763063948009203
Co 13.295945385498674 12.280174122525699 8.593186605480811
Co 9.08954566295997 12.930539832822262 8.763220871865702
Co 10.965012037864117 11.909217668323727 9.793551482644157
Co 11.670451045732309 12.881384079913612 12.122357168292316
Co 15.238169371814049 11.76387703921805 9.923911868641913
Co 9.69302702262345 10.728214899422035 7.973745224702596
Co 13.249158596433816 11.822475734663474 10.907097287370908
Co 12.009361287751823 10.427051299455924 8.043750008731681
Co 7.609203903985101 11.082394494030504 8.944660413871745
Co 9.435557176218822 13.067084168334475 12.956029663559056
Co 8.560703211757247 12.177495019645537 10.939071088588369
Co 14.09635753594487 10.002012461495207 9.14280903900841
Co 10.269750487344881 11.000238609082874 12.1173538077387
Co 9.308479663063354 9.978122163393776 10.21806225766391
Co 11.18046190211523 11.824235939538 14.148585420964507
Co 6.020359753778053 9.43762513624781 9.298050650069309
Co 12.859542074746251 8.217977552532195 8.326316672293272
Co 7.02661363783032 10.42914980091007 11.148003164269083
Co 14.283217639835849 7.821130715023547 10.14759755058039
Co 8.137969003983489 11.150228837234062 13.199348955423744
Co 12.04678021164262 9.751766848264475 10.363917239233816
Co 10.585830569496595 8.608702443404587 8.705041394976627
Co 8.64383236286097 8.944692190999044 12.391108813369367
Co 12.454578810249837 10.418500132581034 12.741266437344859
Co 14.40584816756811 9.847301865546223 11.409008716313487
Co 10.199820082555576 9.711753028409044 14.050752933653198
Co 8.16516079839147 8.761748739408135 8.61279868040268
Co 6.414564182567567 9.102922079202457 12.874576224566727
Co 13.192179700837778 8.089071152360603 12.200333919425125
Co 11.916100330171064 7.401692478668082 10.32682951909143
Co 10.937539431217436 8.596979716689232 12.136102166424097
Co 9.497983302459497 7.622423457567809 10.488577186902438
Co 7.1877927016000625 8.115213229005803 10.722172992888297
Co 7.946792463836973 9.399088809088177 14.580271315173004
