30
Energy = -168.68956349 eV
Co 12.12987290022464 9.055180632889718 5.002141712431761
Co 10.153493156093276 9.973137127739415 5.450976108697854
Co 8.504047056445808 8.381917135581666 5.675212772257499
Co 12.299786156121819 11.228151093282268 5.557390439174479
Co 10.697896666270728 7.961499136468143 6.603742063275678
Co 10.44227045615162 11.766102280274541 6.914090249197678
Co 11.742290821296796 9.847321222174743 7.270063192077708
Co 6.967202459841511 8.650092619766477 7.452289131143359
Co 8.844080521616386 7.241475929166968 7.672921243561818
Co 9.166943880412497 9.77140246919624 7.635615785811208
Co 6.756427237335895 6.53669833519298 8.613338115539072
Co 7.145306757988025 10.457726926554777 8.903281462006921
Co 8.91724110308386 12.02009777070614 8.694609050998293
Co 11.032435393597694 11.050778562783814 9.088910796226374
Co 10.669917405350313 8.538770898897408 9.116180854110853
Co 5.721881649948942 8.448621339959665 9.604404828596069
Co 7.992972185057743 8.231710052642196 9.603869544982707
Co 9.659259744927674 6.457987747247676 9.681318845880888
Co 9.15175591746128 10.200147329783166 10.128516715473069
Co 5.4279695166322774 6.3035093456750095 10.478388942684726
Co 7.96775618268389 12.09541056967977 10.884413151353744
Co 7.700440821336085 6.13544737321748 10.758070695696201
Co 11.152449040239565 9.727581717053848 11.238617430429846
Co 10.304255171113473 11.953586205708604 11.120708335561993
Co 7.076784999848863 9.983488859556354 11.146219759392395
Co 11.233709670157792 7.407755662354326 11.107377559360629
Co 9.094703949530471 8.105136924269841 11.660362612793882
Co 6.6221476979553575 7.856650219261287 11.732756956170645
Co 9.139622811753213 10.362820710107611 12.455172673220446
Co 10.695633427937546 8.660348561222735 13.159593730307249
