35
Energy = -200.53678562 eV
Co 6.670731439340299 7.835725111672497 10.33228934050725
Co 12.16917005407234 13.676288402139201 14.473991559977518
Co 7.020205532341546 11.615842463177808 11.313015023939585
Co 11.567370578836982 10.330412912794857 9.48734928633666
Co 14.55840489997744 10.65423002860715 13.286926298723106
Co 12.491182046473725 11.348654483050016 13.935708908201038
Co 10.708836541443414 8.16779670740639 9.496101393007054
Co 8.88720776985053 7.449322648315686 10.958954212701341
Co 14.59594735156823 11.925125921189458 11.343374993043769
Co 8.810108056763625 13.186609627548448 11.823764293403453
Co 10.374168966705431 13.761972453289255 10.140425852827565
Co 12.79866780235153 8.552960559232083 10.617717315832639
Co 14.829429916482749 9.44783149657779 11.355087712379907
Co 7.350034849555521 9.965743811868961 9.749012505682206
Co 10.945651754419606 8.105411212603135 11.855922521757027
Co 10.728759720346837 12.19351895652243 8.417543572380929
Co 10.602744701720098 11.748614317360994 11.269807865962903
Co 8.684949277849219 11.054335663690095 12.760197451048766
Co 8.773285435047718 11.938186272241614 9.76295271661801
Co 13.045247092800384 15.176530738711856 12.948454420048673
Co 9.457357126393282 10.12670049711632 8.46886402106358
Co 12.288498486528333 14.89433287281449 10.665750214670734
Co 8.425735284131719 8.091631732444739 8.81858606345712
Co 10.695983648098606 14.535255452191246 12.429276467022815
Co 12.906609809847255 8.863213217806683 13.06702610791202
Co 9.46220255533002 9.730533639932048 10.808577310443562
Co 14.37939421606838 14.153547749966783 11.352639744434962
Co 13.873775146653593 10.595244096589118 9.546114338810478
Co 12.5474231394 12.57484677703858 9.889140841760764
Co 10.769696020641831 10.052148572032495 13.014849466439523
Co 12.705496193084828 10.630752594326063 11.649867653635988
Co 12.442380348247507 13.053730701571668 12.177419202639511
Co 10.386552190399346 12.472910851754706 13.538876298296685
Co 14.26333615069848 13.0121465983725 13.55075961362913
Co 7.523102397594013 9.169909694746105 11.95964988773187
