36
Energy = -207.92964253 eV
Co 6.490932528626422 10.29620851465087 10.67920199194755
Co 9.96422246252593 7.75918667281901 11.253592880897626
Co 7.954703055664273 6.614064443168555 11.590892597861876
Co 8.510011520422767 9.214677533440486 9.729401654559465
Co 9.998526028488728 5.405215569864541 10.716739866803415
Co 9.945131452372477 6.087360761398495 12.918147463738888
Co 12.382826584920595 10.358675059388341 12.61813732832894
Co 8.72869668200451 6.861059962109985 9.388827294379958
Co 11.426720052479691 12.223405790670904 8.987854566887176
Co 10.01060767149688 8.488581649781775 8.077125892365562
Co 12.344272402333365 9.003752446349718 8.644291281997004
Co 11.906294671761165 6.385516190610023 11.629796704272039
Co 8.971236990761055 11.346519598364312 8.563290909489746
Co 11.01191074687765 10.506970575884743 7.373947515365691
Co 13.231543616778797 11.05955557034105 7.970507046062754
Co 11.487109107679997 8.17072132562564 13.173176386286848
Co 11.940165079865391 12.595028424322367 6.745500794982551
Co 7.883870819941532 8.9389081246473 11.962919081281628
Co 7.080178706742356 12.298680033415033 9.577485380012321
Co 8.27022297257315 13.53044057932533 7.992598376550368
Co 7.25455133697878 11.843184140484263 6.812139877017447
Co 10.680665413251862 10.100747858145382 9.86103832501774
Co 10.497193444066827 14.037925477052386 7.9623483359359595
Co 12.866251809704185 10.806945229043432 10.298752684104318
Co 11.259150550578902 7.023843155158093 9.39421367138333
Co 8.731233112601194 9.977153512602548 6.688956964026318
Co 9.513749063608431 13.207469857009015 10.006060409612038
Co 9.235089546228483 8.128325855929894 13.619408284895762
Co 10.160980684309246 9.930792625397515 12.265740430425053
Co 6.876770493959443 10.213397832265665 8.349139778754946
Co 11.028415782093619 11.898090206841456 11.343505798902923
Co 12.211998420906632 8.675164273197453 11.000173503223735
Co 6.688381782060395 7.934380285411818 10.071562099318351
Co 9.647274078864577 12.259120616253377 6.516393951090007
Co 8.655443221818508 11.22096846174257 10.995155291291432
Co 7.666263214583581 8.110556897216858 7.734570690859954
