38
Energy = -203.94968971 eV
Co 22.050232811310355 13.161058769788857 14.542524612891746
Co 18.787452801353073 11.118582507879601 16.325484017668025
Co 18.179474572350127 13.342096247201699 14.031319675632329
Co 13.604386649434877 14.454489763905917 17.179811053118424
Co 15.442830228661645 18.87899289978893 19.196037419288565
Co 18.480712797732384 17.47618995817064 12.073440861413511
Co 14.331246088278332 12.773458272772006 18.679936543562587
Co 19.55303273823024 16.90071990194037 13.831439425125128
Co 20.399199135157307 14.692083861604273 13.823997006203996
Co 16.997277415255173 18.282784194740913 13.457363388295004
Co 12.744553815043362 18.358047220151104 16.329872616168977
Co 15.082837379157382 18.566645739506058 12.251048939197567
Co 15.92868592555686 14.496202110851513 17.784377465212582
Co 18.474010337804017 15.407326669455683 15.094923598022707
Co 18.48098756824868 13.315683348985154 16.468506525167744
Co 15.092118098706916 18.577023336528992 16.96191531201019
Co 15.491086064457939 20.187112889420032 13.679851845883865
Co 16.23224562547762 13.172099535555343 19.700934553410313
Co 14.164855893366425 20.6333078650717 17.722102231502145
Co 16.189319415588873 20.354513308434928 16.427925373862916
Co 14.324579764847062 15.03412914464803 19.386133662963836
Co 20.56075358698609 14.275972069774824 16.043462375157624
Co 13.066143950547815 18.82131375427211 18.660546938362515
Co 13.750513962195926 18.323851420858947 14.051693592262604
Co 16.071570099064612 21.042609361149264 18.665264244795647
Co 18.363017668284037 10.9708886697009 14.007052921388508
Co 13.701251162324832 16.730717034881636 17.937337998948728
Co 14.046448299805713 20.172920790174004 15.442646953286939
Co 14.649152873342143 16.911911219649365 15.557435574385254
Co 14.87750246628881 12.674754146478078 16.416156705133655
Co 14.381558210138362 14.788154226250047 15.020228168455331
Co 16.781128272114007 12.293113158994647 17.67097533601534
Co 12.171475658938869 20.476420121124004 16.59485570764875
Co 12.448914339380682 16.105314030502186 16.009990014740765
Co 16.83981576101452 11.898103278218333 15.411785143422357
Co 16.533665667061864 14.21218429007678 15.520974449714231
Co 20.09521027786603 12.33010277038174 14.771042432092244
Co 14.144227886416596 20.514888151183904 19.965685722203187
