31
Energy = -174.83739023 eV
Co 7.4997621018633 7.975694492612037 9.097588675065682
Co 7.5551197288578305 8.08550993230324 6.8922263240527775
Co 10.957886956573374 9.464439451875247 11.322410224071735
Co 11.425856842899066 10.028679762461344 7.412093448720322
Co 12.625015928811022 12.874481656798164 12.681023122536311
Co 12.17297814616056 9.193974382292296 13.251189978916134
Co 9.495194506182925 11.52250863095316 7.319182529434958
Co 10.903828550704409 11.330650728905198 12.955882306321021
Co 10.195798905201867 7.976672031768792 12.975746101202649
Co 8.985222845175162 9.943789002931913 12.660320861577897
Co 11.735746937629743 12.179933232094045 10.664668959181936
Co 8.093271436238675 11.691995497496036 9.188584056413331
Co 10.387695051156141 9.711825542597635 14.522040828205089
Co 9.259491753374645 9.17328908157849 7.8819459888779475
Co 9.314392603725421 11.901810932242118 11.276228914896592
Co 10.323847907509121 10.805379208467768 9.35939889226731
Co 9.981561846249562 13.143962433542677 9.36611339574585
Co 9.392058768341247 6.8987752479024795 8.531112101844716
Co 10.56359068925172 13.7070743635339 11.840602129307085
Co 12.85321403761011 11.150922357768474 14.17713570320255
Co 11.880547567067735 12.150461083316143 8.258779314471829
Co 13.604867199522033 10.618214184238342 7.549341390111621
Co 6.40421211809863 10.018330193677711 9.453844970004091
Co 11.02679548182256 8.407657941307948 9.227375625810927
Co 12.655268807679576 10.213512537559005 9.62678010396045
Co 13.189845840892879 10.750160306698858 11.82175926313942
Co 8.529160114288873 9.614724218542566 10.367822339785391
Co 9.436819206819532 7.607055300308674 10.770081900181312
Co 13.078925367280766 8.48597000551546 8.172878701773035
Co 7.191086025807453 11.139705970799065 11.424830826886573
Co 7.341070717246478 10.343175455465962 7.398305221341634
