31
Energy = -176.46444653 eV
Co 11.168964246330725 9.965203199142843 13.428892090893594
Co 8.917392308539974 10.677953576765704 13.748791669543769
Co 9.394663262562725 8.462846798853588 13.567935256143539
Co 11.141701449548703 8.183335313892568 11.887810676694775
Co 10.55125588060983 12.00266472532318 12.419039640432413
Co 11.931854199128528 10.404409666021888 11.217358206927686
Co 7.372071863708044 9.573628391538188 12.102984044861218
Co 9.533569910795949 9.928593590068882 11.557317639007959
Co 8.064187929969481 11.91573445256442 12.07827384004294
Co 10.189069148613623 7.894006242560081 9.766273346424901
Co 8.778173577113568 7.536200497216289 11.589078570839584
Co 11.906760342307287 12.588423740770857 10.514744964803262
Co 12.44174318237778 8.578559392253313 9.921928992993873
Co 10.425249286480577 10.216796435273233 9.345570932619692
Co 12.57312046112478 10.771017389214297 8.932834563348994
Co 11.539432561397826 8.649420681262693 7.799494111208335
Co 9.608261311483911 12.178974249460015 10.298855141835036
Co 10.012990841326422 6.898624758445218 7.602355835679905
Co 8.486987093338893 6.406032937638805 9.331029356854396
Co 7.841276098430159 8.664489112626873 9.843391924751845
Co 10.966866879650276 12.412575478460937 8.38017497688276
Co 7.5669764586016415 10.899111327366702 10.069665467595234
Co 10.802928439417196 10.587595322989822 6.950099013744043
Co 9.026139540216617 9.073200797934705 7.780723481494768
Co 8.768321072540548 11.452212086961193 8.125932286137228
Co 8.33105358697421 6.581899680019766 6.109967625497927
Co 9.919997954968744 8.382295043496969 5.802147837941397
Co 7.1978539436287905 7.5503886198915335 7.857787743992542
Co 6.875563293931874 9.962222571549916 7.976841143689803
Co 8.760132659465558 10.675917398496296 5.931067201532704
Co 7.584328662679146 8.737232366587326 5.900097381082955
