38
Energy = -193.83080153 eV
Co 18.97295600125513 12.417712554165902 21.181449176412045
Co 12.797094833095116 12.23150167191565 13.633662193802992
Co 21.168341591248865 22.191322895358226 20.762638210021887
Co 16.30803292144497 14.7846041320082 11.90769871748527
Co 17.42662340946442 13.213096803699901 19.89849204074375
Co 12.064816996906183 13.22249544336455 15.604306765522198
Co 12.057607272487777 15.745801128614364 18.593429555356423
Co 15.766550982886496 16.803219966334552 12.212921468922305
Co 21.185375789911472 21.790354624187703 15.420163043720017
Co 20.311789625657703 22.411014693723125 18.66450674511844
Co 11.346863057786083 13.904054532661958 17.722775864649726
Co 20.497718930566048 20.29559696259149 19.640680259286714
Co 16.98786658260393 20.48373359922037 17.048876978705827
Co 18.160178385726596 18.93584879147822 15.812180507344358
Co 13.522446810844517 14.702817457051546 16.84044706809535
Co 11.90980956179847 16.113886908527718 16.568383619160794
Co 18.26941307429201 21.320493402911612 18.65747981005334
Co 12.539544419527251 11.005240129535414 16.085219138166657
Co 21.090785066210614 20.71855576858859 17.33862185243398
Co 15.943545113791778 13.380772580021677 13.787313965070352
Co 14.372219536229052 12.41534411260965 15.418595637336004
Co 13.317948801153415 12.465060131619804 17.607130161911453
Co 17.969661912464865 17.683613004901204 12.237897186575209
Co 15.626454392091622 15.713120878012822 14.291889154639462
Co 18.308433409244632 19.61882578782254 20.10826097548294
Co 13.673355226103254 14.384464234420834 14.474665419312592
Co 19.042107317663707 21.73535338585155 20.889332800543883
Co 19.76670411934305 13.518972907572927 19.485898296657723
Co 14.17329434330769 13.990195960054155 12.267812080197464
Co 12.09138304181859 10.680905876358842 18.49105342409981
Co 18.16002146579584 19.56379512982237 13.579670033295256
Co 17.82887338892228 15.66020677354426 13.356240390264908
Co 17.17413986033858 17.515302341026004 14.25256659624066
Co 19.21348370398917 19.367448276027964 17.848552248923248
Co 19.032083484759273 21.196316179218726 16.38528292426803
Co 11.810493737627644 12.65423546166341 19.459461205185963
Co 20.082599022524846 19.888623177596756 14.840551651982283
Co 14.682348750767282 11.865305859817024 12.557782105835567
