31
Energy = -176.60951971 eV
Co 9.211853238579968 10.64581471005155 5.662553221641871
Co 8.179885376264018 8.369165255868385 6.54380620393867
Co 10.418452499192702 8.748997280101708 6.177541360027218
Co 9.836918705844411 7.474269832730601 8.124798065059343
Co 7.36208373584959 10.564044956958883 7.150415285471738
Co 7.813876064848599 8.24424327532441 8.84843444464924
Co 11.26683597658943 10.989581727401207 6.845465040791986
Co 7.460925326227658 10.401562206059578 9.535227432963444
Co 9.388095884091445 9.895445409088703 7.980162793195554
Co 13.134805481796308 10.6625835026049 8.527128993983304
Co 7.061307475436783 12.432786853011583 8.507479025515742
Co 11.684687426295891 8.998935655145509 8.164086879249444
Co 9.04260525087803 6.8570794103828785 10.347657046365272
Co 7.537572294816407 8.456884823560106 11.19069760393168
Co 9.172186753709603 12.1491554627012 7.449871549777752
Co 6.917117842035105 12.393382874898467 10.879627187951863
Co 8.971940567760702 12.222708404648985 9.823959894524716
Co 10.975678335099206 11.307745300673249 9.091014626117989
Co 9.679173356439422 9.151431905770389 10.366461964583632
Co 11.441204320734903 7.457192931158937 9.909423168629653
Co 8.282083397344445 10.731111041454248 11.728551709965071
Co 13.575108460746142 8.336197315415887 9.404414964033068
Co 8.368943434111662 6.76081057108627 12.575161036916713
Co 12.15623571539674 9.720220130063458 10.486150022818153
Co 10.568722928728358 7.38795901649869 12.041309170813232
Co 8.947202427639056 12.919659509525923 12.055971250911977
Co 9.05724266140449 8.930507733960019 12.930408470733308
Co 10.564445390606362 11.325327734404642 11.410792396568398
Co 12.865876868904921 7.886372658125138 11.709433756071947
Co 11.303432114348684 9.517439033910613 12.655866709732853
Co 9.699985611297668 11.124880627649944 13.537198442697491
