34
Energy = -265.53778911 eV
Co 9.0803568738329 10.85856364531548 8.849879141917429
Co 12.774809683122795 9.11413372667584 14.28858692841286
Co 14.420071642935518 13.342361073961586 13.900789629419
Co 9.692459767632162 12.619497102497961 14.219192107313617
Co 8.58982037600186 8.581545379546872 9.32940916460856
Co 11.883760810464095 11.834902060355855 11.116304777867684
Co 12.609220977887139 11.575814775894766 14.86724400156684
Co 10.812408961545893 10.828504071609736 13.30494614744859
Co 17.22845328173517 14.343468551793451 10.121968421044498
Co 13.110069568568639 15.45802298487336 12.535192441587078
Co 8.253045122050509 12.711490206868483 10.304008765672027
Co 9.88589626221362 12.979558418264588 11.830861536408735
Co 11.531195471648296 10.423374845103094 9.000483954177001
Co 10.948029573663884 9.516288946917939 15.470181721545165
Co 10.370374861500416 15.04893946018517 12.687632676288448
Co 14.050674415641508 10.70712323462326 10.410460636750113
Co 8.057776067569437 11.312450814758032 12.573637415949896
Co 12.206965790932932 9.39148193541073 11.350196161753216
Co 12.8485046639578 12.89517804370518 9.077493447722
Co 8.628994138637385 8.54292348326761 12.007963448097778
Co 13.720505537733004 13.155435825152182 11.419453152850016
Co 8.569580672158441 9.804462619903651 14.05910730001683
Co 10.857789266177464 8.40239195513942 12.971696226137475
Co 11.831577289148301 14.484693916597996 10.780298246486218
Co 10.573355690015358 8.121834951205557 10.262491957586645
Co 15.51104693486491 14.46317849008712 11.928687245029767
Co 12.031216350454518 13.327317858514188 13.301089159277883
Co 14.36788710468586 15.130588121564946 9.851893589717916
Co 16.104660543826252 12.101528989820377 11.774487931234916
Co 15.415920141714404 12.82652043594531 9.54746546934222
Co 7.250736974235515 10.035476059423011 10.683834900004458
Co 9.82344712818429 10.544137347266522 10.874902144395513
Co 13.720172839217938 11.200324617485522 12.787626569734035
Co 10.462071580655518 12.74724259994021 9.243666997340483
