39
Energy = -226.28425657 eV
Co 9.527145396224165 6.995035192670851 7.3802981559767735
Co 10.932737626983037 8.397905214230457 8.681252598890296
Co 10.121901164989062 11.619773923799823 6.477476842681149
Co 9.821039721042357 9.275082697950571 6.817069115740394
Co 12.257563868830566 12.51363739926893 7.088331644375037
Co 13.79666935040769 11.07471808022037 8.585264294708393
Co 15.192621155646993 9.83090658575477 9.977196467744774
Co 13.255769301065106 8.850296573762813 9.090645474982901
Co 11.778789081447561 10.381535022310846 7.71757728417195
Co 9.620673099605451 6.781819825074629 9.769029523379732
Co 8.41497687744691 8.675494196457885 8.575907609268745
Co 8.086384669124826 10.770869445284424 7.380664278279552
Co 8.2217547557152 12.960385836843308 6.66365963913364
Co 10.134501322959101 13.296960678043463 7.993072063408653
Co 11.695080922716551 7.726391933935798 10.798463155425488
Co 9.619118614604881 9.005022797132277 10.664457070557342
Co 11.923178994323518 12.367701748004857 9.355346868242426
Co 9.842227156981625 11.060613015868306 8.953327489328235
Co 13.56252411500173 9.144808294937391 11.456331659166166
Co 7.719836754387239 10.461542280313452 9.902851439412586
Co 9.823967620884954 13.096957824858439 10.35072730677179
Co 9.671352970450107 7.28301864131224 12.164475744342443
Co 13.787630147418447 11.400881831074845 10.889098428821375
Co 9.639868751149159 11.095402464678331 11.583682164364626
Co 7.610360924679376 6.561990883295318 8.693979963131394
Co 11.377257635629247 9.336655347594023 12.462943039097562
Co 11.784280624005122 10.216707263950465 10.281592065817458
Co 8.002078228036272 12.574957006021215 8.943822455320328
Co 7.675763109453098 7.7478021730337705 10.795161552966904
Co 9.63629218635551 13.216574038601067 12.714271423618596
Co 12.961313838633016 10.894280215460501 13.11242116018389
Co 7.534826206171104 7.791395880583508 13.079805348885026
Co 11.685414069796442 12.23102738418117 11.729787813432855
Co 7.736316289713052 12.404759521865941 11.324434867920493
Co 7.4652601547204975 9.863791759453083 12.069125828560269
Co 10.72511310115607 11.289821194396014 13.755056227549431
Co 8.284894894027666 11.499712788873254 13.517194542688927
Co 9.281970981900207 10.512228822424303 15.288308421913511
Co 9.268817109225644 9.268807009386347 13.393161762646953
