36
Energy = -206.97565626 eV
Co 9.06613429528605 8.361649678644193 4.451730398241378
Co 7.995132781456397 10.631334789746713 4.299948484321443
Co 7.210188794067266 6.591382354536535 4.986672279200747
Co 6.826368548788471 9.007308394112412 5.329837299993566
Co 9.603236439137792 5.954640321904773 5.5124726678190035
Co 7.936181787114335 4.268610386947669 5.431707443086767
Co 5.073736499483133 7.510281007826868 5.114554014774679
Co 10.76681576050859 8.0484512612799 6.186441156040216
Co 9.045541394651067 10.059988603751059 6.224253274974936
Co 8.557642487558203 7.795027341728791 6.557337454307821
Co 5.85433281156987 5.077707612259998 6.24395545036103
Co 6.969554536047276 11.20376255820471 6.468851216427544
Co 11.499102056735074 5.610983923146275 6.624043199811843
Co 6.000526660445726 7.2929177098281155 7.108905785824599
Co 7.838456440308626 5.6614096070350595 7.185257318509583
Co 5.09091363028755 9.558547181243773 7.144246729598044
Co 9.708402573640742 4.39162261028041 7.618263088262846
Co 7.255508890148649 9.314970687535178 7.678765114585354
Co 7.882253978328335 7.259933505524132 8.807802452961953
Co 9.78297476712901 9.029650828178202 8.34651020277647
Co 8.537159919540272 11.131016220826302 8.41533030028544
Co 7.240247992473902 3.6805888933493995 7.983845993720554
Co 6.283413184257589 10.919788828076838 9.087612733507807
Co 4.261792137733758 9.966096476719171 9.344401760536435
Co 10.125576791856139 6.724282432785989 8.03943599867673
Co 8.326989581929334 5.090736430550469 9.519987083039057
Co 5.676897614977373 8.192821592851288 9.266613546691621
Co 10.549460908160892 5.286802160097065 9.709312835774421
Co 6.103979871081326 5.74824963576631 8.888918935979186
Co 7.896423199572411 11.30452507834202 10.857114055105573
Co 7.900407682823982 9.26709381984558 9.917178177973863
Co 9.928830837454667 9.884501837997002 10.59176617483943
Co 6.002543628774852 9.694127706249416 11.131434893119494
Co 9.56229232328141 7.469836728155305 10.362914948406544
Co 7.1291801283918685 7.327179098597959 10.98467808710618
Co 8.104103057312818 9.274476688391294 12.170203435674896
