32
Energy = -182.15127149 eV
Co 12.577577302858751 10.827102304908292 13.430080159550096
Co 11.345377287982764 7.183456251389802 11.88702522545796
Co 12.916980642271636 8.809293398774114 11.7804286345935
Co 10.837401323713634 9.468133558821169 12.799414378993077
Co 10.298868859681455 11.380632325766161 13.977024772286654
Co 12.21662399857926 10.929704209876316 11.165671353100983
Co 10.670254758859752 6.876344405868778 9.642883608844347
Co 12.350238336114497 7.457659769767914 7.96051116191801
Co 12.741209906584556 9.125234310262506 9.45795319420267
Co 11.394452128771446 12.68180804795474 12.454257461348279
Co 12.222133390877303 9.751988977824702 7.1928182705778365
Co 12.92258586961897 6.915296912551181 10.174888345375376
Co 9.12805548595182 7.968801386959282 11.906075220186498
Co 9.831518782344633 11.181089478250346 11.353178651957952
Co 11.663797528365654 12.983675748420826 10.147246734579774
Co 10.628423197296435 9.044141584772206 10.482197975708253
Co 9.121896622955967 13.266276273271153 7.006961729271415
Co 8.556878964503579 9.969940605516848 13.150208542771452
Co 11.270885098137208 10.92115776349922 8.995728163338786
Co 9.594154363123726 13.592067435489987 11.209250014259652
Co 8.591253466555449 8.033173214040215 9.503243064500108
Co 10.370361054285107 9.271842952695266 5.876818864288856
Co 9.630400265985834 12.652041444085862 9.112881735322238
Co 7.765326488622011 9.697663720145247 11.04513863476017
Co 6.616480121906979 11.189426893496023 12.37096443899844
Co 8.358602867998387 9.40304470328259 7.135531756156002
Co 8.495718606277313 12.34388949652616 12.837893838975722
Co 9.922470365788259 11.141449201870241 7.079181515525126
Co 10.367013971440207 8.662096085940505 8.091141745823645
Co 8.917970666110115 10.305355788073117 9.173401083207146
Co 7.755844146922829 11.990710810488974 10.463967200088183
Co 7.723795988728341 11.780052798623807 7.940584383244547
