32
Energy = -181.60667823 eV
Co 12.528363298387221 8.918191348825502 15.359511628103977
Co 14.48070375076743 11.653411530573086 9.280416203499644
Co 12.550031831332927 10.347141926603404 9.354608502595022
Co 9.983431467916388 14.698318464261932 12.07747747591356
Co 9.565926317903715 10.507893332630458 13.88456879864716
Co 9.980240038822005 11.28633990458815 9.056315493570159
Co 13.628995602772195 9.684617635074735 13.417337558345244
Co 12.511394420195565 12.765364854314003 8.835906149221433
Co 13.760087556268207 10.839963929753932 11.310102839283543
Co 12.503149916522771 8.930366454508517 11.427672766677187
Co 13.561818956210997 13.116494724410469 10.950082081181586
Co 10.404645597967962 8.50492617893026 14.777549074709615
Co 11.370560875309016 12.024560625811334 10.830156789767273
Co 10.70440197269163 10.506186664989075 15.931016434346889
Co 9.746423726421488 12.505709718631948 12.646404843520987
Co 11.028311623927701 12.09576947425607 7.094607778460706
Co 12.752735256876615 11.206285148986808 15.064716285235615
Co 9.408616849802371 10.653687675730136 11.386558282620957
Co 10.326451322055382 13.599094395947645 8.755267481822317
Co 10.880178495949544 12.500179746398796 14.681608072988821
Co 13.105925050875928 11.139003149601503 7.280648301461277
Co 11.102874162410476 9.825508579916704 7.664901685527491
Co 9.414029729277905 15.260950341609059 9.961510851874314
Co 9.013608187326948 12.981660975902887 10.517170116432204
Co 10.646144161393499 9.26465813807653 10.044622837707156
Co 10.493838445246531 8.875740252979254 12.495844334103166
Co 12.314680984144227 7.710756493494223 13.412331699200056
Co 11.682767728106437 10.895966955848296 12.917958912773322
Co 12.939814137951815 13.534824323243761 14.809372519588033
Co 11.957359358257339 13.497336596867996 12.71705257596045
Co 11.62555985380974 14.406384464694492 10.500069351915268
Co 13.854281678569365 12.122589175937328 13.218413074028504
