30
Energy = -170.51213544 eV
Co 7.255799230754037 6.367351713957009 8.601550192520081
Co 9.54349350466074 6.192270536526852 7.904730545167049
Co 7.302090300898797 7.546586625979436 6.614494844194012
Co 5.594203621828959 8.024178476208652 8.22862721256873
Co 8.992260909641166 6.590306322553499 10.1893160205734
Co 7.037126701803054 8.232995874311982 10.014955208514401
Co 10.82743286901979 8.152171893668639 7.035875619242423
Co 8.724090763190446 8.25078285370517 8.301413264562362
Co 6.938769781277378 9.679983485866563 7.414869479608542
Co 10.899921828033706 7.585505837148646 9.269718476159058
Co 10.948602626584616 7.556205903533449 11.64026720360826
Co 8.96364808877173 9.282892645649069 6.209398668129024
Co 9.132535354608404 8.783329797274053 10.840978726918753
Co 5.87959806190137 10.156305511881888 9.540918321575033
Co 12.98766393485331 8.058255320388247 10.38033620314405
Co 8.211756838886478 10.413843419851808 9.294309216224862
Co 11.2975896142831 9.637082332819059 10.490841486543767
Co 7.57389974289366 12.319932689051887 10.414728357803485
Co 10.238829774875853 9.720024509320396 12.643913686794605
Co 12.581295518594878 9.237029846882225 12.399468104285898
Co 7.4608219276804695 10.218514229262572 11.495245475069998
Co 6.6651251910368625 11.960782553667704 8.295144130975252
Co 10.244966608332632 10.153098737083742 8.127040315995188
Co 8.539401114134533 11.42149120744109 7.064667102119483
Co 12.410479598742988 9.336428576606677 8.445757151799146
Co 13.507601240799643 10.386700824242062 10.462286631233953
Co 9.605600054302505 11.31256173191545 11.028274349846752
Co 9.451288332548058 12.387723645959689 8.92198235272636
Co 11.847986542462271 11.429550161831218 11.835280080947113
Co 11.623074788707074 11.616499718037153 9.412753512075836
