37
Energy = -210.34383278 eV
Co 13.558025893123157 9.590187308849677 10.788395774339275
Co 12.846193706019228 11.781198744610707 11.819596691502003
Co 12.54544122546909 7.547866972220318 12.57007974712781
Co 14.007185514567265 11.579721861020541 9.690785601548345
Co 13.115507035474511 11.419490272664166 14.122576329843662
Co 12.37821018375739 9.699003541310622 12.871991499708072
Co 12.169226964597279 12.08363137132115 7.873568236721354
Co 13.122150914200088 9.925090434766961 8.205341112275883
Co 12.313875981795984 13.215276489754407 9.896911445850302
Co 11.481762568735824 8.532885027763118 10.84604615564225
Co 10.265712015532042 10.377856262254008 11.773893922642145
Co 11.022517709126886 9.616389297331496 14.69699514403823
Co 11.605379653118575 8.09318468934511 8.698115709904336
Co 11.781854259710917 10.864453733725503 9.907193823953827
Co 10.310101497925071 8.263859237719089 12.886281410657258
Co 12.064388395549521 10.801856541019866 6.024547696227672
Co 10.971160148855466 11.688394866034367 13.583349399991464
Co 10.817368243413926 10.029561561812194 7.71672044899889
Co 9.554817875528453 9.739913153590187 9.647558818220853
Co 9.00373817142453 10.12816006968608 13.743112809857802
Co 10.030731099951842 11.914126747975697 6.582524000273649
Co 10.089352160758885 12.232394640360337 8.963651185969102
Co 8.986219307832405 9.855543339375952 6.307902549997718
Co 8.224455459467285 11.043725629991604 8.169713571501381
Co 9.539636896626144 7.478511981223739 10.149602102195232
Co 7.9825318381801 7.813611358382596 6.003286515116492
Co 9.517196406046066 7.9988877751846985 7.758778669955407
Co 8.527764779782476 11.734552676470571 10.659993173459378
Co 8.81748629892383 12.413545595481326 12.90483973757225
Co 7.1222975782164335 10.820964660460163 12.40655790546165
Co 8.372214829332675 8.982240870713897 11.54476597048069
Co 7.44875891028836 11.555577195129972 14.517724250740171
Co 6.74903211604391 9.744979089210336 6.80404457547162
Co 7.591052014951769 8.730881643678742 8.741772999464965
Co 6.358818179483441 7.4882410026243695 7.402053258692093
Co 6.819337895050626 10.309614085531956 10.129009750160979
Co 10.632716147603603 12.648840147871175 11.334937880901041
