30
Energy = -231.33184762 eV
Co 11.74537402873253 12.631421404621848 6.863911972996115
Co 10.040857870274065 12.346974993276888 5.577737514330472
Co 10.677684652986605 10.064205116179622 6.599110709848723
Co 6.789919058022884 9.152000851483816 8.321267816628401
Co 9.551510740846862 12.06654431467338 8.174599523421554
Co 11.71536403108653 8.289709708293024 7.865782812487961
Co 7.963287953236615 7.59181281737724 9.742608108023363
Co 8.36514490651824 10.488405160523062 6.619516580098202
Co 13.530730699838573 9.563705245518996 9.564435699461745
Co 11.319977275222572 13.005628930035112 9.682964517869443
Co 12.940151009381474 7.129619676289003 10.065727628166869
Co 10.162487363336203 6.963425569481478 9.527883837403943
Co 7.468236019305003 11.362402937777079 8.886652775062492
Co 11.641175974039319 10.94508762149564 8.441916255364895
Co 9.206679995379146 9.213435719272109 8.671936634262583
Co 12.562236837801665 11.395707137524276 11.036719705638928
Co 8.631924619910743 13.118151015620475 10.339609012941713
Co 9.69865785955939 10.940336039044487 10.27739087958701
Co 7.3988502653929515 9.889576338368638 10.66040012101251
Co 11.213055388871606 9.069074709979628 10.254472663253948
Co 11.32963611679626 7.170956312181577 11.754367701178374
Co 9.057405292282063 8.496388634561153 11.238572744537496
Co 10.52256694895129 12.786239895126899 12.047733249903478
Co 12.946234477239466 8.941526950793877 12.183253981523587
Co 6.6902722523836085 12.19908586454443 10.938641820018757
Co 8.37791761089853 11.38025423186175 12.138574992812137
Co 9.186290139895704 7.062603066087129 13.364378696188973
Co 11.141292560960707 8.262535026163492 14.134868951455674
Co 10.730239559985229 10.278667769806988 12.620597188493262
Co 8.557417523814417 9.357095974987313 13.566944938977976
