33
Energy = -179.29441245 eV
Co 10.519943392068209 9.693542559004438 7.044637019238504
Co 11.258179980321875 10.764760994774244 13.58951606015167
Co 7.486137202497972 11.624912932523463 11.510496180701196
Co 9.569863832121834 7.433520519950055 11.027445665508342
Co 14.2875167969995 10.466225608735805 11.318765909106471
Co 14.162716261184332 10.569334415448154 9.059387635272264
Co 8.425675944477222 9.519788000835716 10.73563670235156
Co 9.848017400931182 8.344320113194104 8.747540898231538
Co 13.44902713449378 12.70554282915001 10.194850849583775
Co 13.424516359098781 8.574755579387658 10.348174362108765
Co 12.003963717970754 11.509425693384026 8.742091762533061
Co 9.867833402263209 11.197132751069239 11.206354158817685
Co 8.14822418356158 13.138135547745154 13.240585791870492
Co 12.149827064361599 9.195380602238941 8.457236994128081
Co 7.321332065070654 14.698737287968342 11.456864326772207
Co 14.202349493504325 12.587665034813732 8.100121970215678
Co 12.725651053126127 9.148751076477142 12.572096097112645
Co 9.74896908018427 10.62169614387487 8.980870330645377
Co 6.2472346093843045 14.236268476252706 13.252578118501706
Co 9.16531589729119 15.012935100697248 9.82480805832131
Co 9.05918388313995 13.353386082921348 11.152870606876522
Co 10.397699730848828 5.589541699687692 11.796885185838388
Co 12.146016420342322 11.280992553445353 11.382441986949514
Co 8.79466768028519 10.98599720615473 13.192327770843502
Co 12.14138394957858 13.746528503585667 8.411283672583
Co 14.304990569890784 8.46689057643466 8.278594753045569
Co 10.66075796817675 12.748627970979118 12.762695955444602
Co 11.052603728780129 9.216947620600996 10.572809496198365
Co 13.468939371695042 11.28845218364812 13.32118369785032
Co 11.064104789099021 13.120785426622271 10.214714197716914
Co 9.68979995054918 11.023640631127254 15.14491052367071
Co 7.957719985265519 7.543978524490193 9.525096628426134
Co 11.937295144878663 7.27885779622086 11.521584676827768
