38
Energy = -197.6489928 eV
Co 11.879677175183847 11.184382158898375 16.77102906310969
Co 12.832761395974094 11.651741681446905 14.729258289769197
Co 19.13145893163888 12.013870888038495 15.489160366284288
Co 11.72688786292072 13.59042570378797 14.34715341938017
Co 13.376694240937368 9.535146848549438 15.824376377795945
Co 18.85749628050361 19.34785004931159 12.741185440351938
Co 11.315507077315633 13.308905047272525 12.061418990447775
Co 19.51081174309681 13.404331776758124 13.963285391293937
Co 14.235899237607049 21.422552806102498 17.559228631580993
Co 14.125236326992026 19.175701238872538 17.678164252867564
Co 17.977296363973878 14.811555674551892 11.266108090049268
Co 14.930271426601745 19.297908693701203 13.861377941649552
Co 17.53986989414892 15.88853580042393 15.260977220756258
Co 15.260473641284579 20.445937967201065 15.739834145230082
Co 11.119252991382451 11.486406533948905 13.231224329664132
Co 16.091975823685498 18.278997206957392 16.544607193295693
Co 17.745987762966916 17.199226372256792 20.075836230210907
Co 16.318567547123003 20.20319473969824 17.757052063149594
Co 17.22553148046388 14.040624480998448 13.496726297302873
Co 11.64782648945248 10.195827196968015 18.80102005135157
Co 17.772241976875534 17.345113069421355 17.76714227490192
Co 11.695044141112625 8.748465381625557 17.135263916067867
Co 11.158923106241428 9.813222131061261 15.056425412244076
Co 16.83851766306038 16.197999223249866 12.628499624458527
Co 18.527286410633852 17.546894956355928 13.980384217957075
Co 18.61016218314687 17.211041506428202 11.631805288791442
Co 15.827647340994806 17.906885464591962 18.903304900265915
Co 19.040467087888064 15.439451012660037 13.190901251033297
Co 16.755968056410975 18.587562252197912 12.572902261942371
Co 17.452527934153228 19.31975554446213 19.546681733753413
Co 19.56680065085657 15.091796901006134 15.564376606414914
Co 10.355354560761358 12.170023482867274 15.396599091281818
Co 15.161282466462598 19.982879093019857 19.64823064933288
Co 12.636809037021575 9.751521522569567 13.414325297124629
Co 17.647649406975574 13.702506551006145 15.722555381550228
Co 15.947306232047069 17.408795197204494 14.487481681299407
Co 13.695421904705077 10.033679989659918 18.07584453239283
Co 17.150391362143694 19.47319000018733 14.676573774618413
