34
Energy = -195.96199418 eV
Co 8.328947261866734 13.263171163239779 11.922566992456943
Co 10.348498436612738 11.988454164607637 11.902812766526699
Co 7.5649211138802785 12.857991094790806 9.658762858981083
Co 13.07185110217036 10.370824664439425 14.713011389542988
Co 12.243982219048068 12.126519032736514 10.356817510968808
Co 9.099807233829756 12.703982097758702 7.885945446387014
Co 10.675241040382735 7.682521636055221 11.411879306361033
Co 9.278866609382552 9.088851699655121 10.081104364658366
Co 8.525479182429443 11.447434770928325 13.383813589520544
Co 14.017653575036249 12.929246459709065 11.562665520363861
Co 12.164113705784072 14.335571870877844 10.540523347005934
Co 10.018004183870586 13.152863257692003 13.96227299692855
Co 8.359932409929907 11.105676491942294 10.908858708033899
Co 11.785402639041891 8.925301043169563 13.118438099607717
Co 10.190345673387702 11.225380069001556 9.329778583224174
Co 12.27227626459875 10.406155926351934 8.667277865555183
Co 8.041596073798862 10.705582765698853 8.59828025883593
Co 10.310745495541118 14.48221220282306 12.071134481132772
Co 13.819356652409772 10.309212224507936 10.526464748404964
Co 9.81067902523427 13.476849763288593 10.037830610705768
Co 12.812286068060384 11.044616929329187 12.497269951168922
Co 15.221443912956689 11.065080691015654 12.37209960103863
Co 12.065381794185964 12.5635502377495 15.114042237302076
Co 13.017673527789833 8.21665870925644 11.102002759523588
Co 12.158255526661662 13.312250569566611 12.873931672581804
Co 10.773506638921475 11.359010880241197 6.994746103759597
Co 11.455127199142902 8.304535812432084 9.220821509329372
Co 9.896377882882284 9.438031581039011 7.8524218545675035
Co 9.605077654057464 9.6278413811306 12.396252512981809
Co 14.112831134203443 9.163383163046161 12.964538243454342
Co 11.405555140262415 9.878010186908872 10.923979244044713
Co 10.901498107923283 10.941646789726665 13.983875403664074
Co 11.43817542492279 13.098710590606984 8.445765386252683
Co 14.089087737044483 12.369010164745132 13.93180888307952
