35
Energy = -198.62618946 eV
Co 10.270747444638577 7.465052112665454 8.534554067433493
Co 7.0317342578684565 8.911007541648644 10.777147592762367
Co 12.78162527493739 7.154639253959303 11.62087283449596
Co 10.726045648334372 10.618149912556383 10.456744534746724
Co 12.351972078467186 10.190545585422994 6.772852496765586
Co 11.864228699102172 8.492962694021891 10.188383717991679
Co 9.4099449406274 8.696337760437112 10.450412673413414
Co 12.897874500462567 8.223370195333407 5.732011103628555
Co 6.080148156135137 10.85383451959366 9.985492521757095
Co 10.096708858308222 10.556369446093727 12.70195835992249
Co 12.423043956699258 10.13362734648219 11.8851874972906
Co 7.756235751142162 11.070681645141416 7.036721212841931
Co 10.774293719672265 8.449178812527656 6.328848318960457
Co 9.542764897081737 12.655794790050908 10.480995032073112
Co 12.495760699184027 8.211258250743187 7.987326593891209
Co 8.679886239574524 8.92798727674454 7.208207759548237
Co 7.543562898055705 12.510161950439535 9.298153519205952
Co 10.031726823559433 10.719652303340089 6.282473143667457
Co 8.212374097137717 6.756783426611643 11.18250780358997
Co 10.519296907815534 6.618008178685713 10.738637221667556
Co 8.207360711139296 10.981924854173553 11.440466258340514
Co 10.646224918908528 9.800999643863582 8.312641212750284
Co 7.829382466160624 10.339388529777088 13.647150541256261
Co 5.774179131020661 11.644489182521088 7.901199256446054
Co 10.82639574092221 8.288989640328158 12.41416914853668
Co 12.838304634755035 8.516866398270322 13.395056527467238
Co 8.350300830440029 10.331227332050705 9.17129535905536
Co 9.56807578501218 12.075035303670308 8.143879969340395
Co 6.516207090876975 9.328324203000061 8.28428428699647
Co 11.583025815938765 12.247234933569763 9.165931566343586
Co 7.92869285179722 7.570238029726518 9.003302315862983
Co 12.84813590600885 10.364667248931054 9.19797442448548
Co 6.108062100484294 11.079007699542798 12.21714167015179
Co 11.516271600390615 12.347924522963277 11.722784710188904
Co 8.519506107859268 8.565118833072257 12.621082818012207
