33
Energy = -187.61885561 eV
Co 14.931004052977713 9.546711960328352 8.146633437460089
Co 10.469932603528534 11.45077058914647 11.263060309633186
Co 12.702951385843358 12.011233200104526 12.057431619869345
Co 12.047296924979548 10.860321149627673 9.688615755868467
Co 11.86530990542934 13.308402317297826 10.384241481751035
Co 9.634546349778798 10.120873617066266 9.408886011111754
Co 12.245840191367062 11.296484169418818 14.142711422150704
Co 8.245458973022167 10.30241528331879 14.005562079709705
Co 10.337500618591104 8.191448948226865 12.185002646091853
Co 10.267785309967852 12.39201433026769 8.999630505330328
Co 8.99284127594358 14.375997465984218 13.190578899596781
Co 14.105763549580585 11.945341802799382 10.192136089743704
Co 8.688415418706924 12.108285223361982 12.729582574901585
Co 12.621293541889722 9.043240074066887 8.214908246115593
Co 11.039598039268784 10.650487347708733 7.549783851575466
Co 9.657582264218881 13.661865399159888 11.06468710448509
Co 8.699596839290658 9.806315882819481 11.666172273888492
Co 15.067013862999183 11.831262510379872 8.139635304135442
Co 10.132622353134588 13.977932007926995 15.12618184132698
Co 10.93504805660702 13.109953670242577 13.11329751967786
Co 10.400832116689502 8.395306335517882 8.060795186506908
Co 8.326482785437664 11.884232509669793 10.350907213674784
Co 14.540773806467467 10.598714427529424 12.098380554679279
Co 15.924319662525605 10.565257261630213 10.044266071419582
Co 12.730655967005518 12.535102523317788 8.275473026447425
Co 13.374610602485864 10.811170524967789 6.911525870999196
Co 9.130868594957237 8.02382581579617 10.169152942332044
Co 12.342474891244404 9.709700252318429 12.047625622202208
Co 11.3954550183665 8.59898857347249 10.182385730548223
Co 8.084124979198977 12.916409311940967 14.774954077813547
Co 10.000934077120645 11.725579832975784 14.86181540645247
Co 13.886548207602145 9.468659825994298 10.20565703074461
Co 10.431399494358828 10.161195832872927 13.285509334599688
