39
Energy = -194.07916986 eV
Co 18.603119323016294 20.28544191357488 16.24815352504517
Co 15.117180872228676 15.618241673570793 13.857412872245243
Co 20.0212894554348 21.826212263227955 17.282317919339178
Co 18.265281807523916 18.36573396419655 17.470494165938312
Co 19.903597553721227 18.229447245499088 15.90212301920454
Co 11.826766019510497 21.448366299623064 18.51953397902861
Co 12.74684018086474 11.494129280421685 10.877550522463245
Co 17.023396629254783 12.036865699186276 11.987289125589857
Co 13.448572768087807 13.746663245094261 10.64486334042943
Co 18.319871783278753 20.63843922717971 18.577623320040367
Co 14.557820409292967 12.538208468567491 20.72709813339335
Co 14.45132128404348 10.79984074851976 19.43066241089819
Co 18.329821922888634 18.99744951956964 12.57952584453883
Co 11.042496958961806 12.075495173840004 13.834290181302917
Co 13.097000502483787 11.738870527949246 13.115642595402523
Co 19.11321993646342 17.246657309062996 13.832458004086945
Co 11.667145924222405 13.26940175920797 11.90136281968263
Co 19.306027081660293 22.74648219673579 19.190494765765497
Co 16.02110009519262 14.062928650960565 12.468365540235132
Co 16.581672953163807 17.499895919254175 13.181056414512096
Co 15.07529886756454 10.449409060690517 21.46747441965004
Co 19.400469644469993 22.02314261621045 15.05656839848667
Co 13.431691751703411 15.843607743976401 20.664801371666083
Co 12.51088260711609 19.589743766698774 19.14650811227807
Co 13.71973771057582 13.98262583528449 12.945560136269954
Co 13.709558504865317 18.10811960160876 20.43930809311013
Co 19.576608083001684 15.063639993934196 14.16863462152946
Co 13.78478013211939 14.086101794943444 19.439822999437414
Co 17.66544524399287 18.46676712089341 15.025694270487781
Co 19.488600248991855 19.86673261180311 14.217039929926782
Co 14.794411692758167 12.247908315833678 11.633871541395044
Co 19.067153101988207 18.963963075982097 19.71561366398225
Co 20.47254812838478 20.946142561571055 19.604137705824655
Co 15.064585722844708 12.230783453937779 22.89770752218451
Co 17.40993444679229 15.58003215138494 13.870526602267827
Co 10.788345936524925 11.058605386394776 11.96959222532243
Co 14.610915076060333 14.42461594263656 21.94964401934365
Co 18.309120088388593 13.860453403388172 12.644179533505577
Co 20.295484775213502 19.585906251319905 17.774144617114825
