37
Energy = -213.53985837 eV
Co 6.936323132827935 11.011209309970468 6.660838654642417
Co 6.311387336833087 9.798321259366606 10.722845312856066
Co 6.290061216691921 9.114069543807899 8.189474483092486
Co 7.246534263938325 12.994423085473096 7.999896799722041
Co 7.630535668213274 11.985715484195058 11.135923174044116
Co 9.179648360853518 10.431944309671687 5.377917695276329
Co 6.553327880437958 7.528103807978821 10.985134170813692
Co 8.752830772682463 10.965273818387198 13.064364464530183
Co 10.032814916864012 8.138178517665407 6.07786219473603
Co 9.071662533814116 12.772960358410407 9.478211498423505
Co 9.074287163103957 11.871396164627653 7.213665293325084
Co 8.059216931798527 8.30682418817153 9.427523829736842
Co 7.420797322834227 10.957421283752499 8.986889577584778
Co 8.3344007407297 7.061110538553178 7.514777660855823
Co 7.332141414348172 8.92851416809852 12.75856736694818
Co 8.440602155515485 9.401428295913732 7.272094616353141
Co 10.35429128674141 8.145264350041776 8.48120044571693
Co 11.55827895766887 9.35949818022417 5.026432965871772
Co 9.735858887630979 10.417643725758733 9.077762429022268
Co 8.58109377125545 9.878500450798704 11.095055968334409
Co 10.897697938990405 10.300973128800027 6.923557204582881
Co 11.261645610736506 12.026135084934612 8.807528254572032
Co 9.478248164631674 6.30403208579388 9.531983556701068
Co 8.788792963338423 7.368504550665232 11.500879582729201
Co 10.690140469585234 9.002832583644603 10.72367400620616
Co 10.485262338031003 6.160111377841191 7.173056347087998
Co 10.251505908386587 11.565263650466587 11.11985218683147
Co 9.86412393008679 8.868489349605087 12.931757631468976
Co 11.25212662366229 10.683364543853585 13.059797005415238
Co 11.062243141537568 6.795666460094177 11.31555670411702
Co 12.287121299826225 8.676452042158557 12.371412913143711
Co 12.397339448039647 10.613519094967847 11.013888177895934
Co 12.187085646199163 8.189729901288864 7.145615605454802
Co 12.148615836783305 9.884605708071023 8.837872587418852
Co 12.743038823014206 8.056983297692762 10.021998230245927
Co 11.797074552896357 6.268192989723315 9.071746052520458
Co 6.382542761749469 11.038043481810783 12.774085524002315
