37
Energy = -213.49798646 eV
Co 10.50538037252285 11.945278172811431 14.628834726122138
Co 12.777228696839028 12.25512082258829 14.464934604513402
Co 10.447013019919268 13.042988560272478 12.427580640532003
Co 12.538367222717014 10.00243696863742 14.768083758082385
Co 9.080205516096958 11.121363757107673 13.0057035094808
Co 10.35328357551371 9.568059266316887 14.164709567862232
Co 8.094927718911752 12.648296855787038 11.4301806593593
Co 11.662487385241485 14.596832049319465 11.23134489912944
Co 12.927265124268281 12.976063573654091 12.315628765182694
Co 11.601592893512754 11.028343235185119 12.764105726429044
Co 9.810958473414995 13.70608920837727 10.194008891726199
Co 13.942077941133606 10.635902555178502 12.992495711753389
Co 7.663283331063798 10.351906643551432 11.326958079024669
Co 12.46866092158698 8.835579092051349 12.703550086490536
Co 11.973945832872657 12.515298914304978 10.20694495583094
Co 8.256076947259537 8.878119450298907 13.018458950034184
Co 7.700084415215968 13.961644931934238 9.502986598408413
Co 9.822027049138894 11.250826890150051 10.613017782080775
Co 10.906201952579467 13.387689650288387 8.250223045543825
Co 10.166975943684985 9.092129977702493 11.83406045437114
Co 8.85304201666972 12.108059012747487 8.560133989751112
Co 6.824153290870915 11.804705974050421 9.633190801516974
Co 12.067789731773251 10.109592095054609 10.619248396018511
Co 13.98191376938291 11.47485220022694 10.85779830032716
Co 14.094507143766268 9.087897896415148 10.988487223493703
Co 8.423182038238334 8.162060629109243 10.625756020183887
Co 11.866561360580542 7.614125123807046 10.832717251809271
Co 13.31559055211734 10.756665815762158 8.7544104768587
Co 11.04965592949721 11.165704755421825 8.48232475261947
Co 8.100460524482624 9.924371664028897 9.10829555261558
Co 10.376336044073408 8.970693655695356 9.353753089708809
Co 12.815157746859219 8.498453413639083 9.009961144578899
Co 9.988320471883164 6.691068221905659 9.893680641468166
Co 8.779995223871532 7.852755099409539 8.090382725089055
Co 11.701980536244207 9.364568494367694 7.176896683331729
Co 9.460125258527292 9.929273805258667 7.2595391768447515
Co 11.054693404480778 7.251859081915896 7.932911571875007
