35
Energy = -201.78496835 eV
Co 10.271458635863999 8.046831209419244 6.111188075358267
Co 11.672496039711925 9.754178544030829 5.710281851881109
Co 12.245460362805176 8.028434966649707 7.361580054173154
Co 8.904378902880099 9.736312374390746 5.638611976353982
Co 12.361362682655193 10.366843014568289 7.790811771471485
Co 10.238605046268837 10.951878100207997 7.085055758930042
Co 10.237678465475602 6.447128884682709 7.732670053563746
Co 8.261933314938585 7.734744172999333 7.342145241822201
Co 10.267723244126875 8.826458147396847 8.351120733124429
Co 11.371105996710934 6.9927946269517465 9.597359740112518
Co 8.11751784121988 9.976608561578855 7.762429299683425
Co 10.815957754542612 10.842557064947563 9.691421297724512
Co 13.063796833678479 11.571179414038127 9.644850384760332
Co 11.293473220379033 12.670425489181238 8.44424584752489
Co 8.93394081825648 7.360232830539419 9.650735892316607
Co 12.513239958301753 9.017957061638128 9.612549585804228
Co 8.867936573594402 11.936401113987156 8.757916189047583
Co 10.589085482813791 8.710845159256216 10.920224962709487
Co 9.996116438580358 13.105848212864649 10.36737179248624
Co 6.890081679839449 8.506083355745035 9.121798376376455
Co 12.297438133297712 10.251105959599538 11.612413322998236
Co 11.898228733675507 12.512063249851009 11.406436639132345
Co 9.997557039346121 10.957097198061332 11.93816792921933
Co 6.708398729802295 11.000524764420891 9.322213108614562
Co 8.566684318308452 9.76010779990971 10.173604751059823
Co 7.385941465666544 7.834459212425426 11.295237420312054
Co 9.589238308068474 7.010477286641851 11.952934108728366
Co 8.038932722089323 12.039135849775235 10.983184248578395
Co 11.003125999870377 9.027614100328801 13.175139594323054
Co 9.73773213654155 13.05477554604864 12.769355751419567
Co 6.787521902577582 10.106161867589277 11.622396513225672
Co 11.532682981597514 11.674058948947343 13.52670496020497
Co 8.007048265247098 11.437116572119242 13.177536838670614
Co 8.706145612465484 9.112214713492612 12.637281074409263
Co 9.753292832160096 10.496625231599984 14.358428316166645
