35
Energy = -201.00319654 eV
Co 13.53649760686123 12.153040292033246 7.654907888575056
Co 13.547553994849308 11.787646158524641 12.305486013620285
Co 10.046675140270139 12.327609650150483 14.160668892428593
Co 9.839620933112633 13.636929432668348 10.028475026462546
Co 8.035034987646902 12.258735794375163 9.595925112648718
Co 9.158871452428741 12.355667924081342 11.919472693537319
Co 12.086196053959126 10.82541949886555 14.518484021453654
Co 9.6179704171257 10.273698738515513 14.925153735975892
Co 10.93159676539431 8.801574648070558 9.064414992473077
Co 11.701796472261464 13.022032383974452 11.297876079837948
Co 9.11238430261605 9.879490975167311 12.663147709810389
Co 11.010862604801197 8.875267114945649 13.705117186043546
Co 13.048549538756989 8.48858319119386 10.150085226374973
Co 8.728106039709262 9.160163678619112 10.32251813934144
Co 10.844799654191197 8.901836735974708 11.336952112776885
Co 13.925718166823717 12.185593613588827 14.610988720578934
Co 9.818517952932774 12.243064690106905 7.92367462740033
Co 12.789476899111683 8.628422275793671 7.760059920544033
Co 12.359841835888385 10.67632681203095 10.365543098967681
Co 13.913286869934625 12.328581131686462 10.036708423276055
Co 11.66126445943075 10.723693474316809 7.995878389339903
Co 11.840260714186591 12.817637890658661 9.025232231852492
Co 11.127607094205125 11.060835409159322 12.445392778739846
Co 7.644958752114448 11.701946287860974 7.429696371496925
Co 14.643976637268766 10.147994200497061 11.072903448132788
Co 7.871714962616396 11.496138190460394 13.674084118219746
Co 7.434862275368934 10.830866265868417 11.323882345533864
Co 7.033052519492561 10.162789343373293 9.07530200887072
Co 10.254196944200807 14.2393896016118 12.57723837864644
Co 12.892921120019011 9.36080645990095 12.42976571928458
Co 12.074424204807265 13.140605873682036 13.594724054852163
Co 14.580248585641959 10.21719005379971 13.62106400324279
Co 9.145882734528545 9.987479897841364 8.131010036472134
Co 14.011010495402065 10.238902058136553 8.75886257156354
Co 10.072078286294815 11.09354111887604 10.030153866315617
