44
Energy = -257.37787472 eV
Co 8.201156760535266 7.466355978575257 4.505802445221021
Co 8.173000543838675 5.257462777355584 5.864789799651675
Co 10.252442324127394 4.1732386992749735 6.180538745397764
Co 10.234515149108653 6.568372790739488 5.482634031444063
Co 6.427094527732351 8.710131643416835 3.9039631166011914
Co 8.51658387853499 9.890738294249175 4.349611880843132
Co 5.98351864400922 7.2810163935071435 5.798781336323474
Co 9.761427753243925 8.819820863994714 5.954351508723839
Co 11.65609514957955 7.874371899701532 7.080046103255027
Co 8.170764158177539 7.313685001925919 6.796152788264784
Co 10.585403505623171 10.824821439650046 5.338390445108786
Co 6.932394889471807 9.475314281788581 5.969169456031277
Co 12.073633291219094 5.545061717888551 6.91120715897191
Co 9.921048914576621 5.910376115646058 7.646448640312258
Co 6.4203056680383845 11.34458489529766 7.310617665677239
Co 6.485939771516302 5.629368617584018 7.590855944476634
Co 9.812237932041185 8.10078743218149 8.466372615414093
Co 4.825324832091769 9.380673283459544 7.086853963844217
Co 8.640504088099213 11.302414211213563 6.348712553815577
Co 4.439396013171155 6.936259074608165 7.658459332715072
Co 8.232814506443544 9.663318596595651 7.910968035843415
Co 6.400472447869579 7.996693424926673 8.066912857195016
Co 10.564374290046443 10.255711034902749 7.688585315960638
Co 4.2327811676021385 11.039796507721288 8.65536920589782
Co 6.076936082290944 12.299629381675441 9.55688338161928
Co 8.094170795427138 6.423559065437173 9.052199361154631
Co 8.262489156883682 11.713680677700465 8.867831573751412
Co 4.457988910865499 8.611101969421487 9.399197156216374
Co 11.026542366678004 4.06734819114247 8.481801304619829
Co 6.232555208335247 10.036497717679527 9.181749169760279
Co 11.712879028504947 8.936902340841657 9.402757138092902
Co 8.444013895697402 4.238860670117979 8.099173994322474
Co 5.894341176206909 6.70603478420047 9.93650633961329
Co 7.852717445798677 8.502420955566174 9.999261606751585
Co 7.290595599394476 4.593099260514346 10.145801921805965
Co 11.539037455355174 6.55071817617082 9.146061543025818
Co 9.887728207903274 7.471372819457423 10.70366697193109
Co 4.885530352370117 10.700862586589233 10.936397522558204
Co 9.694695592965731 5.129390468778433 10.076145644871392
Co 9.62071147436858 9.994482229409027 9.971745648830417
Co 7.504623848069349 10.674488350543493 10.97026003703322
Co 7.779423217182115 6.578126633089839 11.41477669148937
Co 6.005609998787435 8.695691258549953 11.351011567651797
Co 8.2747373564386 8.795914863131744 12.221733854133474
