41
Energy = -239.85302338 eV
Co 9.097216080982598 10.846553811460899 13.42243286254437
Co 7.560818224000918 10.062983788479455 11.830584954270044
Co 6.936449435613317 7.699931850781984 12.307555009595438
Co 9.032207485088223 8.505149229266454 12.942904676632033
Co 8.816394269033266 12.013547158147981 11.354292649733276
Co 6.460807716861518 11.661915987016938 10.559200969269291
Co 6.137796206277536 8.817257990134612 10.533500315147663
Co 10.6958864003987 12.971426485572392 10.322654850854732
Co 11.05862395367382 11.754493835840988 12.34098895228115
Co 11.018717486517424 9.585619696083254 13.472286832139911
Co 7.995090464880958 10.372341653394765 9.44227423868761
Co 8.736041063084937 6.316850927546678 11.953549456905487
Co 10.011731066987085 9.993500029105844 11.266805245028001
Co 8.711880045301573 8.092649389065583 10.335282576431668
Co 8.451027038540447 12.757674819228846 9.251241632058068
Co 5.6185857299830095 10.255004744198986 8.820839701317473
Co 10.752038573179702 7.659261582750491 11.66319620509869
Co 6.647231447600362 12.100053935449285 8.06593011997048
Co 7.105670791739792 6.443109369887868 10.253572278039506
Co 10.32060132305305 11.117412623276993 8.881885545129679
Co 12.372091407447398 9.267690611696628 11.654049906732716
Co 12.208464792386154 11.186755725078848 10.375844128117375
Co 10.16464839506026 13.325684961890623 7.833206373680537
Co 12.235903596022856 12.65468569502402 8.491682535534201
Co 8.76129830246924 11.560358678787406 7.140703916042886
Co 7.173537699996127 9.936483265044153 7.026730741854508
Co 6.966862988561896 8.180563363195056 8.549847228519106
Co 10.110957005573011 6.058348629261784 10.130749679023243
Co 11.292633986517469 8.954665873312209 9.467854530578126
Co 10.996467904061406 11.363113651449941 6.5991191159564515
Co 13.70066019177915 9.176558643588635 9.798562902792185
Co 9.237977467064814 8.876965157026817 7.960067796551256
Co 12.40159299028722 7.023796117028496 10.143342812462585
Co 12.655675425014083 10.444863595608252 8.141617720880083
Co 9.340470773820336 9.76051100391536 5.773312624056987
Co 8.599975509676526 6.575402201854483 8.352582819523766
Co 7.753796078894685 7.814113407717653 6.362154842633421
Co 10.936331526217488 6.995914236572009 8.199792387013925
Co 11.333386197406508 9.073977416265333 6.839437822448211
Co 13.039149147701824 7.97172414845877 7.988359913500389
Co 9.94372576475198 7.357682650933077 6.16652677328402
