42
Energy = -245.49474301 eV
Co 9.907692806682045 9.174029580177434 4.951400824509366
Co 7.446275140112098 9.741316411500826 5.2610802654016195
Co 6.373962659634651 5.861697829454628 4.317528149099694
Co 8.068885037484579 7.513081741506193 5.183434272735785
Co 5.646083398257615 8.064766966120585 5.214144637086842
Co 9.112588646012517 11.151725471932613 6.031220159942951
Co 10.194916731640253 6.828786640581528 5.800417914722541
Co 11.578256499782128 8.504040490857067 6.568084339189671
Co 8.288833018217188 5.102654724163736 5.72710817983612
Co 9.178570517161951 9.028758813507462 7.1131063198952855
Co 5.0596662438248 9.844560425928295 6.60309366602898
Co 4.4049191046532865 5.822483995406197 5.721388125391703
Co 6.8602508667798725 8.559493635941633 7.210184743958512
Co 6.06039269048902 4.129243760048552 6.011657135949046
Co 6.954906043081254 10.905814735123256 7.377325400018293
Co 6.456863284876346 6.294080183559093 6.544699521974105
Co 8.594311077536195 6.680198946906415 7.48525474447307
Co 4.580954673744671 7.59871876578763 7.445475865580019
Co 10.058958251633394 4.912605549492826 7.244799776980754
Co 10.758397413031615 7.21938954987376 8.299635214676966
Co 11.023242708331404 10.544211475373206 7.404446398048774
Co 4.996166802208475 5.300813477494277 8.044597201730483
Co 9.05057919961103 11.415322666393646 8.366853976630333
Co 7.458569630605239 4.730350446671523 8.058804287990164
Co 7.673188062694239 9.607951315998148 9.284197961941475
Co 9.517737653703819 5.408062585993593 9.452378523566866
Co 8.609517381043819 7.481837294572661 9.662589330855917
Co 6.993598467623407 11.78967068222595 9.568926288643423
Co 10.046380952022618 9.394958892560643 9.317908249871541
Co 5.417602856196764 9.320521276828375 9.043752018385913
Co 12.216868085498385 9.033398357618793 8.881649098258034
Co 11.217334730062532 11.346506220078421 9.614596166686974
Co 6.436192437128344 6.933083070721723 8.847018344421855
Co 4.45002514438695 7.2982212872076255 9.771493782520167
Co 10.74450002921599 7.498261662540054 10.642440938736556
Co 7.365857811184586 5.506134202763565 10.36664300276398
Co 9.029397846554835 11.082037661790766 10.69250006874126
Co 8.869476617027031 6.566954931229024 11.764133824259314
Co 6.741883540914204 10.208283270050018 11.294192077667104
Co 8.825626569054924 8.902691260412702 11.539709918644684
Co 11.083755771628399 9.74999143426931 11.322811801824624
Co 6.631568119279798 7.928042829949942 10.932072000971672
