47
Energy = -372.43539882 eV
Co 6.018674171098998 12.297821118209734 8.967948802588605
Co 8.407525283441762 12.323619459686148 7.952292036591218
Co 7.419174457645112 13.874285277940523 9.932575733272708
Co 7.328874790008243 10.20996893020838 8.262893478615647
Co 6.269432738998199 12.345992632361764 11.944626717283464
Co 5.7592425997429535 10.34465225323894 10.406152535377505
Co 9.768861314673726 13.5509873179757 9.608845964116506
Co 11.820467353499144 14.690871290779404 9.046805448395801
Co 8.143671706588748 11.529542318290265 10.493965152332143
Co 9.341871874150321 10.127461107382585 7.21514417827722
Co 11.126177379372258 12.521955229304117 7.655972347883418
Co 10.905594014800563 14.51276745961815 11.514827976867059
Co 8.551869195239274 13.620301419022711 11.96349435439014
Co 6.442789111517318 7.98304959645635 9.929761359269072
Co 8.328694738431432 11.389939581494634 13.189903992857161
Co 13.02991524079901 13.518965574780523 7.770531383703038
Co 10.006243243012552 11.052133462520121 9.23330225617779
Co 11.598654104589679 10.22199228030016 7.335896711730095
Co 13.212809437981889 14.549410961116537 11.066760703823759
Co 12.107460343155385 12.362559706261523 10.144948673062741
Co 11.435659617708517 7.751294857464537 6.627284789772621
Co 7.222088896692188 9.72321996710053 12.105595804807896
Co 8.320161074876633 7.85741567519152 7.487761798477801
Co 13.340543938570859 11.07652242368217 8.455185603454687
Co 10.547949845974719 8.398010478314207 8.721107089293264
Co 10.42111773587733 12.088630947482246 11.67385567762913
Co 8.498744401374086 9.211453965403152 9.8055708683506
Co 12.325152488524605 12.913146062452308 12.893564211976047
Co 11.78525498616579 9.951955820810237 10.1999637523909
Co 14.59196383283072 13.02051866299053 9.628443370691892
Co 8.250405407515093 7.503793572841653 12.054737674290974
Co 9.887283574201543 9.80414375933425 11.807091690127073
Co 9.011362733333359 8.900281506477578 13.932368805692805
Co 8.68800895750083 6.571558024589117 9.583101335098384
Co 14.255016226392765 12.075035953277341 11.92020571379941
Co 10.72316196153887 10.976760137197036 14.054839418714291
Co 12.46922730660489 10.446665060715542 12.291177960941308
Co 14.451291986918825 10.233440087893356 10.348645535586268
Co 10.22549556710637 6.073924075727338 8.168728618787025
Co 13.261845343447245 8.462730220196145 8.62672247821641
Co 10.57256787624216 7.763982669446554 11.004796853457318
Co 11.445449001481306 8.415077901690285 13.335125808900688
Co 10.008705246253108 6.625539267343808 13.161816582261672
Co 10.171508194634304 5.405097839738786 10.728005011970808
Co 13.123523396939023 8.202135098553498 11.229305024155732
Co 12.043488420546295 6.370360899518277 9.463253675876317
Co 12.474940096015967 6.203725810254779 12.132509384806959
