42
Energy = -244.55821233 eV
Co 13.336304983108489 7.487271984305354 6.202890756488024
Co 11.156684898069736 8.075955411409526 6.6254396544546905
Co 8.825182860165583 8.498663662222755 6.733766496238643
Co 6.48502944684614 9.05005445132272 6.750128359555782
Co 10.454800177915143 10.27515748400498 7.107224535305637
Co 12.839562415935502 9.730356683654126 6.78372272038361
Co 8.151061913706407 10.544201024669075 7.564561315346756
Co 14.074703307078554 8.252143004766063 8.192226530609982
Co 12.231115943382836 6.682332519707511 8.153306847020879
Co 5.979298074812895 10.648537173466131 8.346896207706315
Co 9.856467790417991 7.467366511391745 8.559983299261766
Co 7.557611846620597 8.514120760410554 8.763115268967368
Co 5.261116838566299 8.441574827935213 8.751155372484735
Co 11.895583358618964 8.86491013569377 8.724177503390884
Co 9.504992548960242 11.978958147297014 8.794762605802156
Co 11.774888384510826 11.308623459521009 8.773700835370907
Co 9.737271542301679 9.709855535131599 9.316618530009029
Co 7.502140127790872 10.513348504252322 10.264924273513426
Co 7.245526331147805 12.591217411023353 8.572968248023773
Co 14.005040406384829 10.730563564033325 8.54897299535213
Co 13.241879952965059 7.202995066940569 10.232696089545112
Co 10.997333050456378 7.658460870686866 10.615859399031107
Co 4.923592760982595 10.242400871865733 10.28292182307648
Co 10.989429268452984 12.745975863891303 10.503988322385096
Co 13.194572492229781 11.771724184590768 10.620611582566823
Co 8.729016701428884 8.24100679435934 10.820384878472764
Co 8.483159938684071 13.042270959120902 10.553193594552932
Co 6.100945582523005 12.301032846307631 10.571915488177497
Co 13.879686237147537 9.393004404786488 10.377561223485406
Co 6.383028148791611 8.502860230107943 10.850890238388804
Co 11.66568660693025 10.008841878380439 10.853329413686701
Co 9.563872201560594 11.027429525729227 11.352879951817265
Co 5.831392036161756 10.462109705350976 12.312871373856593
Co 12.58219880643936 8.341051843016684 12.244592878108291
Co 10.305150090159813 8.953362355053379 12.52782054836666
Co 7.971949531430126 9.573464607946413 12.569245741864146
Co 7.639099116676402 11.8965170880525 12.407349220809257
Co 9.715756957009207 13.082295765662378 12.609285605254291
Co 11.59069699351066 11.668333708985918 12.545397387827233
Co 13.544336047742322 10.37772306228282 12.514725417540145
Co 9.634471205238608 10.92087304464887 13.70594953505687
Co 11.797907493687449 9.860597482565591 14.035532347395275
