41
Energy = -239.17076127 eV
Co 9.603488653873397 11.536036173946034 9.36094069513213
Co 10.36329789025463 9.973977648292228 7.818358782053916
Co 12.944415656036826 13.7658414646755 8.476122361021524
Co 11.710668878862228 11.788157649751268 8.42681068049103
Co 10.861825927218462 13.582490193069907 9.665721956923853
Co 8.18608854674419 9.787960698402184 8.997108085040972
Co 13.54418970199868 12.009085597151698 9.928454743207938
Co 12.50224030720713 9.664809432557938 8.9688280100384
Co 11.548689649826171 10.891068094017855 10.757229547430954
Co 12.79643330711001 14.948100870004223 10.449954526304328
Co 7.473421610837561 11.823200009915034 10.31065975320402
Co 11.984223237082851 13.15273709122989 11.63963893322562
Co 14.918947803112268 13.841415437584304 9.75322948504101
Co 13.908900001963268 7.920801884393887 9.554292880658519
Co 8.657156133745382 10.040610472228714 11.258650285041018
Co 14.410936997235838 9.835918938956286 10.65274545036974
Co 10.322752608378167 9.081883606126647 9.890037187488277
Co 15.566868512686453 11.894668434776069 11.22555366778715
Co 9.654824580559348 12.192390551471405 11.685018455070251
Co 13.547630055289705 11.359372430347397 12.2593640672516
Co 8.635364384680393 13.802365027337617 10.387280714505437
Co 12.290859484490005 8.564848134759355 11.05174310489821
Co 10.422098634992189 14.90746637582783 11.552231243037813
Co 14.3164477301103 7.933434366245711 11.980990055320524
Co 11.428275288858988 11.349043507757958 13.191804811143934
Co 14.230909383337089 13.752951883842329 11.918621921834466
Co 7.530807262898843 11.669902719353727 12.60493577078093
Co 10.508820728817238 9.347453782899017 12.443975093816109
Co 12.39512208600365 15.170333118301256 12.830354483614151
Co 8.411056072956116 13.846754092770087 12.72974365421106
Co 15.054852309339497 9.875590433392974 13.003380642444268
Co 10.625051907681554 13.722159579443343 13.582652199951067
Co 12.758670333748757 9.2261187524863 13.259934312202212
Co 11.393515525046142 12.22852663695621 15.348601868470881
Co 15.266188065507363 12.202270900332953 13.601510537372814
Co 9.333579793111099 11.776168450671925 14.111721512613304
Co 8.556114787752946 9.703229683748955 13.624219777533721
Co 11.943055094189402 14.641714835055792 15.167996983242256
Co 13.091204677619464 13.158020677477957 13.9286679707578
Co 10.768421119809913 9.89113994165891 14.75583298433123
Co 13.344722744960318 10.952117896714224 14.657218281069412
