46
Energy = -270.42458529 eV
Co 9.484042925213947 10.683960510301024 5.896134809782351
Co 9.696849195915892 8.876441802028898 7.41034034833765
Co 11.564877286876184 10.189705371006855 6.805273778051037
Co 10.598842047715866 12.725396338013603 6.722050296783795
Co 7.743762577101382 10.212866964810663 7.553460135319132
Co 8.243160395940635 12.439420606773057 6.812282914009819
Co 12.065178206864047 8.006836675802086 7.6473428488387265
Co 13.663663284977014 9.83765667335662 7.684319546716447
Co 7.916322721046992 7.915035452789218 8.653024934461921
Co 9.149716452927155 14.364551923073444 7.735686309502871
Co 12.381516737619405 11.887268443027672 8.09061321089236
Co 10.18585959547647 7.014286207766518 8.719293264939997
Co 9.921855835084084 11.203556514785932 8.285280935043867
Co 6.2461493840317 11.742400470142496 8.327752401805403
Co 8.575074665100475 9.942428086486432 9.771779534963285
Co 10.700817784010397 13.360507944030617 9.068725916106194
Co 11.027495395151757 9.281357200112698 9.32274660686524
Co 12.380037362416292 6.41930457027967 9.353981558889878
Co 8.159983553280634 12.737475795494985 9.075267355034324
Co 13.289277643619652 8.593227658968715 9.598534770720724
Co 6.297379280846708 9.568374927375068 9.336424393833482
Co 13.882627787710346 10.922957750691218 9.711783559055165
Co 8.221920462358314 5.845149656823115 9.971632158497822
Co 13.093682876381818 13.200289888799997 9.927691134399598
Co 10.484492780793813 5.673659309160781 10.621396849622498
Co 6.319629229238817 7.2795397928123 10.181860395150688
Co 11.65059881556188 11.413720608574586 10.29406322580879
Co 9.18441566129221 14.254149182106849 10.633573079656186
Co 9.398403073125646 11.965773502347126 10.841993598404208
Co 9.194170468959921 7.837790417834328 10.734873719025101
Co 6.936450687097761 11.415181083644681 10.614778726717969
Co 13.4657674205964 11.990648594201236 11.85413793587856
Co 12.732614508535885 9.778247706749717 11.627224832161465
Co 7.153201133834217 9.00266372244653 11.479724720946948
Co 8.849491828074584 4.7393486107791745 11.941974882784718
Co 10.267751268397827 9.82735776068718 11.633402731703224
Co 11.603957087858422 7.739182340225532 11.12405046481429
Co 7.688688142271302 6.676607652526641 12.102027178220046
Co 11.254505609433064 13.522663208311481 11.396769712133576
Co 9.436157411408043 12.859990549649671 12.903163201597165
Co 8.226973412304197 10.812588403006192 12.505338139912343
Co 11.385994622218151 11.58957682785702 12.7293045549261
Co 8.875273811717543 8.58318089236306 13.09834724209341
Co 10.070558891939084 6.677537861176133 12.653196857093732
Co 11.293286880491413 8.719978475933363 13.327840589955938
Co 9.883483285999569 10.516115553683436 14.06549412735957
