46
Energy = -271.02660621 eV
Co 5.8979065294454465 10.04001995904752 8.622809649920175
Co 9.298163973863096 9.365747061000082 5.290896492789156
Co 8.464896843918355 7.560006484233676 6.48803686727303
Co 7.545198612589159 9.619194789674806 7.0108049202192095
Co 6.33480055934866 8.648346165648897 10.544446054467166
Co 6.854992273683061 7.730036477019159 8.366115078522537
Co 6.870801314916943 11.081604666184155 10.576962438027394
Co 9.292847485421685 11.256402168055189 6.655470079730047
Co 7.75238807071489 11.633114115340842 8.361915920685455
Co 9.08226682730032 7.107883173956637 8.709543421522762
Co 10.809786162102649 7.19318953738657 6.867887105683928
Co 11.530183020855027 9.189931449776767 5.884030038575164
Co 8.120033936662631 9.488613653294419 9.321190421919486
Co 11.458460980674849 6.732983521781003 9.054506832687196
Co 9.891429962900604 13.085362078367917 8.136603374253118
Co 9.850041999035954 9.152499650373064 7.599069288218781
Co 6.657330654787068 7.483082958698632 12.559804695938563
Co 7.113014622590365 9.810059564443035 12.524381034891395
Co 7.452116187370026 6.557745446159397 10.395097172472632
Co 8.65553805587572 12.702013246215161 10.245834143634436
Co 9.976210761197107 11.034081634085963 9.131569661788435
Co 11.505293916380275 10.986163016094793 7.327793029243066
Co 10.594470215610523 14.210316003747879 10.077136221605771
Co 9.943814599731615 6.400748447400423 10.788168638005986
Co 8.581712670567988 8.26056048077501 11.4782614098247
Co 9.496125457287581 13.739209041286648 12.189940622900755
Co 12.064696230521292 12.506795481839925 9.05095563739856
Co 12.196757305460626 8.745191935729675 8.134904487734735
Co 9.12603628561479 10.547937030609054 11.343136287853469
Co 10.372490287322467 8.681475818225135 9.986358232469014
Co 10.89321144720673 12.175833074617094 11.098671241101524
Co 8.650583008512669 6.348200201479984 12.755671142793947
Co 7.887343306281053 12.070315317328443 12.562304078952257
Co 13.662561812757637 10.832117872495775 8.271587820730108
Co 12.154274041224323 10.27542121900665 9.972835130869527
Co 11.598606460558438 13.65069162335358 13.020308611600038
Co 9.240409240347022 9.43845762220882 13.453946849590016
Co 12.73574538788298 13.63221470992847 11.021583883513177
Co 10.630151392501933 7.649638265564503 12.602362974376403
Co 11.29079478180118 9.792588471113485 12.191271552359485
Co 12.325541849625644 7.905973900952441 10.884348569540286
Co 10.168065552722977 11.633207276696247 13.248553923706462
Co 13.972054982692107 11.687646226208532 10.424585584143683
Co 14.057915853194904 8.924134397045895 9.574636463835356
Co 12.67563357408259 11.669548233669792 12.460037462052865
Co 13.68385895601185 9.735165872527764 11.710788357896845
