43
Energy = -249.49053232 eV
Co 11.85184468770864 7.264350095153171 7.481576422619228
Co 9.992476070109454 6.38832998864109 8.802413438979553
Co 13.481855580444133 8.456257420931134 8.694726200021522
Co 10.279971509791952 8.731792401453575 8.325293402289828
Co 8.134564918647706 5.6685124741967945 10.119576652811634
Co 11.732873790617488 7.498835684934023 9.876046442404775
Co 8.272879938988307 7.815931936859608 9.313597829446193
Co 9.7315944274369 6.990572443378442 11.081551320244017
Co 13.02638305376316 9.002175662638269 11.123972926428182
Co 14.432179101905346 10.295630145869568 9.825994781118355
Co 12.060541626708872 9.499764447947204 6.9427278596135675
Co 11.344794451753486 8.022997775672527 12.482752270530197
Co 9.850126559644076 10.453903288018733 6.695849512406181
Co 8.042949118127762 9.641172943980882 8.086249504381724
Co 10.475016630465637 9.366030399527178 10.766376431469919
Co 9.76550061774083 11.047245807043696 9.019679638329418
Co 7.4097029350430885 7.576289091091105 11.378225065185925
Co 14.3107330497049 11.077933015931201 12.09210746674046
Co 12.117072921692799 10.278550774898996 9.090298180433766
Co 12.903783501898328 9.66477876942283 13.353813817111583
Co 11.420013649075784 11.96404073622591 7.54927760535529
Co 9.012448827562427 8.654393927269295 12.598078444650177
Co 12.115104331952814 11.100936839147582 11.393355695752
Co 8.04957416605393 9.901927905913812 10.638488623621356
Co 15.452596387360561 12.245481412194518 10.444435717176342
Co 9.667615175904855 13.340038212158484 8.357288590678708
Co 13.497427978273654 12.22738254602481 9.054200482531883
Co 6.610134239997655 9.350049052599221 12.573079510433947
Co 10.693245196775154 10.299328378288209 13.106198733178
Co 8.080753981500207 11.870517189231107 7.52559077998012
Co 6.4258310159651275 10.874599693325885 9.097355976212082
Co 12.428303112662002 12.00230324334323 13.50204690494475
Co 9.766725736536735 11.756598960002368 11.369493710830483
Co 13.437017931530823 13.049532451572725 11.24168977476351
Co 11.389169120304343 12.767745589271096 9.787866325470423
Co 7.980484366953936 12.351717363818448 9.881373745192588
Co 8.273579232680627 10.853649716555324 12.979211050397884
Co 6.486164124435412 11.43310081528311 11.478104220896686
Co 9.934688053805028 12.491213667154446 13.666480080261579
Co 11.314411627631054 13.50014068708897 12.079025755076636
Co 9.538594891446664 14.036818198535046 10.64782611682219
Co 8.066887791508394 13.075587434567922 12.239727824855434
Co 9.57427935740671 14.695662475200926 12.929237155864264
