49
Energy = -289.97276839 eV
Co 13.40134657412629 12.857006768612337 9.724838160360209
Co 14.322198066383956 10.54641455883993 9.952459436642828
Co 14.310169851629183 9.49003134476854 7.890992076415829
Co 12.587597195179882 15.046493107835392 9.48867679780448
Co 13.702226394795511 9.23050713864808 11.93322117949128
Co 12.660477962972026 11.082019840630617 8.316465264209553
Co 13.662703610686515 8.215592184834815 9.747921472663348
Co 12.987351644770223 11.573070319986183 11.635165736028263
Co 11.799806501449392 13.361443377227806 8.119472847496914
Co 12.021838199306979 13.823574840288568 11.370988155944321
Co 12.698071657394014 10.532014877391706 13.713817714610359
Co 12.908211725428718 6.999335963747741 11.661034777216724
Co 12.644783924511254 10.018854073743585 6.17105633876849
Co 12.05347575613099 8.758482277137876 8.047577964904164
Co 11.691415163838151 12.699786442953096 13.361624489888873
Co 12.043675220641878 9.782102661051681 10.282534780471403
Co 11.092160899402517 11.62035298547402 6.640187367152641
Co 10.16354831628784 10.280024711020793 8.585765273466302
Co 11.11161352669982 12.091727478122277 10.049742176671023
Co 10.397581515718805 14.319453845276279 9.781480641229832
Co 11.586287624049184 8.563594337395614 12.741021612360969
Co 11.507426361534021 11.744116181239203 15.423677333722909
Co 11.458058953993138 7.329019538171389 9.888069675811941
Co 10.835796577587988 10.833155049753879 12.255021814938921
Co 9.597879804759286 12.632176696449543 8.152955829223524
Co 10.397096157886086 9.363790593886613 6.431221619041925
Co 8.780427320384256 11.278880870071175 6.455007243481164
Co 10.65790836330064 9.824055533061033 14.535813182177307
Co 9.817404285548312 7.8697643472202525 8.148697779733979
Co 8.156636202302586 8.957873640507808 9.56444195011183
Co 9.990681943404281 8.833389612855362 10.935876754716006
Co 10.455570249031782 6.662932766974643 11.945289505939158
Co 8.064063294204477 9.240777145367726 7.296195466647924
Co 9.599366173098144 11.821547358884361 14.016884489404262
Co 9.708449178742764 13.017706654173097 11.886348367501014
Co 8.870277255007046 11.031792314748753 10.74855769068625
Co 8.308053468892119 13.200696984019736 9.935116553563613
Co 7.745609388861154 11.192017656403419 8.61203021980376
Co 9.695055746923725 7.705367357019386 13.90646801330176
Co 9.04306716458538 6.753042134985615 10.01624821447513
Co 7.500313373805804 7.160202880951184 8.210781589557802
Co 8.89059165039743 9.664727666975905 12.966001117665538
Co 6.051957574736216 9.770861434838006 9.324955702887243
Co 7.680741124543752 11.704510877546294 12.686164201817707
Co 8.232622305387492 7.62165275797588 12.017781574190316
Co 6.560488836302406 11.75998060592524 10.597775937210406
Co 7.416059269990422 13.77223717379873 11.88983721261737
Co 6.986810499977924 9.635807137927687 11.511802434685327
Co 6.552861401302756 7.5337851449727 10.35748787104125
