41
Energy = -239.27421925 eV
Co 8.445673952737097 12.79265471610424 10.08810096528196
Co 7.473350098513716 8.028578269763102 9.174308532991734
Co 10.553224090138128 9.25199676739422 11.365228365172571
Co 5.93525865661543 9.475063409793398 10.664960389531121
Co 10.69885013412181 13.24707276114747 8.7821139187415
Co 8.158631066867919 7.443733130411019 12.999100799817217
Co 9.604039931512068 6.509857777043755 8.68317280601714
Co 12.955241917695579 9.285078960636229 11.328070884334629
Co 12.589213815517041 11.830388515457164 10.084374005048833
Co 6.670221155248434 9.401530189840868 12.956210924152957
Co 10.986664740167267 8.63960445486494 5.636002013349619
Co 14.106940980045884 10.258725421305114 9.086578269459354
Co 7.792156210152296 10.598014508947593 9.496728491244534
Co 11.91791677689478 9.64355166846797 9.319718562647694
Co 11.421750879718097 7.4189517735717825 10.227554111170226
Co 8.859637341938795 11.978927642707298 7.864831059121495
Co 9.26750203224453 9.464270798219234 13.38674741961873
Co 11.644111131639395 11.202562447517671 12.02525173061476
Co 13.515208462002418 8.004286386768317 9.2679319033983
Co 10.528112231745604 13.086841941288084 11.203065189386503
Co 11.417899885215242 7.793775751324186 7.8606522276072175
Co 10.479891670008886 10.144173129859178 7.370208894871114
Co 8.049106290901022 9.791136242660835 7.377370105171949
Co 12.175626347052853 11.675004438023867 7.842231246841793
Co 9.074220140303995 7.066366048562579 10.84019433170802
Co 8.489267982400651 13.253407984351414 12.499388593528016
Co 9.3167130641452 10.424185465489334 5.467689478955542
Co 10.536022919447754 7.406281482639594 12.665081839799925
Co 8.139404882966229 9.12513090937826 11.25901029876423
Co 6.605646833568688 7.341561796569913 11.26811162745845
Co 9.218929270819004 7.945829894291827 6.918160667993113
Co 12.9314076469631 9.521534294574877 7.19185486193294
Co 11.585794978386051 9.434705616112383 13.487237409491028
Co 11.855211210655135 10.733900535917941 5.498577921213
Co 10.250797898217732 11.211177579080873 9.639895595985328
Co 9.600563157228281 8.826766172199454 9.159163927952076
Co 6.900663018002327 11.451261244342753 11.540143578575144
Co 10.508487585207163 12.385458794714241 6.38987700262509
Co 10.205541154551765 11.605969815546777 13.771537583943438
Co 9.191820532654026 11.223398538474136 11.74076322038905
Co 7.812284683673239 11.350084603261932 13.690563858495317
