41
Energy = -237.90806112 eV
Co 11.428323696515745 5.976820166530177 11.877608203748412
Co 10.887714459549233 7.315704984194323 10.098440723372274
Co 8.701551958030596 7.91004543752824 10.313025878917287
Co 9.238168814585828 6.448005578132039 11.970032678527486
Co 10.947990733792492 8.808564568878158 8.181515717815216
Co 10.573654488164433 7.812669492326973 13.303347554940576
Co 12.422599081182266 8.009285584188644 11.878273163958303
Co 12.371261432011606 9.384860359212189 9.93919104829378
Co 11.738057665028137 8.972082746255678 6.079271322985832
Co 9.505564663685318 9.527417953031595 6.375280269555296
Co 10.409929138258104 9.335019936942473 11.46758330187321
Co 8.12422832970008 10.175565184748102 10.667664109957954
Co 8.481727804527337 9.284390078231937 8.454514863660023
Co 13.088377535505643 9.92391265579423 7.796882646894021
Co 8.4004606459904 8.652448710407919 12.557731651244316
Co 9.407732135690253 7.185878207033729 8.190808180249862
Co 7.2995451312711 10.123589457405394 6.6100283194916125
Co 9.768798661257009 10.124573700057622 13.699087033350462
Co 12.065529342436962 9.848450478370356 13.325114285245304
Co 13.94894608773295 9.794018350858083 11.807420740287915
Co 10.261351844401265 10.87431096670969 9.500881295839145
Co 12.049193758067501 11.250697318245653 11.38271234778215
Co 8.971527833419508 12.401964496959708 14.04796738965552
Co 8.847077335480021 11.545360567713969 7.608349730276419
Co 9.6273758996796 11.661187982622325 11.871302158321207
Co 7.572052204274276 10.891184555623324 12.833753210282142
Co 11.113798911928814 11.04696398801453 7.155853284174043
Co 14.30508727504028 10.742679640282647 9.732039068986118
Co 6.94997937055793 11.002921079075112 8.821465901514147
Co 11.276582264932458 12.072306867886164 13.545841586028288
Co 13.6616154048581 11.832693966494734 12.965178493473761
Co 10.456222962384773 13.090762838078117 8.222384582370974
Co 15.501739182912093 11.538493577682303 11.590458410128418
Co 12.376555568524958 11.819275436837279 8.9764760208985
Co 8.51115837475769 12.495910373472974 9.852084431829855
Co 10.913021572663316 13.15403166369913 10.46340299740304
Co 10.01879647889034 13.92059077050977 12.533678608581319
Co 13.758757757933715 12.77104348594483 10.754392648693983
Co 6.457698240737853 11.837069245142446 10.990758163758667
Co 7.856490561703908 13.227887341693389 12.085262114395368
Co 12.312846754792108 13.70609284363172 12.285544141275528
