40
Energy = -232.86198687 eV
Co 6.4075244102549895 8.328817324656981 10.509686837781775
Co 8.037537431413623 6.915868081311931 11.861101991267757
Co 7.015859427778009 6.699352015821724 8.969664539881164
Co 7.327368926248931 8.945195548522433 8.113474776771746
Co 7.9300201225589015 9.243359249919004 12.068882450147223
Co 7.069444718607577 11.47379541812139 11.879947401218706
Co 7.650852464674874 10.338173123041857 10.005186333777768
Co 8.052415467922183 11.148567414864283 7.7571855692963165
Co 10.340897539783644 7.134944912994447 11.301509752532152
Co 7.321567012682389 12.637368592853138 9.686783749208692
Co 8.920741042228064 5.7483099552830375 9.904482504886372
Co 8.622126663730459 8.048825547469752 9.964582056464137
Co 8.917881184609556 7.385026409612784 7.672535507095928
Co 9.417679105057639 9.329761479563125 6.412250499020371
Co 9.209344737143468 11.038410428623285 12.938154016264525
Co 8.933313861366566 13.35775973694758 7.656406948154383
Co 8.837446196557643 12.91346398293597 11.56937578072452
Co 10.104867178256026 9.705390401389332 11.105309957272308
Co 9.842323937085808 8.522682131029656 13.117554597385883
Co 9.746105812263089 9.586099793325774 8.64368236699352
Co 10.31509073747119 11.47982880606746 7.2100090062550635
Co 10.973166157062874 7.371028231647283 6.6199021702116205
Co 11.851410702855485 8.711172155962053 9.77388120084557
Co 9.466248369563658 11.872753980553293 9.476863037892814
Co 10.75096140986444 6.745844623471331 8.901580237918017
Co 12.075979602982414 8.441018480981096 12.111854707517177
Co 9.111975943327348 14.297192692018383 9.718443350812146
Co 11.440835185210885 10.438036041660446 13.070426328241172
Co 10.61533781991195 13.029806180520788 13.188646525829675
Co 10.99335703727014 11.851959470668435 11.265510478905314
Co 11.680475910638139 9.399242699294476 7.3536691943642305
Co 11.782225001308566 11.125942171984166 9.048639815048269
Co 12.839507895878176 7.469934378738968 8.08332270017162
Co 11.040123608402011 14.142799441164227 11.120540722342204
Co 11.089650880737711 13.392382813121186 8.8173584187808
Co 12.420717718735458 6.586708907905419 10.466768009888867
Co 12.813702297472814 12.296868696052451 12.601592851160142
Co 12.923065613363997 10.453870191424095 11.055179622430815
Co 12.868888553520419 12.821475507377727 10.287451220055734
Co 13.599284881296347 9.769987524909093 8.787237738814675
