48
Energy = -282.56875855 eV
Co 14.0103915678104 7.640150482772705 12.856999717802427
Co 13.125031616848533 9.017598167188513 14.473885260555317
Co 13.829494151311717 10.067558083725581 12.380035593315977
Co 13.56405282246649 8.565071591977173 10.624290701678122
Co 11.723337959980338 7.18739304437581 14.121474512451968
Co 12.602588648787634 6.50714533801818 11.380277887523848
Co 14.20053433108096 10.962983470710073 10.161783392818403
Co 11.910574202973136 8.61268390413924 12.401518410159856
Co 11.74548745260154 10.681984348526129 13.518630409686068
Co 10.908851792437162 9.240458477823418 15.171657218937199
Co 12.938449333701337 12.242029504514175 12.05409911079295
Co 10.464375196462338 6.620730977919592 12.041409683214813
Co 12.047260733886137 10.544680468764016 10.64124465173151
Co 12.501930007642297 6.740394023234685 9.111343529907737
Co 12.699913492032266 9.105033326271313 8.578428470221724
Co 9.702785531831175 8.385698145092851 13.442801047144863
Co 12.20821780728769 12.864286893365847 9.941158238891186
Co 10.276031136693955 6.1812888990846435 9.672771684296945
Co 12.764523138213368 11.333006156528294 8.303304823724847
Co 11.072372076846348 8.230619181875534 10.223899336002836
Co 10.591299309557133 12.367614529874034 12.414614057965213
Co 10.02946954820857 10.029332867543438 11.798072524255778
Co 9.984139195536427 11.976204712940199 10.170530655254412
Co 11.545164066107835 14.316996519596026 11.535239782361892
Co 10.732545740059914 12.317129944121389 7.911985586601066
Co 10.890739520517835 7.892655534466016 7.748414761738156
Co 8.773335929936577 7.929159153423659 11.211667596417653
Co 9.396441111071603 10.754723586223024 13.883825271099889
Co 10.452979798877513 10.069500234406496 8.809573367470339
Co 10.205170932075946 14.146126723937424 9.464489291133516
Co 8.4474593093116 10.04806447621805 10.095844050612383
Co 7.7387449149653 9.6248670073192 12.403737810263518
Co 7.951105965025881 13.164530271694513 9.802710729781893
Co 8.890857274041709 7.990763683504374 8.90126694526757
Co 9.21865164463678 14.015872931529861 11.578225307958355
Co 11.323663896586272 10.163883068806935 6.684746859538819
Co 8.281308031536993 11.80084321479171 11.802438792832945
Co 9.121144362874677 9.372572070814183 6.944275495927244
Co 6.609521034864565 8.715701787705699 10.430178657628847
Co 8.835228253694607 13.650387020700636 7.585267623408753
Co 8.298025774355944 11.422762045083465 8.12737102542644
Co 9.474948458912028 11.591941853849818 6.10609440264715
Co 6.551954326455182 13.096997675272535 7.936286424725977
Co 7.06263070664674 9.312118072218365 8.273247535923787
Co 6.500331650977426 11.167286035088614 9.836274338380292
Co 7.261754199888919 10.5332049240169 6.091993594257721
Co 7.428669234457799 12.766737013070708 5.868156871037294
Co 5.670613884989538 11.074842580628134 7.610977125391826
