49
Energy = -282.77026521 eV
Co 14.477908057732282 12.854084453091783 9.199256479812664
Co 12.471602513641972 9.914794271029795 9.279685483619364
Co 12.72789235063594 11.826076136439678 8.149273351047698
Co 12.203668717760044 13.858915553851174 9.073317404880983
Co 9.940201012860594 13.77706587339508 9.334194250575955
Co 10.275752847830674 10.105864844546483 9.036810409788286
Co 14.462432400481598 15.09515539065336 9.06888592462038
Co 13.668922299095723 14.246721611025135 10.980666987189963
Co 16.23518932529712 11.705623930731381 10.051001953552444
Co 12.340685112742806 15.966668002699752 10.062293554814454
Co 13.635408809576495 9.804915060722227 11.379430278271107
Co 10.822563593048304 16.674270211999513 11.834318229421353
Co 10.552130710835092 11.94166093072032 10.35341819483784
Co 11.088269574165338 14.341390505803869 11.15694268364378
Co 16.028832146968668 10.309277785441239 12.038197560532069
Co 12.763002489142842 11.902845653747692 10.54254157026789
Co 12.037654193002206 10.824874845827864 12.802398445637238
Co 17.245311973632734 12.368735775063657 11.954914014615339
Co 12.304803014102383 7.937627193408714 11.702269940783333
Co 10.963029133894105 9.634152152304821 11.10401834168636
Co 15.9630228626844 14.040048884273624 10.991467991268715
Co 14.71704619021977 12.169700884146879 11.771231442127338
Co 12.427829532105854 13.09689392017627 12.711005279852877
Co 14.355822399645177 16.2200037658963 14.123499581177583
Co 12.805978948900465 15.755390337083655 12.412801709179327
Co 14.326310098030673 10.609466141473996 13.579065662228327
Co 10.704943628416311 8.914281017514414 13.306410308173742
Co 10.096039913087647 12.453452561828003 12.639146474938686
Co 8.746943248427613 12.321247832396999 14.730804332842183
Co 10.563021440386331 14.913417372992267 13.31604472903735
Co 14.718484199015856 14.118053884534584 13.145820126237137
Co 11.675568552076275 16.835420976873596 14.175631282335699
Co 16.114927889571906 12.033510006192058 13.964412793019598
Co 12.988913415008371 8.787772970653629 13.69088960471856
Co 12.905365336328313 12.13802840513756 14.906938575093514
Co 13.143511431752577 16.177666143452686 16.10785906350483
Co 10.4480605366358 10.87574184161832 14.569401627238605
Co 16.927573962400928 14.088804839495257 13.465399618821833
Co 14.610324259732877 10.891241973307173 15.779529532926867
Co 10.810531710156418 13.207612368621113 14.812387954871404
Co 12.748604853842275 14.593070009688557 14.478172345173174
Co 14.7279946393417 13.580981498710306 15.46769255583596
Co 16.44980703199945 12.193610885418202 16.127201783995243
Co 10.937257278466939 15.335359885146223 15.888532556974466
Co 12.347495112313373 9.935633078904909 15.556416746868736
Co 12.485739887400332 13.747054289965595 16.630193101449994
Co 11.34840693027258 17.58575249014123 16.2259032959982
Co 11.119316127629302 11.833776485763755 16.666748186120042
Co 9.611173409277916 13.527560167666094 16.726831779967952
