41
Energy = -236.71359984 eV
Co 15.034104460224063 9.193158930595908 9.296683514151585
Co 13.572318580293091 10.680153445740693 10.20679879889671
Co 13.491674810877058 10.121264189709027 12.513684170202529
Co 13.784358999517847 7.806865146942667 13.140754344081204
Co 13.787770024905663 8.36718323379654 10.963215415795224
Co 12.897937612501357 9.332657053220395 8.496315805377158
Co 11.565805229220306 10.687473872521236 7.085724448137105
Co 12.772248498984009 12.439298606681568 8.71774952935543
Co 10.980627448857073 13.416657185840174 9.97006480252018
Co 11.245480255880523 10.9225734412341 9.37116264037542
Co 12.261370159069541 7.389447672831694 9.555695614045797
Co 10.587420231053892 12.744300578622948 7.775136771703862
Co 11.832020014805657 8.878897565904555 13.632980047962429
Co 11.60942403051678 9.428418088462857 11.173329465784315
Co 11.4886614056367 11.12344472598556 13.288762217988262
Co 10.629141471429609 8.771625862861068 8.340669514538671
Co 12.470708432699777 12.213575840280908 11.361151348038689
Co 11.872895923454935 7.158838987764468 11.976898134653686
Co 9.247490646042216 9.764581568928238 10.195222384881134
Co 9.21099067070139 10.418896282599194 7.695486615009742
Co 9.658943960866544 11.827963523675326 5.925299604399502
Co 7.845567693537395 11.246337610206439 11.436701013877556
Co 10.79163244973686 7.940018933481051 15.456120559910682
Co 10.003979463752643 9.927731133194303 14.720040380274837
Co 9.012309855193081 14.292366744739857 8.887370414835178
Co 7.225444016783263 10.738291212767187 8.97866232681455
Co 9.91416804509862 5.918662097445323 11.837950675891562
Co 10.227531052504643 11.719680549720959 11.509517974959898
Co 9.177361474283217 14.152095271912726 6.445128216973
Co 8.252278052385162 8.349647129321442 8.778667370445005
Co 9.03471949211037 12.054632659806757 9.51707036849643
Co 9.922550477390836 7.508598638534698 13.449934840310068
Co 10.12104798929377 7.552479932540233 10.243362140664582
Co 6.980376883261194 9.177067341587616 10.646403226857649
Co 8.672790160991351 13.486774127439967 11.304117148108876
Co 9.101710823397504 11.801205268036213 13.478777261050224
Co 7.949418433666875 12.501441928525402 7.46424046676485
Co 9.419722385438842 9.653905346217023 12.557494554451914
Co 7.014537444916678 13.144783252906509 9.565071969817257
Co 7.167721180678395 14.621657553908324 7.598352709829899
Co 8.384798652965967 7.746406358433031 11.663290086690873
