46
Energy = -269.82023028 eV
Co 5.012911152807128 11.626614648092414 6.369107744441441
Co 5.712451650270979 6.605939495220843 10.584317661004992
Co 9.138267560532011 3.9290374768209655 8.46850453708981
Co 9.029584911275881 7.724829691851905 4.3984563541355195
Co 7.093874864023524 10.89552883762638 10.333706478476872
Co 7.774744648688352 6.29745496035509 11.75424666886942
Co 10.252246359356608 6.949024027319133 6.28549725170681
Co 4.554374026964975 8.07036075851617 4.2340298596782295
Co 11.105835079410113 5.709269554619968 11.755179670975485
Co 5.351845897061331 10.224566724271298 8.309517378182438
Co 7.865249006200655 9.71019831866665 8.553787674474075
Co 11.26553659299393 4.206712735774673 9.885011413872116
Co 7.112983606013069 12.140337976906151 5.4507401913754725
Co 9.109693134886975 11.708271758179027 9.045508404217053
Co 9.814766607814699 7.61434898295445 11.252772961281478
Co 5.54982053019249 10.300030223930984 4.507858914506801
Co 7.617782526829815 8.710806825465077 11.717511380154125
Co 9.361847827120782 4.72338262073964 6.2126977234431076
Co 8.614344746005067 8.514892323260133 6.591006578140501
Co 10.820079325534879 5.544623299534196 8.06168422326227
Co 6.725875906123295 8.289465470992448 4.9119940197768726
Co 4.068417652264225 5.614087456962105 9.417769249743472
Co 6.02152813712281 6.220889829383512 4.095133457839868
Co 8.359430634980551 10.007755764687792 4.6794856516564485
Co 5.92118826123162 5.793409091513392 8.229491011624841
Co 8.421033516601053 6.083411044441753 7.901568338215231
Co 9.830719672272304 7.807797626512474 8.743600716166778
Co 6.555509645120938 7.955056116168591 7.623348517504374
Co 5.191644296985099 6.60664030353925 6.164240141702188
Co 9.216415582177197 9.71765126870489 10.361613060772461
Co 7.635769090835361 6.24292518678531 5.705761341261057
Co 5.961329619398923 8.861507459273996 10.016701613736707
Co 10.595469906104512 9.243067640987906 5.733530905032407
Co 7.76917785216063 7.440182965783594 9.760945142802322
Co 7.144844733618026 4.3082779467840995 6.990304999642246
Co 4.695023278916899 8.922722749403306 6.388765504944506
Co 11.815645236562265 8.044573208930352 7.623420578417004
Co 11.669977667792272 6.776424163055614 9.854953953352442
Co 6.749546701396631 10.140032205611332 6.435552224886195
Co 4.446269761346616 7.76101345507309 8.545062445794146
Co 7.021870256232981 11.902916306777543 7.968127599759112
Co 9.465901057175971 5.5702406934517095 10.141434336697166
Co 7.304480752688773 4.884446125450526 9.78840761289114
Co 8.900095184050016 11.089232523548567 6.664928496262534
Co 11.464158529137702 9.07177806823223 9.939396028313599
Co 10.35161785763271 9.899444931751379 8.004500825830242
