43
Energy = -250.64651564 eV
Co 9.230357335324328 7.825542444415744 4.508832626890707
Co 9.001428751458084 5.61202549835912 5.55620161018658
Co 11.091739058212132 6.669094508728259 5.730866396208929
Co 10.946979063892654 9.056158298383695 5.768412467845696
Co 7.099776800098953 7.9996870398918345 5.90957068489733
Co 8.615156852479403 9.814556402187163 5.788149510319302
Co 7.909263368430299 12.197032612334196 6.113580108093043
Co 9.227018313512756 7.557203498423806 6.745031583450211
Co 10.26771467281079 11.349203344069664 6.521761081034857
Co 10.014808978464364 5.589872405585266 7.724134044092638
Co 7.655665263963801 6.0768812356811175 7.511514108928
Co 12.262564571487644 9.79128642083376 7.851942272981934
Co 6.489149470960254 10.196454624552132 6.809754116175081
Co 11.518637113627948 7.4572673470363045 8.016725838331082
Co 5.639641240868666 7.298219037683342 7.621109181587551
Co 9.983485558880675 9.363094847987961 7.791309153814787
Co 7.447889065600212 8.623523994410663 8.243348438516742
Co 8.32156227136321 10.97216886539819 7.94137192841969
Co 9.251217026989316 13.087078954664351 7.95403589990592
Co 6.914334477132377 12.652479020612 8.43506675932598
Co 9.261621723503465 7.320179588290543 9.240884567525145
Co 13.268779255738984 8.35707646546652 9.571893518697179
Co 12.591616374064218 10.702240811958818 10.170675118921753
Co 10.941631675088628 12.8954398714093 10.477570711157602
Co 11.02326154912871 6.826803329271876 10.66097228130711
Co 6.819306086817809 6.51524740819656 9.642048653285817
Co 6.70812700561108 10.614092335972705 9.714306532445052
Co 10.741056270856266 11.405284487748446 8.858024009344073
Co 9.030748901238574 9.907645975224707 9.896375683794384
Co 8.644505231299838 5.077593550004877 9.569007308562016
Co 7.5554159196008595 8.456638328730014 10.746769522718468
Co 8.699612780564037 12.175619717645885 10.113776813930068
Co 11.121080034204136 8.961940052908918 9.787492224455796
Co 5.503942809279052 8.517052725738077 9.660513134370538
Co 12.211919512224979 8.794579570171418 11.741096439055669
Co 8.642718053918145 6.525905238125052 11.443150299402296
Co 10.554007557542798 10.851250465687004 11.398149391637286
Co 8.107254974048793 10.47369597237935 11.925702820042185
Co 5.8840961323356735 9.560964457111158 11.857496817412331
Co 5.9914079441598 7.079947801832983 11.770782834645251
Co 7.736915727277533 8.288331210596187 13.024835699171735
Co 9.804507970191557 8.566248821197082 11.812343804078093
Co 5.533287192378842 8.202601349725395 13.638623939663983
