40
Energy = -233.19922327 eV
Co 11.715279201355054 6.274655990327092 7.053559946001983
Co 5.792517010485019 10.08055022275572 11.031993656119129
Co 5.613755967027828 8.890291360976121 5.007570946858327
Co 7.870005634491195 6.449339075504303 7.11527193737788
Co 7.918852437946474 10.530951070828179 7.733507780456617
Co 8.002968130356281 10.292113426883864 10.148960661405882
Co 9.682583488460367 11.547767490229225 9.014099297135193
Co 10.25752824625828 9.996479590703666 10.906444929780774
Co 9.98012459961874 8.85952864294673 4.8831591417283615
Co 9.833411817523176 9.254089564640063 8.824037524564734
Co 9.985927581877407 6.7214900035843845 8.375073351727865
Co 11.822130818873294 8.042960943899443 9.134743623074991
Co 8.110618463515523 6.3194545424021324 11.246247437411876
Co 10.091701561809971 10.574409493784486 6.795804073078713
Co 4.168938994030648 10.386866790411377 9.003569052254338
Co 9.411864070184025 4.751461000939215 7.28210071169185
Co 7.88230935374753 5.329160923199481 9.157074290668547
Co 9.80931586890338 6.494259062845652 5.665973036134497
Co 7.822291951749495 5.071501872954092 5.352305711144215
Co 6.28035913356397 11.5601748504065 9.120112603951743
Co 6.516159218793951 4.637008120947397 7.359490902459604
Co 6.259704076176932 7.797026841881117 10.9256642891056
Co 6.127063846620006 9.247840819861093 8.95638161047005
Co 7.980794556437786 7.792795709637692 9.302153688749256
Co 5.830883953622078 6.7346391616079995 8.460857589250125
Co 9.013336054497707 8.472414202537953 6.824092219745366
Co 11.782105685540174 10.399534358874782 8.636063413949238
Co 4.293726845438909 8.078343726533591 9.745556896875602
Co 11.411843156701499 8.628817261736533 6.904956015761151
Co 5.595609129766012 10.493102142181883 6.9711412875954
Co 7.74814734762849 7.57242750982313 4.904949683928393
Co 4.476934390269511 8.452541447933287 7.368658204445587
Co 8.24818344440636 8.716774614085802 11.734562906397782
Co 5.891520769607044 5.608196712461764 10.419459569060958
Co 7.814663537060667 9.985277016142494 5.429966353034464
Co 10.000090524924488 7.62189580902426 10.629456576118939
Co 6.743084653660725 8.48011987339563 6.866708058540954
Co 5.805619695913395 6.565353862266958 5.980798702730619
Co 11.855025059870611 7.40755813110779 5.037075825489047
Co 9.976366882677524 5.304173919129921 10.113743655116435
