48
Energy = -281.91662719 eV
Co 8.14523289656103 8.182960980828298 12.587818405220325
Co 8.293441535852391 10.174546286637177 13.929752939506464
Co 7.13444105713778 12.59171940049705 10.816256561903302
Co 7.627213082163436 10.432887300961584 11.617084741626162
Co 10.43928523978028 10.853717323356603 14.656182633060505
Co 6.281331570518773 10.590582329273444 9.707630431814785
Co 7.877210596202352 12.331749815799721 13.106849971373672
Co 9.849815693474977 6.672940780744999 13.034100118665599
Co 9.137658998007494 6.919889195630212 10.812136542613557
Co 7.301943844874214 8.424896456892768 10.393704475597099
Co 8.395978116995094 14.120287116083212 9.497357440757824
Co 10.305412853056474 8.915222343406128 13.295130974803353
Co 9.548342873333395 9.188338341440236 10.862122245346088
Co 7.436839258007895 12.240239524446668 8.491296116805659
Co 8.569002333349738 12.05311437900793 15.316828536929329
Co 9.273333416203293 11.88242210096264 9.941114598950882
Co 6.515300151373749 10.528392256315163 7.224036240426074
Co 9.782490955799231 11.182130251582507 12.382665665762403
Co 13.367099930039567 8.233628394932067 12.403331464601429
Co 10.077657646091042 13.005486055102006 13.8008616461373
Co 11.3233116740649 7.619713655891121 11.533406418470225
Co 12.440905967415517 9.674226147215009 13.97257399019211
Co 8.672225958929277 7.606567567913854 8.597639598647563
Co 6.403318030934197 8.478258594516438 8.270566605503678
Co 8.342978053323385 9.924177968301551 8.758212482915718
Co 12.12435603231199 11.82339252532238 13.23928224464345
Co 11.750231115233676 9.99807357271009 11.66269255572901
Co 7.967078371416349 8.82103038398961 6.581580607389731
Co 10.894042824648256 7.901904566463291 9.239498009254184
Co 13.968721134482365 10.540516858199346 12.188780040191514
Co 9.287174819346172 13.469622254450442 11.602146091584151
Co 13.024318227819814 8.654612357847236 10.07209125346794
Co 10.883826842494427 10.336213184095667 9.29493449984974
Co 9.59644506674703 12.95990023865294 7.8287538635347165
Co 10.16412042707392 9.104451810096762 7.354652321891471
Co 8.842608106243581 11.059904602127418 6.744309986140358
Co 11.392264628403012 12.476921284950329 11.148801646791668
Co 15.129647291105265 8.984989631526652 10.955344852470684
Co 13.079384624086728 11.052985851439047 9.945298090797122
Co 13.66567392888514 12.726541449958455 11.640040209702622
Co 12.491768268403987 9.308597760233491 7.913230442924782
Co 11.140640860785792 11.248107524990482 7.135404891519263
Co 11.637442612657438 12.716714709406144 8.885002152588115
Co 15.35163520072939 11.36524415713324 10.365637011805406
Co 14.744766290379955 9.818154119213995 8.764875194438677
Co 13.4122901355817 11.48028153662972 7.65967000877338
Co 13.979267170002075 13.069504897544862 9.30903919178188
Co 15.624037579682444 11.94775344728967 8.153787277109021
