40
Energy = -232.58446136 eV
Co 8.249167456967356 6.574787306944265 4.130908319917894
Co 6.2119087180027455 4.95305043604027 4.2428346602953395
Co 6.021447349339161 7.691511344309471 4.37410612811629
Co 7.987190961204045 8.63566044679771 5.457086365347941
Co 10.301160983210734 7.714273864412278 4.64518119893354
Co 8.521067193432113 4.615920227561682 5.4752584502530866
Co 8.357520402640178 10.903330951748464 6.346747325403428
Co 6.084795744655779 10.147763884765928 5.631617241664519
Co 6.90857168254899 6.227562307664541 5.957861295079888
Co 6.204708352404421 4.138697184797628 6.50423171969639
Co 10.349297533270738 9.73268782946728 5.682052001847326
Co 10.78531126468221 5.471823984466011 5.257424880649575
Co 3.5521346922032344 8.492337929746045 5.895141349838416
Co 4.5929134034614085 6.230739273755265 5.692716375270091
Co 5.61990046435997 8.091772593526303 6.631432056648825
Co 7.5505613619760945 7.444247065947059 7.807336634829608
Co 10.258342087454857 5.031061543500513 7.574341771349588
Co 6.994203054596492 9.677153665795935 7.723367134758724
Co 9.222135281606779 6.711669644043849 6.3637855885215835
Co 6.325999195928724 11.824165512047276 7.741241653683356
Co 7.977247297572923 4.984173953689696 7.831321111570678
Co 5.546469818712033 5.895399296369156 7.988959017238934
Co 10.873909866217728 10.58082615752191 7.838087261038707
Co 4.677007096615135 9.975142515749395 7.599791575299836
Co 3.804581634951499 7.455301094570732 7.97397821306288
Co 9.64388934417309 6.8726030341450794 8.851656640986164
Co 5.606319148359467 8.27023961800476 9.20916177400286
Co 8.66152797291894 10.95816434010314 8.716231600204395
Co 11.167539467653947 7.770084675930144 6.957967094751201
Co 9.28345934933579 8.97635436268349 7.525221545499736
Co 6.4987890495840475 4.33024653101149 9.572801412968136
Co 7.2466521128623675 6.4614793405741935 9.747749866763149
Co 5.041340995319408 6.2380186090348895 10.27399817329013
Co 6.33714480584108 10.474463361829837 9.74368756349987
Co 8.93740396156909 4.898959873294503 10.01773456293749
Co 10.360817510769651 8.968213791429003 9.566178556058853
Co 8.074169645000262 8.849849738187258 9.811435840121282
Co 8.975808413582342 7.08143210638828 11.153579754136512
Co 6.582321638426534 7.874344624927248 11.389146413220509
Co 7.260321306915963 5.429543597545176 11.75169749156937
