46
Energy = -360.55369742 eV
Co 7.556762107638231 5.958204367331567 9.866098689203955
Co 10.004501497507071 10.034510822904464 9.399456253112115
Co 12.187509072830487 10.780897795362455 8.926407774551366
Co 10.543179460809899 4.6443835370219 8.157716055393903
Co 7.727199208318305 9.677976647295308 9.606225928731899
Co 12.705654823287407 10.73806456082117 6.621367844740527
Co 9.074237880420185 9.21597336383937 11.661646908825558
Co 6.14482188061712 11.34077707972634 9.228971281709066
Co 9.237833177498278 8.634695367640498 7.686364250244775
Co 5.247055586245092 6.691418801067949 9.529782061948476
Co 8.336866603771666 4.020474342935484 8.906863409230965
Co 5.393231268199597 8.093664156734153 7.023941744248275
Co 10.51569638754796 12.430724136108266 9.125990251083453
Co 6.459667399760341 5.618253019708141 7.701478326209063
Co 9.472423564414688 13.173575213375406 6.904426482165978
Co 11.155494440787306 9.427734507280029 5.412165648760642
Co 10.24233479735311 10.784891174001642 7.160149484700815
Co 8.655406372088756 11.53262231638282 10.801850057644382
Co 6.019718128791016 4.152727820154923 9.669373466874942
Co 7.141372031776606 9.901524789536749 7.257068340132982
Co 10.30032066428627 7.28648287484118 6.230451990155421
Co 11.020984462501078 6.856145677049405 8.691837352690705
Co 8.323193241839077 11.77911214810347 8.396795201316438
Co 11.753083543449563 12.702727840808523 7.097553475607717
Co 8.292606294945614 11.463220332311602 5.783666903326255
Co 11.62617265445497 8.843900629972975 7.666287521730299
Co 9.923073187705956 5.307252666316993 10.236652455842314
Co 7.101210516408785 7.785391253419135 8.468828007033979
Co 10.663353501319532 7.197485910522832 11.650623831501914
Co 9.895297328667038 5.135680333521501 12.522863545747613
Co 6.5230371650758165 10.371413999144876 11.456314437347546
Co 5.339980360740568 9.143764165873227 9.343375319008452
Co 10.600977710474023 11.817940057627323 5.104227000711109
Co 6.447956992394729 12.229380841263676 6.973522609909422
Co 6.089846470256171 5.7238602639957525 11.627703283294283
Co 11.07138866860432 11.128781482413713 11.162733256291702
Co 6.439355797494562 9.3239269040583 5.21896350417065
Co 8.904720280796347 9.314462670350201 5.436289337095702
Co 7.621064649059079 7.429435925139692 6.153174702705801
Co 8.377520615252406 6.646551862044876 12.033454583282444
Co 4.913533919705792 10.379288367019466 7.338309142217766
Co 9.205466331134991 7.6722190285922025 9.88155718277721
Co 8.01872777067913 4.261777046220015 11.384177535100376
Co 8.890032673968891 6.090344095477565 7.756219926050429
Co 11.593323904930497 8.687493517485086 10.180122010207844
Co 6.712129945962737 8.038190628969584 11.02627596713376
