45
Energy = -264.66695901 eV
Co 9.588827242493394 14.472821662758713 8.167121188649439
Co 11.425331738392567 13.922098809284382 9.690070335283119
Co 11.083778034871841 12.616039809578643 7.6654135585815935
Co 9.240214926917401 14.677396118539647 10.452647973364996
Co 13.255080901378676 13.47241919690224 11.034756988089024
Co 10.682554471941923 13.832080507769373 12.058980995745824
Co 8.566527038383555 12.551972957543736 7.411908027228876
Co 7.472482958506502 13.456914091910653 9.411718369504847
Co 12.865486177623678 12.01260084533494 9.045747084029012
Co 9.573403150486618 12.499376987427505 9.557650673512196
Co 11.460375253196055 11.90763584966196 11.040033329673738
Co 12.452963498208756 12.732267935254907 13.0746737927688
Co 9.987844437126018 11.026165603766207 6.443698574252896
Co 8.599315814994613 12.716790765994386 11.71703440002681
Co 12.14542612485081 10.189957274521804 7.129360846543046
Co 13.655241080044336 11.170376834268156 11.141936262466123
Co 6.530609013788845 11.724160822629274 8.069480916855499
Co 10.185365518983389 11.65812486063939 13.085182621379381
Co 13.287330420434168 9.670734231895377 9.330474814649095
Co 7.785760201793766 10.193463278127423 6.5611533711629635
Co 10.964638328912596 10.56726294487481 8.944824891014674
Co 8.479917610286142 10.50470404887912 8.677698797607569
Co 9.870502006374743 8.920655617684076 7.232503343315486
Co 13.944267298599783 8.975400319936998 11.761202898459404
Co 11.6586950010038 9.498239633854173 10.989697171486805
Co 9.69328508701608 8.64622443238051 9.56452513788742
Co 6.14747895102437 9.657651241534696 8.937133427967447
Co 9.43901016007995 10.541185318843576 11.037665768874115
Co 7.185057327303356 11.37414389002104 10.421571811069507
Co 12.279347976921184 10.435644905081185 13.019873627413547
Co 7.957157975976881 10.348274394587255 12.690468095666832
Co 11.711268572533788 8.115861534089309 8.555466755743875
Co 10.129677659599057 9.308323636881696 13.058504741594984
Co 9.626341612628709 6.737264073265007 8.126934726316069
Co 12.17972078559408 8.042794153879303 12.946472927096316
Co 7.5704919883096045 8.98417373446163 10.629590338181895
Co 7.790154901076519 8.237408956325709 8.206348871257044
Co 12.716384577451961 7.407874459211579 10.539888921567195
Co 10.4273063539968 7.51658289572547 11.44927045187462
Co 8.498935076713368 6.766741063263239 10.199195575773773
Co 8.355843019887125 7.900824137840093 12.486703806657935
Co 10.929090136117955 5.970666306441223 9.849191328300922
Co 10.212388451269424 6.819490730168676 13.618539306549852
Co 11.803211610911928 5.778363144176327 12.110392577087865
Co 9.498850572701699 5.413626014291265 11.824660101796058
