45
Energy = -263.2705799 eV
Co 10.521569011797261 8.155888525744748 8.343657009062946
Co 13.483955041933015 7.237197739946119 10.993997887292943
Co 9.45434713145967 6.101592949215177 8.654581816718837
Co 9.353619685139758 7.719480805553996 10.439784528414084
Co 12.816948730850337 8.368148310449723 9.116635472994327
Co 14.73602926183061 9.202529651399205 10.16108920645365
Co 11.334791132410565 7.819370123926343 11.875103263949113
Co 14.402333937798034 11.388581159804064 11.362902831316905
Co 9.242623168010223 10.197535441013708 8.633740936600622
Co 15.43095957256308 11.009974726206845 8.950092804144004
Co 11.076779489123338 9.589050655491492 10.251863509033608
Co 13.116779396264723 10.845066716006254 9.489036936992486
Co 7.28542084113189 8.947087784679834 10.043649595871868
Co 13.038393012409507 9.42688240121233 11.698694274973453
Co 10.974695463458117 9.975545901115217 12.834350469231008
Co 9.205513247119715 8.298807206132656 12.824361552318056
Co 7.470662736710939 7.231662614778859 11.756348009175568
Co 8.31878277572578 12.129611356455374 7.52733574224539
Co 13.096395982967294 11.116867719285636 13.384037445185045
Co 8.960917183260772 10.101370588806803 11.31935856560728
Co 11.427735200610133 6.64584018725307 9.886239041262185
Co 7.435100571555024 6.609961717156711 9.500104057076165
Co 11.843870984961846 13.11974779454004 13.297420075801988
Co 13.991183664836045 9.791389908983454 7.618537775751631
Co 11.990552137193625 11.63162969724613 11.44183452418403
Co 10.062119403520231 11.859226391089509 10.171901794115556
Co 14.291339276924539 12.913189732394514 9.468678516639825
Co 8.221871594354209 8.177066217020286 8.034423952091005
Co 8.094295121760096 12.870251743152954 13.903555984292261
Co 6.920096115733042 10.264688398038647 8.181181143802533
Co 8.63369678178745 10.408712820278287 13.682994356063208
Co 9.854630270852004 12.068508174268512 12.641321071251983
Co 13.261496079084456 13.5390577386973 11.480545229180333
Co 13.042781325788432 12.024265693518503 7.5293315988431
Co 6.961674260040917 9.400935629806181 12.332732565030438
Co 11.635809019548052 10.072624379598576 7.802793850331817
Co 9.69870548308579 14.339476359158528 13.219115233990985
Co 7.3884530718657535 11.74062095477914 12.088824954115172
Co 5.9564050803129485 10.725633149774863 10.5297338776709
Co 10.60315128721465 12.0812412640201 7.796765482613016
Co 7.762019923401564 11.863198058334733 9.702037244070205
Co 11.987665763450858 13.10443922509545 9.365805397437454
Co 9.342787562525702 13.684079531311527 9.08457241112153
Co 10.878593060867308 13.885382964176134 11.248093762260433
Co 8.551983177685141 13.610041703909994 11.305355535426093
