43
Energy = -243.24247185 eV
Co 13.907352288012905 12.12386543365905 9.041813913909104
Co 15.277841238413583 11.27363934238096 7.489053360458066
Co 13.867329945256468 10.356610683945032 10.609011411814746
Co 14.594816710293276 10.627762863859914 12.762322233319441
Co 12.793418926258136 14.815157328879721 11.639522952671001
Co 11.913105605140949 13.001903935826219 12.708234940703116
Co 12.199014471443522 10.645873969753803 12.523837003682289
Co 12.060962799228752 10.697549508871036 8.249566433904054
Co 12.440450891686538 12.8018455750646 7.378944004839768
Co 13.835073632690195 12.538678677465713 11.52384507850214
Co 13.599971705125505 12.336434385322823 13.885228086722998
Co 14.013863667608996 9.62369050037235 8.393124871309979
Co 13.418993213439439 11.072013262490872 6.424274411101656
Co 14.724477198876487 14.110570622959711 10.160693693454691
Co 12.092791877247757 14.941385760535528 13.897646256731223
Co 12.540123510230066 13.984752333998298 9.544067258656371
Co 13.545608031804315 8.609931152212225 12.158902266013552
Co 14.025387888784005 7.9841630404764485 10.026082879639858
Co 12.02330313949188 8.964129452641085 10.054703765000914
Co 8.999908578471889 11.99200359456522 10.515434275836625
Co 8.018030689918202 9.881719997517191 10.165652279742478
Co 8.127256172170664 10.5777596320468 13.33701972067964
Co 8.330386692873356 12.86020671489764 14.08039502100649
Co 8.23973632068918 13.552975946736026 11.93074794675638
Co 10.659758912791402 13.15413617284675 14.869954820892676
Co 10.273160604469876 9.573571993575664 13.685382402242038
Co 9.918295727314126 10.103414733235892 8.892152151374253
Co 10.674184019874728 12.465098144117064 8.907806986560484
Co 9.965106764640197 11.92822776043407 12.724100515569207
Co 9.59460449165062 11.092836992153517 15.224002129504694
Co 10.061824993653222 10.073863591305473 11.318337959132025
Co 8.478037353255278 11.780864987948855 8.421667633695355
Co 10.547264554142625 13.843401331492862 10.907744203670967
Co 11.287743294274573 8.110772353724842 12.193000249615102
Co 9.990496222800072 6.469986316535083 11.57554390077115
Co 8.8013212973233 8.407972188567875 12.33312890936213
Co 9.77993097734109 8.089279393019162 10.004550236240146
Co 12.453458265201672 8.862997452392111 14.08516928914311
Co 9.980364078714317 14.473993155822992 13.078544373001694
Co 10.660004312200789 14.601263126856844 8.62711992204392
Co 11.217231546046577 8.440750489984838 8.005396260355715
Co 7.4453905485931315 11.308928249402832 15.553116752258937
Co 8.802662540542753 13.024063550090174 16.27320293809495
