48
Energy = -281.16712365 eV
Co 8.997683541025982 9.121311003837429 4.735072097637166
Co 8.062937419495881 10.905087563673689 6.469225981611563
Co 11.175526189212764 8.234177380291152 5.591623333993088
Co 10.648879235728938 10.624422797292075 5.969462462893466
Co 9.276494590475009 6.854078167965233 5.71200675786357
Co 7.015046534186671 8.764263688801153 6.342433388532882
Co 12.913241716802693 9.823393346978284 6.297650038258601
Co 11.433368862643738 5.778747359774938 6.194002028607222
Co 9.260328956352357 8.91693756869467 6.909720501812422
Co 6.880581837232522 5.473559024592295 8.749750922040533
Co 9.979114518505922 12.766334491003335 7.0812781649266245
Co 12.865913013950447 7.46338721656744 7.186379233818772
Co 7.61011501528316 9.717804571612122 8.5447812831293
Co 7.867777652368713 12.149848918391042 8.513629253589729
Co 11.440105870887932 9.177611231401915 7.848958075403933
Co 12.003279408027783 11.56943527551197 7.791021881825592
Co 10.521991889923637 7.075979571460592 7.760968026757574
Co 9.247953192879338 5.124322657153513 7.438783061215083
Co 5.889120646897558 7.748907548225858 8.192780889395255
Co 9.716436778785095 10.834841029389688 8.133400968394156
Co 8.08202273009187 7.107474591359593 7.798490685728797
Co 13.439113645030028 9.876818434002908 8.814666993656614
Co 5.440736623797218 10.144252626275984 8.17759775483477
Co 12.064943743094444 5.800393208432866 8.743850684484805
Co 9.634636642584695 6.0213530149299785 9.58685473958646
Co 3.929343810911772 8.468785159102259 9.304056026505402
Co 12.845280706262303 11.780794492492628 10.150889689319076
Co 7.558456227066392 7.055272722855509 10.208181554920735
Co 11.25789388739005 10.250929296148774 9.868552392142341
Co 9.376546262897557 8.55625167259901 9.554942050052528
Co 5.237321279533283 6.620884262748439 10.21346552872787
Co 9.002316027499415 11.02575412239924 10.369099327172131
Co 10.614770630861726 12.542052235258716 9.470629411008082
Co 6.013953647273573 8.902608416787775 10.219793028749638
Co 11.433758104705317 7.657924729303059 10.137282798768934
Co 13.577011814255087 7.634199538287717 9.38785308134325
Co 6.6818301532085576 11.179932081748317 10.348948772676259
Co 10.809118162629355 11.637183205218289 11.7256322935041
Co 4.371503678173213 10.488007755668313 10.494779306822712
Co 12.892437433487126 9.30088872539636 11.073922951945246
Co 9.376212289364313 7.195917588536805 11.640451605909712
Co 8.058232894249342 9.11276784050675 11.528492739387124
Co 4.252070596153382 8.414881725876354 11.676927506844725
Co 10.440450583675716 9.307669563351345 11.76102935677369
Co 6.4272607216110815 7.578843164555967 12.179381516029926
Co 8.037013915091855 11.188210390806736 12.429733178970949
Co 5.968503731165401 10.06569056071593 12.377100646417485
Co 3.787574909496606 10.376020184242607 12.710677748235312
