47
Energy = -274.80278878 eV
Co 5.829489037032805 8.330233432921887 12.275354746189292
Co 6.589277466137154 10.538527352812196 12.360439818759344
Co 8.045365523619802 8.684768806513473 12.738547545726624
Co 6.3321836328193815 11.534078240290121 10.222640466127363
Co 8.751940922732123 10.887701126613768 13.279292900642643
Co 6.447031702684777 9.2487079979517 10.279221660369846
Co 8.022659093001927 12.494428378569483 11.591828428189379
Co 6.2484314027259344 12.52195559469837 8.038864401689503
Co 7.599189608190751 7.371549869481962 10.90011397247209
Co 10.205132224708667 8.736622329230958 13.521170267950778
Co 10.928168811338077 11.045842931781568 13.907446731775698
Co 6.6934541909965946 10.130901627285196 8.111324469649238
Co 7.248158888044734 13.740055346073705 9.842445456055463
Co 8.55463134263226 10.276954629442287 11.028841526916064
Co 10.28544592446605 12.123528912682033 11.750730061571005
Co 9.792891363486765 8.151578454771137 11.097247823221153
Co 12.541009949107115 9.42452518623501 13.766916149402038
Co 8.456901871226686 8.86904731284634 9.122464751984685
Co 8.259586474251327 11.59738068221767 8.924414415180255
Co 9.72039083944978 13.29824451154825 9.784236106643956
Co 12.842226704446174 11.511455487050352 14.993568692873637
Co 7.79127209070809 11.727931074770652 6.559861996626539
Co 11.137787354749817 9.92740481365117 11.805787216161487
Co 8.320390629348616 13.708464818182536 7.822681679854951
Co 10.021297280626085 12.183213805213887 7.4633430158564495
Co 9.17266548812336 6.658661089335966 9.30238643603916
Co 10.448641960043947 10.742636365878631 9.588450557763329
Co 11.777703281845465 13.752678625308807 10.815996641314204
Co 12.125089434811487 12.82188350383349 13.054417911558675
Co 9.226414131619535 10.014710986921143 7.300464082429468
Co 13.820181467942177 11.265009668655429 12.967832181862121
Co 11.957221457447815 7.713129963285241 12.179811079685987
Co 11.319949312177771 6.770284065199035 10.0860054943991
Co 12.600665875585717 11.553211035860485 10.852569496266252
Co 11.824894996348846 12.563537082087285 8.77041413126448
Co 10.606629289330993 8.287161055197107 8.245582489366603
Co 11.605176281368813 10.35559491049868 7.583423147976947
Co 12.288526287181096 9.079995997336276 9.646331957756798
Co 14.025236612668449 13.24447226201276 11.833160342908636
Co 14.876927686396115 11.123554794206338 10.729925688298447
Co 13.941862365855398 13.158093408329655 9.57373525470167
Co 13.617665624803132 10.99670433481895 8.728575310380942
Co 13.492685552832693 9.027356582009777 7.460250284976277
Co 13.56748795970593 9.351479479925805 11.609917903761225
Co 13.614105102152374 7.2423815462057854 10.48822094403324
Co 12.689265392869585 7.0989147110092565 8.316294570882164
Co 14.660083860577947 9.065963773319876 9.492234696470529
