49
Energy = -288.59284494 eV
Co 13.183492930493198 10.52330694946593 13.375225341385603
Co 12.76395563059283 11.984683944915313 11.44496638206195
Co 13.74302678185659 9.753952723010912 11.193798461024342
Co 14.614452718960912 10.609357435484066 9.14824285843609
Co 12.78453664389618 8.316414296888443 12.832209290388928
Co 11.368838839240091 11.934562551114226 13.491030190426406
Co 11.137529742648837 9.40250767272521 14.180895583643595
Co 11.296447727717533 10.098545759447383 11.923595251225581
Co 13.45710178700756 8.503527063888763 8.78757461690118
Co 10.917956445962538 13.414745804215789 11.852472039446438
Co 12.062896271005691 8.14122103064803 10.565261204275204
Co 13.317909239010698 12.529202357733672 9.29909957397604
Co 12.94506137112029 10.923554793482086 7.433463058098177
Co 12.309479305656057 10.42050984010578 9.560617236715549
Co 10.493442430333696 7.814819764477431 12.592593384457226
Co 9.44488268763143 10.764717798446364 13.563556700979655
Co 10.149748021071485 9.579014552320782 9.753402797727377
Co 11.493809924511611 9.09146422845455 7.660158818812598
Co 11.884019330814123 13.068336002790518 7.6476898000567495
Co 10.861983878904866 12.176525441092448 9.826395251632452
Co 11.528792541655212 14.349421628621448 9.707196410493312
Co 9.128358339885024 13.839530591779486 10.482405357049343
Co 8.694665683586404 8.568914920451293 13.902583278282973
Co 8.897495687412466 12.977837884714942 12.956748678231135
Co 10.422981792683577 11.182446114268544 7.753755672272351
Co 9.708536242593556 13.503900886089117 8.160651680832668
Co 9.183669877720398 11.510890167723321 11.217385161474601
Co 11.498140348916618 6.908481809666544 8.553270223979647
Co 7.322847803647997 10.820116005473627 12.75152997681525
Co 9.397272450835395 7.910635860278564 8.11912997695445
Co 9.98681532960731 7.232450715601508 10.379621930052643
Co 8.277294346938884 6.962658054110359 12.001082313674674
Co 6.649303915744203 8.687665055870804 12.05253110707609
Co 10.82213894492837 7.358850912826033 6.305065252206514
Co 8.859238492798891 9.2357657635702 11.708018565432347
Co 7.178178997404793 12.719486357528853 11.31867494829013
Co 8.1421393028786 12.196830021648822 9.172754275253332
Co 8.228350011709832 9.976760081419064 8.453510320746915
Co 9.429352680776072 9.54612153658742 6.366700629372183
Co 8.330272809149642 11.680041043235152 6.851103792464173
Co 8.35225530822598 5.980517616679928 9.397733113733782
Co 9.52842437327238 5.74725096688018 7.407666960297303
Co 6.998672836318582 10.46504023552581 10.444925321977989
Co 7.69441266129909 8.105486367830188 9.989906499863297
Co 6.283723147735405 11.256719084351742 8.145559825882136
Co 8.503144777939596 7.446460581924896 5.933896874529034
Co 7.180424412928028 7.2721227369363985 7.797245621969428
Co 5.993857885489276 9.06706487085989 8.769289334975001
Co 7.114195195205904 9.322070181629792 6.576180725563252
