42
Energy = -231.76014527 eV
Co 16.399055510689617 17.667869939693865 15.569115385371902
Co 12.657155440610126 13.183540431124763 19.769012765596734
Co 19.34130630460069 18.565013492412863 13.08244517263126
Co 17.4570690113166 15.464620002930841 12.855128232929266
Co 13.522350117776337 16.41708552712597 11.604482456863598
Co 17.027802354893637 13.471301246885583 10.97271692315374
Co 14.053120581855737 18.26507473247199 12.891809733616293
Co 11.766707713441127 17.554117930408967 12.734499663426623
Co 15.289284288217521 16.159602315136386 19.40074279959783
Co 18.407409484865052 17.16246210486936 11.503886189754713
Co 14.760027101774112 17.49905355294684 17.35665897906792
Co 14.15130609336581 14.818003045662014 17.893513869542595
Co 14.01301857158461 17.85372080600139 15.169315846256556
Co 14.356457900062606 12.638420490024128 18.259801073709962
Co 12.556876587291024 11.180609455999456 20.918807071884924
Co 18.586015007388077 14.344925766335257 19.19897302445796
Co 13.10398417657877 16.666297142585538 18.77784404427563
Co 17.51492155399572 15.691943071691334 15.148512530993553
Co 15.336482070898306 15.02272261662162 11.673090794653536
Co 18.872455593587702 15.912786204321426 17.043034401342737
Co 15.40026832236115 16.36006132381282 13.660546962532406
Co 19.063370845326165 15.01201634013488 11.401941697512042
Co 14.974474170396562 15.527977954787568 15.703599383808449
Co 16.81115937001915 14.92469743951937 20.771719567841785
Co 12.857220941618946 16.05979904954312 16.43084096545858
Co 12.50437069065334 11.273880479121546 18.620249333892783
Co 17.08718199389298 18.034373935546615 13.395747205531478
Co 13.055643945291997 16.08653785491381 13.84423103295267
Co 16.44970384400119 14.062435449428724 18.677734829092838
Co 12.373674063530308 19.198732008756135 14.309296261434016
Co 16.550995450136227 15.971683231660476 17.338597634850906
Co 17.736683117552964 16.46723480393051 19.221722602614893
Co 18.739976044410938 17.67986214127208 15.149996283837488
Co 17.937066944287647 17.96915826961042 17.308186165172412
Co 11.450184270219955 17.303667011882172 15.082776516221877
Co 15.787238843042898 17.26601858522077 11.496256348245023
Co 19.656860115824596 16.302605838360424 13.378644484374217
Co 17.10812181872587 15.624853960604392 10.24978502874637
Co 11.691966136698372 9.539137211642169 19.88500108522538
Co 14.695611832679207 13.98434404667956 20.20633072454513
Co 12.572031816724316 18.276234855529378 16.984095928721267
Co 18.68349173421593 13.895959831161596 9.548402665794598
