49
Energy = -289.19192631 eV
Co 11.265705529521698 8.765971169458602 14.263837030098923
Co 10.917573544667684 11.962602997122884 12.068593840421226
Co 13.233772703216905 11.861998222153602 11.476425123819038
Co 12.252203916495237 10.08022732434357 12.628648650364326
Co 9.766365815513796 10.27516740424789 13.30916369275928
Co 12.993062569179337 7.906132364090703 12.295451213237172
Co 11.404670812911247 6.644711366853507 13.633539852256556
Co 13.724865870454984 9.638960405168373 10.723859369759335
Co 10.198959614591342 14.080885108872158 11.502897159878
Co 8.612224375168417 12.16473056735895 12.40581208368757
Co 8.97943104219828 8.10776864956082 13.480478280927377
Co 11.77632867350706 13.111044324548109 10.119050868596519
Co 13.123595527007309 11.483456589813724 9.069281075676805
Co 10.707481154151296 8.326378456893574 11.91211274980518
Co 9.263108013253147 10.21508597744133 11.082794958654441
Co 11.551237566673501 10.360582217238138 10.340458369146422
Co 12.245823557783721 7.959280513348606 10.05879913748542
Co 11.737259942095784 6.107512207974372 11.35792345934733
Co 7.42491850521072 9.64539200632735 12.311460312244673
Co 8.06288898954267 13.866541290033043 10.769767080560428
Co 9.990767483532107 14.294626177339696 9.027559570283756
Co 9.604697860038765 6.138764142793063 12.306204568457845
Co 9.58309184509783 12.263316046219778 10.00783606118534
Co 7.226059667565925 11.585685320912425 10.653055099847574
Co 11.740171265213354 13.048137047311101 7.813220005891177
Co 12.894694749616772 9.311424888626776 8.320567830090978
Co 10.975101394564089 10.765601060372697 8.041544203553157
Co 9.523925517457059 12.64321764408163 7.402081699381273
Co 12.004218512525592 5.832863171745169 9.039334618451013
Co 9.976790576347696 6.526848734818705 9.867196622178904
Co 7.639844609028721 12.939869188957726 8.698764899686163
Co 8.588009556014418 10.733820644618888 8.4750375980861
Co 5.431630991690299 10.040068962235608 10.819466086017426
Co 9.897554492108842 8.805876136636229 9.375347927726466
Co 13.063142288535214 11.126645531485098 6.745075145962192
Co 6.159938592659195 7.8029852296214965 11.020995968452924
Co 11.355902496546888 7.647433339643308 7.8215799433775555
Co 7.368140257308201 9.341537523827325 9.809162160604052
Co 6.115078069585682 10.983604588807278 8.629725958185292
Co 9.601462872177132 6.153842839417346 7.657806568209568
Co 8.457129460999887 7.780703272394513 11.197190920673867
Co 11.129258917444412 11.77826091288928 5.8151215605144095
Co 9.277030367020677 10.485095610651896 6.211600566735076
Co 7.31031679663577 11.624853822338189 6.716908914649093
Co 11.522146895140882 9.342116420842563 6.292209370451749
Co 5.394103033186137 8.621212941569869 8.921120903221322
Co 9.272320658142492 8.428182388672068 7.148276769268556
Co 7.098538309772212 9.260468494608878 7.367689063966442
Co 7.907088848269346 7.326682606321392 8.80288257079918
