47
Energy = -99.73429987 eV
Co 9.174926819082701 11.889716049621317 13.441453568689408
Co 8.295743469203947 9.376008283278098 8.150881620430235
Co 7.622294687810636 7.379450657195454 9.53466158399531
Co 10.675324112877869 8.32564725011701 12.489795285984865
Co 10.203134523496994 10.882750311109131 11.63989929589906
Co 10.570404579671642 10.104999296698798 14.247314514405886
Co 12.890126412419791 13.817605609752398 12.694139992596336
Co 10.446426871957804 12.635485982706934 9.786967658558687
Co 9.037631447673995 9.101835541796264 10.612112939293125
Co 6.467130901450377 12.048759833510344 9.862617294262321
Co 11.974782786863598 8.212039492897572 7.9923128580541185
Co 5.9955573011962535 8.239802289877593 8.141885812893454
Co 8.482997371979936 12.914917411620912 11.297385064139833
Co 5.352404317806854 10.50523756222502 8.209328936117979
Co 12.25314281171074 10.83557563738844 10.254883643855091
Co 6.7188638473405495 9.537193437786332 6.419241954399729
Co 12.354048165989488 8.312145883419527 14.08534933707412
Co 12.286201074884838 10.152877850587458 12.608201514637548
Co 12.688007432202753 13.115482571216454 10.491965807991008
Co 7.562021888565392 10.860488061029738 11.779351260502208
Co 7.962742701775566 7.399206822507882 7.108343621505299
Co 12.823713702694137 10.450295624493704 14.969067455773803
Co 13.68825202431861 8.929656170806878 9.66346675509721
Co 10.728097655621038 13.200083581947066 12.00144714993849
Co 14.344825684686189 10.369888078734034 11.37266571670312
Co 11.256215830044228 10.570988780226354 6.4492579677928195
Co 8.265504371262274 13.406289855889549 8.926411672595297
Co 13.297864493155382 8.168517553611238 11.854636966222857
Co 14.370994740219524 9.424889751676126 13.563816452022543
Co 7.315258738229708 11.537896515372243 7.697148574768382
Co 9.299533010826094 6.9445288946648445 11.225429695304257
Co 8.723902100062606 9.395302797316198 13.084370919914972
Co 9.836952375284875 7.617023419807794 8.910376559033836
Co 6.664656599860688 9.650355046841723 9.945693585214947
Co 13.820700421230505 11.8345542232661 13.302719318615452
Co 11.537430885038626 12.172002180720078 13.871000764000776
Co 7.240390274314369 8.20428811773282 11.753576144820569
Co 8.603941267465192 11.23529737254559 9.664496018532647
Co 8.818814680770696 10.50140002127724 6.09327390478456
Co 12.018534803795998 12.321366418087557 8.19258370045887
Co 11.490883160882927 8.495435017396238 10.363957448412307
Co 14.763192857705578 12.678206455887496 11.440260770369663
Co 10.036751114152857 8.592520105566088 6.733091488104681
Co 12.9697809898284 10.280495712713629 7.93563460343243
Co 9.707159342308898 12.028498198881845 7.562361829511793
Co 10.60573771295354 10.118528112837133 8.686553498424779
Co 14.223637913839214 11.691106431871145 9.355247751376695
