41
Energy = -237.42922291 eV
Co 11.330521918181766 13.073476398067003 8.9743662354084
Co 11.077084298678994 15.43246107776783 10.194425985765564
Co 13.336612550653342 13.829991546454465 9.892112999330529
Co 11.611592125092946 10.66690090289298 8.600433475262935
Co 10.14135026386707 11.580366977715089 10.344052097117373
Co 9.356060964281035 13.83586872808133 10.10859258948176
Co 15.510022035868477 13.853087773701716 9.326027780641232
Co 14.044526470784922 10.987547285242128 8.654283327239016
Co 14.707612201554161 9.88696365946312 10.61053475227521
Co 11.036207624194473 9.416254318283546 10.597654917517158
Co 12.726653217562724 11.505092141345221 10.408566978815182
Co 12.99092573537338 9.016063832401361 9.308481960446326
Co 11.202264186437844 16.85635873230234 12.205530614203848
Co 11.355116575727937 13.432930402468065 11.303973806632001
Co 16.238530476299044 10.663732109434285 12.292584857279815
Co 15.034486934193717 12.18269097852049 10.734565020533088
Co 15.115184859440056 14.498222723423009 11.520523260555606
Co 9.487404339063323 8.185069658311832 11.615492037964472
Co 9.144430178702395 10.376514077000737 12.175068741789591
Co 12.86955531973286 9.02787398915446 11.93801479343041
Co 12.952483233182427 15.406995613982511 11.620393135567335
Co 10.833293689061655 8.997687627666817 13.228260045938072
Co 13.983588464205226 10.894917302373464 12.632388582656072
Co 9.339490728391652 12.727650215343314 12.308803957266601
Co 13.367804158321844 13.151003440928054 12.342631406153565
Co 12.79318763514936 8.328394306372202 14.207710656391624
Co 15.57502024552731 12.737329669911487 13.08428019811332
Co 8.048015658547223 11.857672633994762 13.905623137795414
Co 11.462848151061271 11.105421322022233 12.347110124901162
Co 9.881496094448687 15.02271977506216 12.249962574103025
Co 11.434575736434596 12.917270689576748 13.83342325196463
Co 11.987195399171025 15.112716729955766 13.673192488771551
Co 10.029650427318602 11.074881360006414 14.37573938941024
Co 15.133238881847205 10.866958251882576 14.552970298842043
Co 14.308763461702902 14.797802506834826 13.742002007785256
Co 12.684200698169041 10.555543148036724 14.487614422574207
Co 9.474102492769177 13.879020148096894 14.321330031354742
Co 10.053773040443874 16.198946083959793 14.205522642342634
Co 13.690231392502966 12.751181140530967 14.669360022641397
Co 11.02270804897462 9.332238105391246 15.538209333527318
Co 11.63943798689929 11.98743051586148 15.879433960030683
