41
Energy = -238.19362483 eV
Co 8.015461531541307 10.663183011056176 4.0642986173034155
Co 7.503671500121994 11.100767822484856 6.3459622180669495
Co 6.868383901581593 8.9886307557928 5.114744151282765
Co 11.052551399919176 7.388877136793002 5.568527799166802
Co 9.650769674707806 11.523465194652843 5.411944721423713
Co 9.37025921524019 9.193419339808585 5.263730148953954
Co 8.62015868535525 6.985804917025772 5.989855620000065
Co 10.030169092908547 8.226998485615988 7.370154421756504
Co 11.497548835986011 9.694751623441736 6.511388071511566
Co 10.396232020426089 5.953460669878419 7.639048345308321
Co 5.596067241982874 9.555762037132654 7.176116037299499
Co 7.068692126594302 10.744006709036244 8.669634739701356
Co 8.526340352489592 12.560720012849208 8.286850659924946
Co 10.965464236700962 12.080448845261294 8.670285203658178
Co 8.190663574900496 6.714818383617576 8.32077871723084
Co 7.763644065093411 8.878397640293011 7.130711701391393
Co 11.721658050554403 5.7105290905078085 9.901502390623188
Co 9.575630481816544 10.653791836434353 7.449622495012967
Co 12.15498922010717 7.602087725969177 8.048428664876948
Co 6.265863490574529 7.177555533073153 6.93246427748715
Co 6.389795104006341 8.293864170791066 9.06463246008428
Co 8.735077331112507 9.058009704456698 9.180627698976528
Co 11.288822115146033 9.682180710847575 9.002011371900766
Co 6.634194631756377 6.041521763118747 9.972892111995678
Co 10.345170911874998 7.403795046147718 9.501325675897151
Co 5.432717749592033 10.129032133639198 10.151520070515867
Co 9.259060148278413 5.410814634287076 10.01764356721502
Co 9.344863664980245 11.059689547156935 9.88762201836387
Co 7.498974387505814 12.197043072710875 10.552364232730183
Co 9.816600910542336 13.108720847685852 10.669689414167552
Co 8.255621455709322 7.519381457852045 10.756184411771942
Co 7.464850672268598 9.87982749499972 11.104351983129167
Co 12.208540771528442 8.052007677720376 10.567648470388187
Co 6.103477642415764 7.958880900998075 11.343243808043756
Co 11.36674265111466 11.211045089684236 10.91330339455645
Co 10.220020214824004 9.16091923783621 11.251431193187765
Co 7.969792968749863 5.70211999166502 12.014480549552374
Co 10.269072729829356 6.761198325777679 11.806622652679062
Co 9.139656259016284 11.096276534298877 12.1670243417336
Co 8.613428417887496 8.599282034887644 12.775567015570042
Co 9.12212769996761 6.589739989422469 13.74659169226939
