41
Energy = -238.46250511 eV
Co 14.038424108652116 9.070507957064878 10.883440199188039
Co 12.569636276811488 9.972579211434754 12.549821593705811
Co 14.442721488883212 11.185939168347948 11.958239626441957
Co 13.154711073598703 11.60490211444057 14.060821195810309
Co 10.9926653543427 10.56761995844433 14.149572486126445
Co 13.20702735247966 6.992634831247755 9.893199608990706
Co 11.75539796161141 8.583456867840003 10.705332314515147
Co 10.397655621648976 8.837953896733943 12.69263456198369
Co 15.100222239442772 10.657433722851351 9.609729134749697
Co 14.535029350504283 8.589161589904993 8.708899556109868
Co 10.892994938150784 6.794774638379937 9.205334249725306
Co 11.18082100548984 12.896262316122428 14.052194582044875
Co 8.804513919825737 9.472141825666641 14.185243122450467
Co 12.893152594044654 11.096386166702175 10.214722184768956
Co 10.098058700654315 6.914484802943087 11.319847808077828
Co 10.579635832092762 10.96168988408189 11.625630495711174
Co 12.38512580029752 12.453446511684675 12.07669504625459
Co 8.270633515167338 7.815961016453238 12.358592313569126
Co 12.283529441028016 8.447651429802413 8.308479548918251
Co 9.112474597884086 11.769263390953821 13.622988566073191
Co 8.235108880336984 10.203573871919044 12.075320897351755
Co 13.349345429969196 10.512367603450931 8.035811542322014
Co 10.956629808291337 10.316844483227744 9.13908332986743
Co 9.36739132275388 9.00829905153527 10.405762511860162
Co 8.483693513599365 7.083431013256556 9.522761867064625
Co 10.077715018604867 13.251579229000257 12.030667653582
Co 7.004037191388191 8.607829810787344 10.633022285018868
Co 9.81955658708614 8.466823079927185 8.05616853951967
Co 7.847266092159985 12.481528082147989 11.726439437872633
Co 11.361358287186679 9.839433969516504 6.69878494608346
Co 11.01150867470579 12.681473684584724 9.912587407463775
Co 8.918041698662888 11.470367717461604 9.769533906413104
Co 6.714905725953288 10.926413488122991 10.294547775408091
Co 11.55142307098924 12.008000927515996 7.690689366374838
Co 9.389741030571004 10.772710821507912 7.417141323679196
Co 7.792700229121759 9.535482818801453 8.6516300985021
Co 8.8252420407613 13.84575454495009 10.09133088240311
Co 6.5644230464466915 13.243373017606775 9.881482707150791
Co 9.462629448158713 13.009294787467516 8.006524593091187
Co 7.276383262064816 11.900821079752422 8.135149971425239
Co 7.594553219136431 14.277023641012772 8.111898971099352
