43
Energy = -251.10894026 eV
Co 8.083217561519467 10.042810013095327 5.967096620559568
Co 7.811024337749834 8.308771456471394 4.257921816202506
Co 9.89968856662723 6.887534884150166 4.315963190612607
Co 10.178286248217141 9.25796554822783 4.943234736996552
Co 5.492805856992815 7.422536627904371 4.58730088736538
Co 5.6394200456485954 9.986124250448519 5.517689338872591
Co 7.5429200058058115 6.09255524833989 5.233013122635608
Co 9.541107865831991 11.608529194286493 6.875100984478983
Co 8.244595474263257 8.787012242330178 8.132034670201623
Co 9.015689048241168 7.744596999119963 6.175997950846888
Co 11.268875583108667 7.419944668083973 6.387205534336881
Co 6.673237987938685 8.07015288849472 6.30441190792059
Co 6.97786450486217 11.875432927934153 6.964022279093077
Co 9.664225244340752 5.54138593478116 6.504816274768434
Co 4.455297350968354 8.495436511737052 7.04810528938396
Co 5.414388466985337 6.163055423637339 6.916933999390432
Co 4.5103502718947555 11.248591774616653 7.46737592349666
Co 10.315599746037979 9.485922294177762 7.262405111362374
Co 7.680582985918251 4.288903808062396 6.939708719349036
Co 6.251099213244097 9.8951856583851 7.756789510632682
Co 7.6862715419535395 6.391413721451815 7.604269076399855
Co 10.046400488339854 7.170132006529182 8.477120608011193
Co 6.012823722893573 7.7085110546546005 8.605795846894583
Co 8.877258296290709 4.966016395151079 8.944496686498304
Co 11.20306407788173 5.256584155172521 8.27128612140692
Co 6.34689599548023 5.491519265171659 9.382268484488868
Co 4.147694341144112 6.651946748280501 9.110438998169991
Co 11.744830845741792 8.708136189150263 8.859604350529446
Co 8.28532576842578 11.0905843697972 8.731780097127189
Co 7.962230110486722 7.1694609391816995 9.896878047677955
Co 4.5360778044396985 9.37242058859492 9.272581971050315
Co 6.007442224047004 11.509020366299165 9.361790392243554
Co 9.544096189567307 9.144783313465858 10.053727729040776
Co 10.611091025924267 10.917623814663344 9.050099510193158
Co 10.51715352018933 4.819844161809458 10.508737519577126
Co 6.820452387696032 9.441223330518767 10.121463573472079
Co 9.920826018528022 6.961863655955097 11.050130429259681
Co 5.843689323435978 7.384784353799471 10.872343847867008
Co 11.935905041354369 6.658670967827173 9.991755633459004
Co 8.137267261283895 5.313751096683014 11.13556536494614
Co 11.489476815935257 8.720195801959639 11.111338645100563
Co 8.371940676731201 10.84749400133677 11.037855866631652
Co 8.11043819314366 8.500499385372057 11.810471368558815
