48
Energy = -282.04626654 eV
Co 6.204003900754987 8.477020080971506 3.901301971189642
Co 8.586235012625647 7.908305951786289 4.132987475605476
Co 6.59812804270026 6.178800628039496 4.425967031711827
Co 9.864736820915315 9.723325591821252 5.1934800902452185
Co 9.899867225575921 7.554823145474098 6.076697976560061
Co 7.647860963078986 10.033712645634566 5.022884854925871
Co 4.790287341699945 5.006690052542723 5.225969624415058
Co 6.670045257409065 3.952524390792083 6.036812990517925
Co 4.852857168785405 7.405269230973364 5.548455796655728
Co 8.444623161984788 5.741324342313672 5.7706737614235575
Co 7.206515839116887 7.902629513808537 5.928554621211053
Co 5.5968122205738275 9.572243013251752 6.257853336273509
Co 9.483612916315963 11.45973757609321 7.010554235888686
Co 8.490061607017324 9.376258209991283 7.216698856715807
Co 11.196929712396383 9.585025439939054 7.048907784032035
Co 6.1542867228274565 6.022057804668482 6.953889998550341
Co 12.134788955307908 7.280643975985213 7.4573752083243825
Co 7.015732261641858 11.37319540141694 6.846913020046901
Co 10.246493639076215 5.718515875076193 7.660621909150964
Co 4.058295625992898 8.263864379621829 7.588863351807915
Co 5.433121292473156 4.197601796723915 8.059706350156022
Co 11.775627153197865 11.446601422831144 8.533786535666108
Co 8.163220075028049 4.503333439238631 7.727622993227893
Co 3.801988257007353 5.830441037157537 7.159613951028724
Co 5.486620654906476 10.524911675069825 8.435477865130316
Co 8.19862640383966 6.862612959347049 7.89288699891528
Co 10.202587477726363 7.889533708572606 8.39618786978418
Co 6.29437626636497 8.363934162666101 8.245839253160629
Co 7.823519551282579 11.08043549383296 8.974732136096707
Co 9.975942073046975 10.196365031631629 8.935438382740298
Co 12.205000501609822 9.016824669014635 9.197082411432092
Co 4.895740904789308 6.544393743412373 9.022945646686154
Co 6.913078424517496 5.505481038883624 9.390499635303009
Co 8.215309503044585 8.631375916396497 9.572577196444048
Co 4.552536805013785 8.666364146685176 9.908957787753907
Co 9.843840467852313 12.252701238950092 9.852568873444238
Co 11.632894079327672 6.76690372485024 9.861931317679918
Co 9.078519278139051 6.429837841560997 10.118607379736716
Co 10.293322086390551 8.524983609235715 10.651140356447524
Co 11.410149035584304 10.675361960563055 10.801626362928353
Co 6.497240637622121 9.793076503904885 10.506868495251961
Co 6.573682175556331 7.406815169809731 10.648180636620125
Co 8.786884397359358 10.45671268115094 11.16304956256534
Co 12.317861382263612 8.381334613681702 11.610313396173149
Co 8.403685623105108 8.191443098547307 11.957667010905718
Co 10.154691263977906 11.903284399344662 12.228863799165055
Co 10.437266725087897 6.831773285811596 12.097549203719705
Co 10.439021387004965 9.538122659841623 12.691342975501344
