47
Energy = -275.43421239 eV
Co 11.147624192383192 11.648444278323716 10.742087900987814
Co 7.188768910974856 7.316362345881632 11.265605950604062
Co 8.89596795851269 5.770073783681267 11.707432829704594
Co 12.096693912676114 8.053940638575488 8.940983924292407
Co 10.430125201171801 9.753603464507151 9.767856370286147
Co 12.54521506951949 10.466307240173304 9.068971888906423
Co 8.516868401005476 12.328922319056506 7.059757388886375
Co 6.68805927257941 10.857210922687855 8.194312773539354
Co 9.432139019302694 8.010522175465853 10.994370966821673
Co 7.668324981135961 9.662309813241635 12.029114509731382
Co 8.401779142745808 6.46794952092979 6.836030379632787
Co 6.829372060785934 5.947535535588174 13.088663392691538
Co 8.722955631715442 11.300335891570414 10.220769818062397
Co 6.047276306577542 8.16064991410566 13.08865072041212
Co 9.302425867477936 8.633498355136599 6.3054495195655145
Co 5.048532038910866 6.59021558745159 11.583985710127962
Co 13.129404785748129 8.760698270740622 6.804667271579965
Co 11.114629074626942 9.524112477862985 7.473796725072367
Co 7.585437961177463 10.417943693461604 6.026130368216927
Co 9.954605385534082 10.001870892735923 12.059652796362533
Co 6.6763512752197425 5.139869970858347 10.6289354229553
Co 12.455748726688357 11.08690979506271 6.675883793114708
Co 9.781134256016912 7.160998443152332 4.691190362808116
Co 8.894115911834957 10.277495310957015 8.031477150089064
Co 9.031438834634388 9.461739113639942 4.160806237334036
Co 5.958780723769282 6.816227910534964 6.770587091454438
Co 6.372422550126381 10.97775041583156 10.533339761894792
Co 11.174480989289316 7.258402464922264 6.700603233819962
Co 11.340664374913272 9.053218589690102 5.165860360807447
Co 5.484345703363869 8.880722663924697 10.85118830074353
Co 10.84595922499257 6.423565030566915 10.182115966557525
Co 11.753242312478793 8.48514098518313 11.19920281601386
Co 8.404750981335846 6.2137003725661115 9.393193228081296
Co 8.529857863392293 7.692105586665026 13.15700632977841
Co 10.101565898026566 11.071863572404448 5.93355894905756
Co 10.608236469333145 11.765207452981066 8.38466970990465
Co 10.723682537001462 6.94311006118399 12.636227813936783
Co 7.641358812240936 9.145269441625837 9.730512327621314
Co 6.024399765118343 6.993358857661754 9.192232520992283
Co 5.578078694706226 9.213229777619171 6.158047684940555
Co 9.695417761561064 7.815356031509353 8.528377987476187
Co 8.48062055887417 11.702577215972115 4.401842264542919
Co 6.836644229410907 5.114559806538307 8.166311831813593
Co 7.374531970663205 7.961203464528882 5.1433200611991365
Co 5.235517083153206 9.095991067832347 8.548797129679611
Co 7.292409326104601 8.435131389783402 7.568999890959597
Co 6.742075964333838 9.926826058771342 3.991458540083519
