42
Energy = -240.28530853 eV
Co 14.90052030719529 8.852984197891692 12.950282357745365
Co 14.886196976541356 9.079316190213044 15.838802073913003
Co 16.40346675507586 9.817862603941583 14.288729388531515
Co 16.030934731606486 11.941302556007274 14.943098909045267
Co 14.455228282728154 11.35666394553629 16.562376265924037
Co 13.199640264061271 7.641062554387768 16.328461983482352
Co 13.053397058569757 8.460780671867111 14.229485615459462
Co 13.969606329466457 10.647907783403046 14.422932319402994
Co 12.369413779586102 11.497232704239845 17.645313964235374
Co 12.59548431922992 9.799096979230287 16.244669719986504
Co 15.193642331451004 11.27683360187699 12.597645492020705
Co 14.311716164182023 13.252621902554388 14.470859957968896
Co 12.394522222425572 12.183869971986782 15.527997053116655
Co 14.630537155973924 9.477424214359555 10.780045155652903
Co 14.918371321264157 13.479291423382017 12.00561689000765
Co 12.89838712396256 9.956109787703012 12.24022012689302
Co 15.30492374260284 15.165824603761218 13.993080978572662
Co 11.60413457153345 10.406026597317128 14.079632976828417
Co 11.993736025321253 14.236452217783054 14.558697907055416
Co 15.64623899900325 15.591327372349822 11.805442404248364
Co 12.835877466593887 13.620840216877863 10.839620329707266
Co 9.91864260006648 13.044026402092628 8.018450581939813
Co 8.510791218762524 14.579535460370515 9.277944307592346
Co 10.535271749470509 15.36266773838366 8.469555180345411
Co 9.398563768942369 16.73277295363978 9.872291132716459
Co 9.209810469136068 15.14435149375644 11.476566581121952
Co 7.892968214616275 12.623305408289859 10.160959969881146
Co 9.77704639287745 11.41428010598393 9.712433194164507
Co 10.483320613056334 13.653379064036027 10.128207037655853
Co 9.271749215096252 14.350286231124631 13.704668959544827
Co 9.192202657864982 12.753481432447895 11.992405689978055
Co 12.523347280362374 14.344087431939426 8.714670280440586
Co 11.457135788247049 15.775146157715954 10.638081866135455
Co 11.160016951742557 14.1938272786402 12.428968395189528
Co 11.93016846606363 12.103888951911946 9.098812239155585
Co 13.76368036175802 15.63984144721883 10.447569891795847
Co 11.202901040924884 11.578935799431202 11.545466657037426
Co 13.372910347841664 15.06519310484631 12.753860438255119
Co 10.578979443976621 12.44678136955244 13.947726358288357
Co 12.822864408916768 12.380885452068629 12.993796418404488
Co 13.780495597365187 11.567462538746874 10.72742379620026
Co 12.134281902271583 10.018156498867054 10.050253572091655
