44
Energy = -257.33825605 eV
Co 9.010908716145904 9.444502263302436 4.6096837954223915
Co 6.658365766432883 8.805513194847764 5.016992692870026
Co 7.24345256033364 11.148921073826948 5.376022190672958
Co 10.800175003838792 7.55644909049311 4.960448559581683
Co 11.380048789821766 9.875714135148542 4.991735769325442
Co 8.537919843724634 7.267992908900335 5.640863415678466
Co 9.567697730159184 11.179971288311524 6.20492547363468
Co 7.950523811996783 9.537419449725231 6.714308432959653
Co 5.660747740645057 9.868293691334635 7.068864587468032
Co 11.770454030852054 10.411660979023425 7.28323859542879
Co 6.505252778770832 7.538226406742356 7.094044139810687
Co 10.18365100046744 8.880940819464346 6.624189536440104
Co 10.636353153177726 6.537364917514154 7.365101014679577
Co 8.072107312059993 5.635116231844493 7.381593590289184
Co 10.615723874529776 12.329808966093605 7.990315407267187
Co 7.317484409555505 11.418616302724299 8.00816485769672
Co 12.354440644486969 8.030289364298199 6.932895318309142
Co 8.733951437639213 7.64279881464752 7.9444943034966995
Co 5.082485270450583 8.2354383878648 8.960598210279818
Co 9.436205627390022 10.427071337159605 8.52713443153632
Co 13.181481894818644 9.134078630955646 8.80875030730686
Co 7.066123642369357 9.233450158519425 8.819179611871306
Co 10.92253587267818 8.53512068848004 8.866843959779331
Co 11.912832136950186 6.747951151898534 9.718456874006977
Co 11.828718597502151 10.972915257106697 9.571903241670178
Co 7.06572677655849 6.725986513881419 9.354262756615366
Co 5.614464852360138 10.506045569797207 9.987501416363681
Co 8.750873917114129 8.315071468236813 10.05394851095596
Co 9.595884408671772 6.184575212896254 9.598106168501069
Co 9.85316691098849 12.173538694515765 10.24148180270021
Co 6.399062634871321 8.484510250981616 11.009711867380764
Co 12.21862875269155 8.8735543471657 10.93892877568067
Co 8.074652092416668 6.707262050393755 11.57083610921359
Co 7.886412078830335 10.81913637195673 10.421050319433235
Co 10.192316364394836 9.956802459846141 10.799393945563262
Co 10.418608613912829 7.420430338968945 11.540567713232837
Co 8.488771357256367 9.019298282766426 12.166303510472146
Co 11.468963193140125 11.474940918490724 11.915473155590938
Co 6.675580566940412 10.392464624784287 12.391841680049357
Co 6.849367156481862 8.0560900886826 13.367490065442658
Co 9.125821944652303 11.225754980818735 12.51207924902249
Co 10.655499243171757 9.417596909070634 13.00663300204043
Co 9.199829323416573 7.483915698333806 13.650716432564131
Co 8.352624012698596 9.683295555551798 14.3088210490612
