44
Energy = -257.61407154 eV
Co 5.75047631383802 9.694406867862817 9.368804528520728
Co 6.013305441096773 11.869997060722358 10.438380290236553
Co 6.505104110061459 8.071918653106351 11.09959548694971
Co 6.795557298208906 7.337908190345215 9.007080072880088
Co 7.476460431732071 11.55605017860375 8.598454239560345
Co 5.524664407552199 10.092127616200287 11.812212541260193
Co 7.846275748946845 9.295726109058739 8.371130555397285
Co 9.458827006933141 10.903066846252132 7.302411432132753
Co 8.88930401551742 8.80841005306606 6.344486067182729
Co 8.638373404698456 5.901109725046721 10.061915797918697
Co 8.14716276848439 6.760973286253072 12.139127611608014
Co 7.333742192932209 11.546758346967554 12.597094277474849
Co 8.797298670756527 8.201789390759034 10.307172398026022
Co 8.406915351026981 12.50201430626799 10.608403979080492
Co 10.606662662759486 7.2547231644835275 6.433587045506954
Co 7.569105506309765 10.197032834684203 10.692777153236774
Co 9.424459153237837 12.952707015907174 8.478241962615998
Co 7.6425031144507365 9.08516070602865 12.820274741266768
Co 8.809142769918838 6.972599591164966 7.999194565967809
Co 10.276053110606732 8.6907023678201 8.33189131305973
Co 9.665248370534549 10.769170271007228 9.616569075541893
Co 11.190898191519492 9.601962552355438 6.322825825606636
Co 9.407093968531855 10.512401086371826 12.293248499981098
Co 10.62879282196124 6.861506505947692 10.928445941558431
Co 10.9954822203572 6.479339780544652 8.724860305998003
Co 11.53966357509562 11.906624087252869 7.04089520971413
Co 10.963119091239571 9.208800911985557 10.754417459056018
Co 11.978940853968334 10.23397573100426 8.675283633363325
Co 9.40199907261022 12.861861832485308 12.678088248785722
Co 9.860192663328123 8.26268468249057 12.652211580705377
Co 11.544450829543724 12.533096632435036 9.224092305877614
Co 11.252680396130081 11.653666968980069 11.425714071874241
Co 13.359238335671487 10.355432424657032 6.7934534421219555
Co 12.494841065783014 8.108217789646561 7.598324107660127
Co 10.989281483243444 11.569969238036137 13.797132688642902
Co 10.342806880272606 13.776967175704128 10.740406257675367
Co 11.85454417542064 9.63939723002318 12.763780871630543
Co 12.614321234520986 8.02685723438891 9.884087912738572
Co 13.190385663856397 10.39225640608173 10.768633389299053
Co 13.721884613889683 11.749846566204182 8.784539495607186
Co 11.749484774873991 13.543227613721044 12.729046092250911
Co 14.202632596632322 9.402091857352953 8.81223765919267
Co 13.196261499614232 12.813660311556118 10.82896031812741
Co 13.164886214579656 11.643141570304744 12.866250285202081
