42
Energy = -245.05140889 eV
Co 7.835690006504878 14.1710750064757 10.041081768015944
Co 8.271856720207412 12.095274721566852 13.046374699073416
Co 6.659208410291546 12.518267895712963 11.32134105213051
Co 9.677642544190505 10.2232965808505 13.149768084103808
Co 10.870176657265915 9.021001373376667 14.722991963973616
Co 7.578020628241399 10.300819198003905 11.683581896675094
Co 5.865402832482626 10.698168117820565 10.115866885519736
Co 8.536475867712731 8.201034415749934 12.08088993232396
Co 8.928606393578892 14.03924629522806 12.060837750486911
Co 8.94136072573433 13.907084590759885 8.01755686031433
Co 11.325206780171698 14.477658812894749 11.993924722447444
Co 11.816292103998665 10.97544025778386 13.992519405625272
Co 6.764585997582905 8.438137226129767 10.49236096228381
Co 10.531697452911981 12.284112777314826 12.190323455265629
Co 8.767797115676096 11.99290736170717 10.578591255099193
Co 7.171427075910625 12.268342584142694 8.90542500036094
Co 10.846431805756104 8.171143288698442 12.551472462323593
Co 9.824902805316121 9.766654033984556 10.794582383669294
Co 7.9814311691992526 10.05101417903449 9.306979068466411
Co 8.87264732549188 7.809569714629525 9.783169375337263
Co 12.759491011020918 12.619549857293363 12.429894416245759
Co 11.920031222066328 10.278112986426777 11.815049781269423
Co 10.190379570944115 13.873283702440727 10.043971013444427
Co 9.377445175580343 11.71689847981331 8.233156201178065
Co 9.990841860482975 6.4483191380089755 11.315745803642338
Co 12.702455865329108 7.066229433245334 11.704067432813497
Co 12.539926524617053 13.515753626789367 10.210251994172863
Co 11.155921596067246 11.634594647971708 9.829823900909373
Co 12.84602232753261 8.845274807045625 13.490491382865075
Co 10.159995439179298 9.422391989059138 8.460445725559559
Co 14.063420271996662 10.778376806516704 12.941988172198906
Co 11.316866387902946 13.222731407314749 8.084954694732504
Co 11.275618976101317 7.8700664797197035 10.110824285457904
Co 13.86166106586887 8.983120050491221 11.216714210657395
Co 13.291587802079556 11.842303923416084 8.414643393151499
Co 11.440668354776703 10.991410562725155 7.320407972410555
Co 13.678136778677322 11.42681077675196 10.649057161005784
Co 12.390252750671188 9.72086667308259 9.251641277526229
Co 15.65162196659061 10.403638732473613 11.223087781237888
Co 13.500659644265323 7.725141216776646 9.351602013960337
Co 13.514196041961503 9.819987375332698 7.214643026345544
Co 14.719255847751331 9.831257310458854 9.123274646302699
