41
Energy = -238.36851949 eV
Co 10.341684855276826 14.368229943893814 10.853563422337052
Co 8.089308320171959 12.893566862032712 11.157474870535935
Co 11.840944450450568 14.261404499884332 12.656207894572532
Co 9.923260179696118 12.745471582984067 12.51302924752022
Co 11.776645757002244 12.238197641306076 13.854877220449746
Co 8.602362100147104 14.180266947446093 9.2519723654351
Co 7.334707873061158 10.8055010725104 10.549085958276239
Co 9.198040658378632 10.012391743332136 9.087398225235674
Co 9.449924683581697 10.612017032720741 11.622606824655742
Co 12.568607746104062 14.21257078150753 10.113162126886184
Co 9.782594736910363 10.831993047190219 13.894300832151878
Co 7.739500214367351 9.242695079591414 12.390099638898239
Co 13.592684835023386 13.576782376484106 14.163293375931747
Co 7.985243700245896 12.031554208240857 8.625774796351934
Co 9.957620673972643 12.26698604648735 9.928135889290969
Co 13.972225744544003 13.732238220730538 11.93906887760768
Co 12.100521602103187 12.291133424732735 11.407463985372576
Co 6.872245588898771 9.959961430564807 8.433186317722713
Co 9.95092068465519 8.655093386311746 12.953275950703722
Co 10.78957670586209 14.03326899620692 8.492364638146855
Co 7.6644252923877145 8.497231711442238 10.196419283411426
Co 10.072442938254904 11.964769645544164 7.62016584428482
Co 11.403618878019252 10.276203796022338 10.215556352500862
Co 12.171894447174319 12.20127693098198 8.912278812358007
Co 8.532712397079235 7.006259735134809 11.839127021660829
Co 13.81949299892461 11.59988553229341 12.841682005162639
Co 14.130122193936078 12.256370441000435 10.176350790663117
Co 10.029310683798931 8.291751032104385 10.613596378196155
Co 11.698298542288923 10.220465350743495 12.667053994841586
Co 10.774055314661403 6.533126184639422 12.24067130033059
Co 9.261660749438509 9.806619615676466 6.7988462288940505
Co 8.088920950425651 8.112152608943523 7.880496628033482
Co 11.392709816431855 10.100753412663007 7.831870234493448
Co 10.384685986303255 8.033968173387118 8.218024257604565
Co 8.905021658968243 6.589770829088622 9.485087614187508
Co 13.630069338841132 10.387078094392637 8.70825529460913
Co 12.484874160371454 8.447969971164795 9.267180417686825
Co 9.646534681799576 5.049806473541983 10.971354440437793
Co 13.554169298959922 10.137087588279156 11.054889836625216
Co 11.24127377916635 6.464872123158068 9.928999964992142
Co 12.188671506497487 8.227632786121033 11.55060730058424
