46
Energy = -270.80524761 eV
Co 12.682590083951277 9.01757425125586 6.964178190960392
Co 11.08915940796381 8.074726672284442 8.324296542282534
Co 13.103135472444023 8.488476396250443 9.40435457714926
Co 11.49806846897466 6.374591747377522 9.807334643748552
Co 13.633534292639203 10.658413583932052 8.174650264003905
Co 12.283785679135033 11.246562486651714 6.170026323814266
Co 9.138509216472723 8.4692050789841 7.091500101461595
Co 9.057764409565335 7.153379013023189 9.072909166255057
Co 11.698922922201366 6.695585518906692 12.191362688612884
Co 8.34023513731222 10.712011769382574 7.604764336593927
Co 13.214666283524107 8.47297649982566 11.839191958591986
Co 10.7295543191537 10.209099858105768 7.416004598576499
Co 7.261870962950942 8.773629020080527 8.551603704231578
Co 9.594546472644133 6.443634844013576 11.212039901381107
Co 14.041550549982105 10.319122736618297 10.565312026015048
Co 9.337814751210171 9.470256908696376 9.388791102067092
Co 11.972326663013803 12.453888556055382 8.056149252826591
Co 9.905579896210615 12.211323634068915 6.642871219506494
Co 11.098778205994972 8.4307336134629 10.742640886642452
Co 11.826355955319888 10.493782916415501 9.634972367116465
Co 6.547217408791886 11.137219504313341 8.921594400426873
Co 9.729724711340332 6.95370928981576 13.530973564303917
Co 7.333331100472462 7.4606891423420745 10.578020295768988
Co 8.949536492807637 8.568170346378931 11.895057112068764
Co 12.165005085834741 10.53845214681962 12.07240708462251
Co 9.891011983620954 11.894198220668077 9.03257453644242
Co 10.080646969735298 14.066721827181299 8.001920971329776
Co 7.985013117314945 12.999161553637169 8.304367431298461
Co 7.618065394338587 6.603927528015059 12.705743862407871
Co 11.04916187287104 8.80079680503531 13.133418352887338
Co 8.032734999660182 12.045616575637137 10.50887111884054
Co 13.45536339469281 12.470504837823757 9.840274288572253
Co 9.905627881529487 10.697526815990452 11.308098820484537
Co 7.244697448367732 9.808742818717787 10.671987663633917
Co 6.805645170968287 8.737133926422288 12.772904889197168
Co 9.472603799900966 13.936404521039988 10.219570352842966
Co 8.778402366708393 9.058321792817496 14.12648650396882
Co 11.842437506915099 14.34320660083816 9.499124910480779
Co 11.35566779370758 12.59334849017676 10.910456189771441
Co 13.749408891093458 12.144718120786782 12.161190716949546
Co 10.207167963658986 10.931243134313522 13.630282670283666
Co 8.025728039064374 10.833197753638267 12.71103800009726
Co 13.05361997473107 14.221729926316753 11.49024283981113
Co 9.372362018563617 12.805367534984159 12.357743846425478
Co 10.848811447246602 14.662954020991172 11.9889699455269
Co 11.65171969395076 12.734309327660151 13.180062084462289
