42
Energy = -245.179967 eV
Co 11.680702574369464 14.144078099873719 11.893139666924686
Co 10.076412903533045 13.614922949022855 10.298770256671325
Co 13.205622626475128 12.318695595177537 12.151955269473108
Co 12.230084744725081 12.8045072749226 9.931154021717953
Co 11.33546304701562 12.971339781971384 13.845293695046767
Co 8.785718845258286 14.419240190542563 8.678828470391148
Co 9.357683889053273 13.451165107132079 12.56515275373389
Co 13.987421304096575 11.27886903621158 10.251067851093753
Co 14.16810475094278 10.170220311444092 12.551685613516318
Co 10.64110950297233 12.995311901924829 8.00453032215141
Co 12.775850258096167 11.596994599116135 7.994133868669943
Co 12.062809999425234 10.692418833168844 13.528891628870538
Co 10.956600330908838 11.862753323256097 11.766415368459603
Co 11.453756255704848 12.082498808364404 6.1255968552683555
Co 14.668832787192217 10.258839844610765 8.394833228543584
Co 14.279632794193144 8.959601868137621 10.536730039667239
Co 7.811582776037226 13.51099991749004 10.804967084392995
Co 8.56510129244716 12.191784435678176 8.948838834522384
Co 9.550814131770698 11.366814560667647 13.597947397907118
Co 7.374037347895714 12.051965954220718 12.635719321365817
Co 10.721446548859545 10.976416677139104 9.306700206355902
Co 8.858626033605097 10.966803009300213 11.178742539807677
Co 12.6099676858361 9.371941651513973 8.9254445297222
Co 12.229672839670613 9.962620840544078 11.213784593605851
Co 6.727474378342054 11.476104856753118 10.373455645764654
Co 11.665021868939016 9.899464152231864 6.8628743746834475
Co 9.619019546784655 10.968274257381468 7.2056152459422655
Co 12.516393213641491 8.350221620870778 12.828780785656809
Co 5.773173341184025 10.474107436028392 12.30057807032491
Co 10.320200915705579 9.295525772022199 12.726086863396713
Co 7.8808116950964004 9.78087095185394 13.06495723186376
Co 10.110031651394568 8.850972726989564 10.434722958625557
Co 12.340782023469746 7.651780660981439 10.473759961472979
Co 8.356767895577107 9.882187222225225 9.020510220854517
Co 12.082918169546659 7.454613424816411 7.904272203999677
Co 10.136437092383673 8.686508262977185 8.061535061113988
Co 7.11971917480656 9.255774010698435 10.878769639891368
Co 10.682863278625558 7.03934199355693 11.920517666660091
Co 8.510940516244283 7.766515293350928 11.912097312554447
Co 10.45311407649901 6.73608742688116 9.41500770595451
Co 8.26777825808476 7.570810785718861 9.537013132237869
Co 8.970223947063847 5.760760886704876 10.869848814597537
