47
Energy = -275.94101414 eV
Co 10.285326300372633 10.25623346652513 10.873802715120409
Co 8.674636590818192 4.531738916742255 9.867986367145244
Co 11.015785742349204 8.740373699481658 9.268416037140698
Co 5.407815824169021 8.814651040825641 6.643798741249202
Co 9.26226881894817 8.25960078282455 11.398265925465003
Co 9.626567397964262 10.204532518488705 4.782558671133155
Co 7.839617676444548 9.731800539981021 10.12706499518514
Co 7.4045017464636445 7.414400762726392 7.110360953438167
Co 8.691074117607693 11.911533941257323 10.483353636699723
Co 11.93936895569687 10.153524605484563 4.997412814751224
Co 12.363091574244912 6.927386509424604 8.941986796828244
Co 6.339613893132217 7.911650032662571 9.265168794052723
Co 6.652628036809472 5.469691464975463 8.788890034236278
Co 5.36879340827857 10.146502003509541 8.86548083268416
Co 5.161774569853465 4.31629579581374 7.477775969275155
Co 6.587335751708917 7.182376971581507 5.027390061418338
Co 8.239205374714492 10.28799663822218 12.307269821649188
Co 7.80756764405319 6.5297225749569385 10.610478432729218
Co 11.799132285657443 9.05472833803253 7.088629298690295
Co 10.173642204941743 6.327268586736991 10.162233980854179
Co 8.845434869037788 5.676890984719132 7.951647962436612
Co 7.330960244079022 9.613761075173432 7.76810038457278
Co 7.14787377903381 5.186867002757899 6.397450241289258
Co 7.372581431624594 9.433334760913555 5.419931712541701
Co 9.59325817321598 12.63812115539411 8.241124706490787
Co 11.006639424006085 4.898137773406756 8.648575921091421
Co 10.840648021426436 8.133984199376208 5.104931476931795
Co 5.959031611223563 11.081006554988809 6.625644568454423
Co 10.68809062290632 6.965868900548492 7.35646336321989
Co 4.658874670539422 8.712353700748064 10.646489174069869
Co 12.257493381146839 5.5438746950683075 10.670516588527347
Co 7.215680941320213 11.71318989563676 8.780243934917456
Co 8.704503396466437 8.127271507785036 4.0508288125357135
Co 6.757440634983778 8.445571931067406 11.665266666368378
Co 11.569450459864754 7.790062975230317 11.267799395899182
Co 9.028981401055312 6.576506700220223 5.659948921577866
Co 8.356895989915282 11.361297685484239 6.589769195451431
Co 4.312155591642117 5.964146531405564 9.079766537702923
Co 9.424500460634626 10.43651946978515 8.612351917808523
Co 8.859815520836607 7.910709385041565 8.933498452397496
Co 5.228039374624734 6.472749855146022 6.934613683146083
Co 4.0884129579969 8.099063529990337 8.435079593833057
Co 5.534140820337503 6.438934268514331 10.921487264278696
Co 11.581785573149102 10.989143402669482 8.854453708440126
Co 9.403178033607263 8.926473526941292 6.718082216553032
Co 10.725313762544625 11.150327060615073 6.6969021673920555
Co 6.034016045328723 10.706767387895617 11.045651659103235
