43
Energy = -246.55521611 eV
Co 6.558020130732041 10.77423418802701 13.631380260053168
Co 8.432840634737447 9.918987205163239 15.141653141257159
Co 8.367484674527416 9.87559909900248 12.630952301523992
Co 10.256798582807717 9.077259276579438 13.914275461198226
Co 8.519068687752952 11.792648092811138 13.932381508304587
Co 10.570677972098979 10.89654011467437 15.327609847018373
Co 7.7790717456811915 11.827616520260829 11.382782761670834
Co 10.076389179530855 8.585189553995425 11.481978065973305
Co 7.987045949003808 9.521730499090895 10.366647119686538
Co 11.623776678373126 12.593601448152514 16.411637329401064
Co 12.515962862771673 9.734688604005774 14.563594142815028
Co 8.42569805792306 11.318104034185522 9.019940337861776
Co 12.226411896312397 8.845281515871758 12.461571462629864
Co 10.371055277567502 13.087411528796755 14.520168877103508
Co 9.581555423361158 13.054217877334697 12.246067301806578
Co 11.985027176568217 8.186711761076273 10.096820536592423
Co 14.468587954234435 8.775712032390796 13.166668006922198
Co 9.83026545397661 10.875303031254308 10.956509078412347
Co 9.929948168752 9.155110414248506 9.191133786012193
Co 12.671134540589945 12.16681659558539 14.472281292952202
Co 7.9969895224367775 9.388111363498941 7.831607132424907
Co 10.981255396544732 11.18498307790498 13.03534051461592
Co 9.825120713654746 13.085637570987348 9.989660907032835
Co 11.759622463370613 13.589850575396156 12.822276056669374
Co 10.690704421984966 14.89648951235417 11.209951350020361
Co 13.757041990387023 7.34074491582225 11.406718800027118
Co 8.301762596052987 11.588971613199872 6.683649676487934
Co 12.09766928822841 10.494016257600817 10.64048373244749
Co 13.426452330423677 10.866690871643522 12.62112740810521
Co 10.0309846441739 10.237262782837728 7.138805231446828
Co 10.355640311555465 12.432007665848802 7.903544523158954
Co 11.266498702154355 14.558317451762345 8.943574262027417
Co 11.946572796065274 8.988877545724886 7.921023165125801
Co 14.451385440132164 9.44240295014868 10.97357281343594
Co 13.988767392564966 8.062953355274258 9.08748492544739
Co 12.706164494597 13.888237876305928 10.763575075269813
Co 14.017333769828968 13.056931096933742 12.640378167923993
Co 11.991635095523007 13.48057456153992 6.802811456711843
Co 10.482623391904006 11.998378894830886 5.656381946055785
Co 13.563355948290697 10.336202139794079 8.897672062883958
Co 14.100167903561948 11.944403752394773 10.576011902266265
Co 12.247368899729016 11.076160591684875 7.055782350820061
Co 12.343458417987467 12.504427162458615 8.987910898856102
