45
Energy = -263.66330254 eV
Co 8.344746823050444 10.98461581776655 14.386598694823418
Co 9.981713279322015 12.303133546648292 13.019635088315553
Co 10.614010191052085 10.74228166471561 14.670133511847725
Co 9.117630525816 8.906436573598633 15.095497888837231
Co 8.26053537022868 13.967489276878618 8.940728670444237
Co 12.265138061110935 11.475684851135151 13.099101445899906
Co 9.347813101232964 12.655281381416438 10.687485059977638
Co 11.565552792170195 13.093375690815856 11.296681434499842
Co 8.357761881662718 10.853709469647809 12.079963314649534
Co 7.61923141079566 8.997867686288497 13.34155644295947
Co 10.583487814821892 13.772293848188744 9.007811811881941
Co 7.233375405628048 11.84039827498919 10.13519325865875
Co 10.190969484180188 9.176422354268741 13.000957684993805
Co 10.807137729073576 10.833633797772166 11.405738994671323
Co 12.876645442130513 13.479121596782054 9.38233472154996
Co 12.351911244206514 9.319501463827539 14.132944759977583
Co 9.586241340979985 13.48415958918139 6.885933653649659
Co 6.755834023091197 12.523677636894263 7.909727805297341
Co 10.977414928652555 7.633887974506835 14.765454053953034
Co 6.864456071135996 9.548416764584376 10.683420952510998
Co 9.234765759723581 7.074450092155479 13.26331205055229
Co 13.121484835008749 11.425090222906423 10.854583164485785
Co 7.122794287440432 10.232757979069126 8.406542413770968
Co 8.52759066562991 8.207338871026584 11.401983574407115
Co 8.953091384298332 11.83111075771616 8.34873654054302
Co 9.01838742386865 10.1756236062579 9.923568017573391
Co 11.939713858945526 12.875718719121716 7.300457831365812
Co 11.391020301691295 11.541405176324421 9.15900196774688
Co 13.876993451120427 11.548721538876487 8.645261100696814
Co 10.72334429778507 8.581782687627234 10.582438924362744
Co 12.594194446441064 9.32116432528405 11.880194579467654
Co 10.459477695109776 11.232296902743292 6.605549007655808
Co 8.150934588002864 11.69358213135273 6.185523305202262
Co 11.47102440781143 7.272579907526739 12.457716060103467
Co 10.6585093148386 9.33500764371876 8.277273840256372
Co 9.908964647478896 6.4107318008829095 10.935646559135357
Co 8.659489190564885 8.064688248454738 9.01790145630763
Co 12.826823264084434 9.477783571354744 9.498657102995649
Co 8.75418329086844 9.574621556851783 6.984527339029545
Co 12.559717742912651 10.396332284468908 7.261463248911354
Co 12.622264463965614 7.2985296034236065 10.3256709737953
Co 11.145004173969431 9.017158305899114 5.996056233037555
Co 10.844892932816387 6.962383016748146 8.855144428145458
Co 9.738156311259102 7.459756451828256 6.939389614997003
Co 12.531197019873035 8.027004453301863 7.698080834063495
