42
Energy = -245.38346289 eV
Co 10.264558745361276 12.805837468166846 6.505096414133382
Co 12.972843212817967 7.300590307705893 11.537817257816792
Co 10.106990591376565 8.918701876107349 11.241046676465846
Co 14.571018839137743 8.690570930715749 10.253285703958946
Co 10.934747240027708 10.01538989358585 9.383638187237658
Co 7.3046524590076976 11.485018431764804 9.020565215316875
Co 7.566854886005368 11.031737047887512 6.610796783214296
Co 12.138711894246454 11.919940037275927 10.082640880291176
Co 10.349474003628796 13.198934176897277 11.415102032603581
Co 6.546346617570027 8.213470389371459 10.19284574815378
Co 13.037387955995941 10.788479747408648 13.240484156712684
Co 8.355353935090957 13.505720815366837 10.025156088554754
Co 11.77753141964176 11.526420697065424 7.664029026016093
Co 9.234641597038443 11.375502487003397 10.47200089644839
Co 9.411935598852486 9.405007886581629 13.375732291428326
Co 8.728333513557933 8.95369508655463 7.0460694742452015
Co 8.318708068921026 13.1063994474222 7.687261392172284
Co 11.018445418997901 11.004221925556653 12.094343158445522
Co 9.426399748642057 11.060057825379632 7.937276371205876
Co 11.740407669377849 8.689801656476787 13.070006571803468
Co 7.154393539486191 11.997436982077858 11.391061057822217
Co 10.034901399000999 7.140320725629006 12.767026538272104
Co 12.37210217379222 8.059105086519251 9.189014859804521
Co 12.70820857831335 12.752542969738222 12.112857122130356
Co 10.952248386429575 6.7942281633157995 10.660016077906219
Co 14.300357381413317 9.025216895562929 12.512218206093742
Co 7.725743816299443 7.27358832364898 8.400602652236905
Co 8.58660598407597 7.263753095933996 10.759235474164104
Co 8.470402257973888 9.293069071295344 9.42267059887549
Co 13.291738659728823 10.17560016499697 8.820983080377083
Co 7.788106594063627 9.737495905942291 11.649693333710054
Co 10.35833257884797 13.009368448742492 8.964890288778822
Co 8.945091597711109 11.705145846622575 12.852510313292473
Co 5.82241311838408 10.352299774402766 10.342740893731296
Co 12.541983195515288 9.51733132472411 11.034867465392821
Co 10.959947720365472 12.737752547044401 13.672072800261828
Co 10.06467561872916 7.757809670735003 8.719121527518977
Co 11.057716750713904 10.576714436062291 14.468848608834127
Co 11.147571449581632 9.3154775642458 7.22186281707072
Co 14.174513554300116 11.068568085105728 11.034981988492962
Co 6.59566214096835 9.404378067498872 8.077174657554359
Co 9.8045734121387 10.640072995411968 5.715210336694713
