47
Energy = -272.35848223 eV
Co 15.203381521003434 13.29710639719771 9.623392955127304
Co 12.624153103509052 13.261411813397721 9.37559773740518
Co 10.003501805698157 14.182094711569725 9.871034842426006
Co 11.6736344890959 15.266123961762553 8.621421662113322
Co 10.373946151094657 11.975010397644485 9.306098897078716
Co 12.308591292890025 10.922626827254305 10.022818100003548
Co 12.659969826447835 8.821889066982093 9.501421939993575
Co 13.878396498573936 15.207305448342094 9.53124246838963
Co 13.931353102086938 12.095061266308809 11.124629672519646
Co 9.154731740071968 12.493145211578675 11.343415111426848
Co 17.534192832318368 12.815029073486969 10.586551884569422
Co 14.187527493002436 9.66993128758467 11.060549965103075
Co 11.72602066935478 15.402042930089616 10.875392559232637
Co 10.32727886096878 10.356711723816764 11.00461808153075
Co 11.472202496125725 12.819432925850014 11.311652493089515
Co 12.039155569014914 8.95220136238258 11.72553476305381
Co 15.239600938835215 15.65814102870157 11.42494108663596
Co 12.504571398168832 11.027743326355667 12.782721902179885
Co 16.106892937349972 9.247224899358766 12.16277601976464
Co 7.95788806935331 14.16855104877177 12.130507717077538
Co 13.475946773874236 14.276119317991576 11.682228445504153
Co 15.82952473617287 13.505659287192795 11.914092098629373
Co 16.118653533416964 11.184789377395157 10.881592593405971
Co 17.08627035626584 11.867020640529732 12.925893683181041
Co 12.211893860805816 15.390426230750293 13.349969838377575
Co 10.138836280004517 14.597510252200301 12.322809889598897
Co 8.89204128719876 13.024980366830157 13.920595052403044
Co 14.58108565690488 15.207441187158688 13.617356746286134
Co 14.958391579708861 10.995974969158194 13.01897256208085
Co 11.41686937367168 13.107335546538398 13.626281316180929
Co 13.790045910686667 8.950754439772917 13.303899525842512
Co 11.433647580011648 9.323414979133535 14.008566527423927
Co 10.102752075518133 11.147314411453895 13.094203790225256
Co 13.842801635454151 12.95521125548208 13.79255155472889
Co 16.262998037426392 13.739391875480754 14.210061514300287
Co 10.148726391026807 14.874884836088281 14.703850399805434
Co 11.470215358539676 16.667291175879107 15.017898178105021
Co 13.720674945785568 16.02716445080241 15.523254664533612
Co 13.643113857669487 10.584635714166863 14.94624621030255
Co 8.125230991539686 12.5554574761252 15.995738252223205
Co 14.60856287659991 13.66320390879593 15.91513310494096
Co 9.352466847084408 10.81491626049094 15.211438525525244
Co 15.654413538818226 11.714007603890348 15.084050598360983
Co 10.329908950771566 13.007229409839713 16.069342599494316
Co 12.35026779346655 14.25820843129524 15.48437977413539
Co 11.594633971019132 11.361385332012686 15.14205404420922
Co 12.84080581087857 12.447257360393676 16.73898945676066
