42
Energy = -245.07314481 eV
Co 6.4350431071460825 7.97579048103857 3.57567709261285
Co 5.127568356001631 9.239805558820441 5.384436043432085
Co 8.760717173123489 8.670279295016217 4.022528519763487
Co 7.834400722812317 6.32628396969985 4.660477430582457
Co 7.201729840376919 10.507703652987843 4.787783838883649
Co 6.6890402373659255 4.514310194456779 6.230601909163598
Co 5.647544456093236 6.648244270166946 5.4685464806887865
Co 9.326497681243804 5.14790466864059 6.894975904054896
Co 9.452981724598066 7.484335089292302 5.991032608797933
Co 11.291169888825515 9.039484725622644 6.1289832194861855
Co 7.203566627454354 8.404426153674345 5.663550748606457
Co 5.509134426578774 8.07657104587145 7.428461809934132
Co 9.133506734847463 9.93759144049068 6.047620038505046
Co 11.260871020371912 6.8026205447995824 7.100556088531238
Co 7.471817291480354 6.462992431253048 6.970567785459841
Co 8.165744205913356 11.931334487646726 6.626383074766885
Co 4.555675279169068 10.003810914440432 8.447265359075045
Co 8.166129135756954 8.595026267971836 7.79056352430612
Co 10.434608692440268 11.154976670692403 7.49944230598763
Co 6.494345652929118 10.351982737677103 7.0433514722768145
Co 10.41695533550132 8.987947281982148 8.241090389577145
Co 5.399929441930608 5.76327676039457 7.928105403383491
Co 6.285755478735341 11.612430622526759 9.105224362594024
Co 11.638187636095553 6.192081283519355 9.313287528778076
Co 11.288175769666397 8.356649908143057 10.252528727536717
Co 8.444117151572522 10.795477557782165 8.617510918108415
Co 9.43180980346624 6.680847915222232 8.669598642325047
Co 12.586627284037823 8.175846800833005 8.29672967292349
Co 6.568697853825978 9.3393201181981 9.296982528713869
Co 7.509348896580331 4.7428852019661285 8.578426461903964
Co 6.991946215752115 7.038026846481409 9.201215547890843
Co 4.839571178669727 7.8023870434249805 9.716670400521101
Co 5.183586589702619 10.258571657309627 10.817715758114781
Co 10.113810928576637 10.442631323922384 10.115897482778912
Co 8.825949116122311 8.460745835980465 10.270859376409629
Co 9.586398675246897 4.674222441056019 9.769145697086277
Co 10.229449245456726 6.487298395502102 11.102181992612048
Co 7.7297370413447695 10.501129270360837 10.864114079231058
Co 5.771930864162696 5.4403918811152 10.25771350337777
Co 8.00028698411578 6.113079258098799 10.995676120049765
Co 6.612751407674349 8.108906099502011 11.280177430315508
Co 7.531667709340916 3.8991547585251247 10.695125582959005
