45
Energy = -261.90134207 eV
Co 9.75956153835545 5.6434380759168965 5.45618435060305
Co 11.408594999931749 5.0459047326588955 7.185564222565242
Co 11.683481195234187 12.114275731712612 8.059727990398077
Co 11.01264992754992 8.441590122621378 8.973248670834673
Co 10.622676056761957 9.557969797238686 11.128244444787478
Co 11.911622386939532 7.259704498039808 10.691864257518425
Co 5.8944562725041045 13.007786551275764 11.404502940867808
Co 12.591102262453104 4.977362319801486 9.449273877198998
Co 8.204938056132729 8.986226009015564 11.978559311880986
Co 7.316145749660566 9.608562479775138 6.084536410653006
Co 8.095854469792277 13.416280760245645 10.729231702067299
Co 12.329283098833027 10.2983667595033 9.496165383266552
Co 7.593554441128283 12.306302393951315 6.754776976591117
Co 10.93294566422705 11.969723818060807 10.486884257141902
Co 10.657847975735407 7.289171901653164 6.7517870287187165
Co 10.849204452727333 5.075356271302792 11.073410803735298
Co 9.291736301491085 10.86733552410532 12.688816394652594
Co 6.803476801019426 6.00236675220065 8.360340874749184
Co 12.588177724666295 6.986545652114074 8.100720637389815
Co 10.437392638553995 3.82107842972518 9.050983519373844
Co 6.778077992403364 8.376490064956704 8.056774777543453
Co 8.685739472874499 11.285643139679202 10.59371472324064
Co 8.808424649781772 9.017352400418801 9.746953883042593
Co 8.545266285221375 5.2842279232997065 9.939486421031546
Co 8.715148887298357 7.138796442570343 8.548700497085084
Co 8.173643380028556 7.211616781911752 6.279374445549356
Co 11.500178656557512 9.67264989004186 7.023048619364332
Co 6.862469908735119 11.116334253332791 12.095070124714553
Co 9.225870355524034 9.048499123431649 7.303598686842286
Co 5.81122662586229 8.79403327199127 11.882558922907268
Co 8.338673304758034 11.144717067657021 4.796353058908582
Co 5.519112348462961 10.401543082935696 8.17587964511619
Co 9.568624506125014 7.189393625606359 11.037024129482313
Co 9.04021887281504 12.711449499398988 8.632870128404505
Co 10.660274419628136 6.087608303219145 9.068369149889838
Co 9.812995696266086 11.327107373503804 6.553090769492369
Co 9.726494127615437 9.244344332222928 5.172969291436612
Co 4.899787942421281 11.097447539127163 10.440762905528933
Co 10.17709119042861 10.668458108744796 8.78250033360057
Co 9.008237945698426 5.061165251260615 7.505074598862291
Co 7.838356239680114 10.656166102055263 8.150935933370826
Co 4.994990406879054 8.464101887155692 9.646545159225747
Co 6.6466742085130335 12.299680232700592 9.320603463839364
Co 7.117396759137378 7.342102679873296 10.384443082029215
Co 6.723843040957748 9.847242279358918 10.121992431867973
