49
Energy = -288.33073448 eV
Co 13.903221045447404 7.183950628333194 8.604879216290373
Co 10.807168337446008 6.076124270642063 5.7959175722765375
Co 7.155650094153199 10.651153065739237 6.270086793535529
Co 11.371588785342835 9.68290618212497 10.31657680360012
Co 11.507159937387566 10.268221912586476 6.143937918904668
Co 6.102541043143428 5.735258208909681 9.692893388775722
Co 8.382130473165152 12.118019890361326 12.089091731662059
Co 6.709168076656709 9.750296934408537 8.583333565249323
Co 13.296490760362586 8.262613390624027 10.63898662118444
Co 8.768056216331992 7.7482005806007415 12.294420240436596
Co 7.544693658333087 7.3615334419962695 8.59246649833705
Co 7.077437458632728 9.983340792490473 12.566371390762741
Co 12.961467704492089 9.510382471891747 8.49013387119567
Co 11.021579351829532 7.427747654730897 11.425413000912691
Co 6.124351282279843 5.965870482355131 7.373321717795797
Co 7.375518428207609 8.636608668036867 10.614652070720592
Co 10.15781612862982 4.523612981050835 7.451289469062557
Co 5.359357300374192 7.929795248612282 9.230786791020751
Co 10.488985181969825 11.751944070501658 10.941050643608126
Co 5.333711316434498 9.74533419566396 10.891226320728832
Co 10.16714388107577 8.301947843738018 5.694716496038862
Co 7.192987244314169 12.023644027976541 8.1751632830949
Co 8.200138172783573 5.182637905393471 8.40741085811888
Co 6.1397572362454795 8.251880498207745 6.801470932494498
Co 11.20588850951281 11.4782978586133 8.677068577611886
Co 8.126012704111325 6.705178166552293 6.26592415509777
Co 11.733965764664338 7.6096786399760195 9.134845409069616
Co 8.142245114800588 6.253901791330079 10.632625493845994
Co 9.512606062253559 8.083944817236626 9.872230097151611
Co 10.666096980743818 9.33842804670551 7.933942254453674
Co 10.283076912403933 5.7081713572435255 9.719750056805013
Co 5.215688400842506 11.550964885148227 9.369525777620591
Co 9.30189841702345 10.383375141832177 5.1165323910297875
Co 12.050739753165162 5.714504380290195 7.865470366889936
Co 8.511176892263899 9.001286705829033 7.214080847827406
Co 9.116860100297973 10.39785638502862 9.323259027397807
Co 9.27247241941568 9.899171795898612 11.655601971714784
Co 12.684295294218018 5.928740969410176 10.306597340626803
Co 7.2345382290658975 11.082546256911124 10.47158031519075
Co 5.553729660758723 9.586773772527508 5.046096468873049
Co 7.735180345753175 8.668138315808028 4.989712375753711
Co 9.347298442365528 11.365845381076081 7.197910250015956
Co 9.882728961496113 6.896919913803803 7.736395577463942
Co 8.886058343729847 12.709162129974017 9.639221779143597
Co 12.216762791864895 7.8864374381623525 6.814070131826273
Co 6.651960587052673 13.273706112517226 10.333958184817554
Co 5.870377417234086 7.278549462728892 11.46753223552878
Co 5.003397276711552 10.381850477722558 7.266547556331899
Co 5.869203576095683 11.965922523584286 12.086302234989965
