45
Energy = -263.73101849 eV
Co 13.3870037345617 7.883888831355995 12.1272001455492
Co 11.861419059946162 7.766445934991952 10.321268051616887
Co 11.815564972801862 6.076526625064251 12.115781511351711
Co 12.222972791783219 7.129252327010717 14.195448315314186
Co 9.975166582415063 7.6537116637349545 8.882455599080263
Co 12.675658437108934 10.054240594389737 11.870662749957466
Co 10.023016949304512 6.552237525112972 13.61169368789292
Co 12.131716199681765 9.549479087185652 14.162194496765759
Co 12.085112343439626 8.597445840166733 8.14617994216712
Co 11.69900085713317 10.6008228508569 9.752968940796546
Co 9.715686903975602 6.894864039118697 11.114317862421618
Co 8.35149770508819 10.227501588028321 14.143135955998057
Co 10.521562358373695 13.068598150443643 12.96212329637846
Co 7.915951838165707 10.319898169135726 11.68103775017231
Co 7.924563688428973 8.297655713153743 10.209823648227973
Co 8.710382585419595 8.375486562368327 12.61365767408999
Co 8.182825774574852 8.659266665500228 7.843246076644701
Co 12.083717263747296 12.35732315715251 11.354312597865972
Co 8.091859858315614 10.737497279737195 6.953150235359289
Co 10.034950090570943 8.74349609132213 14.567452575511577
Co 8.385529814938202 12.22999772139364 12.981887212311001
Co 9.932724146386175 9.312485803679351 10.611014997982114
Co 9.728358347846454 11.841271569587743 10.977085845370842
Co 10.197126834849787 8.252589487920632 6.49473656507314
Co 7.490178130453056 12.530686088926338 8.24249653799459
Co 8.179482667935282 10.546797075750971 9.350955835180514
Co 9.942042519472038 10.678070582412929 5.665442764936063
Co 9.23224158226094 12.827913472058182 6.613458784731765
Co 7.520462395311613 12.486559805289135 10.633165067402109
Co 11.107068905802013 8.243795628875851 12.486984855425444
Co 10.329146187791837 10.535706260689967 12.786566052568139
Co 11.990739150378861 9.742668270760433 6.177341585891129
Co 10.274610689161921 11.489932758929681 14.816794045236119
Co 10.156832215681627 9.975875091392927 8.001463050582332
Co 9.959130230892582 12.22003136892981 8.739305550034459
Co 8.743632034695613 14.18942758181592 9.160522590260523
Co 13.679016402188308 9.093627796206734 9.91391046492934
Co 8.860879525519845 14.100307119562196 11.548774699750274
Co 11.442703485476558 11.924849578148034 6.946399976819715
Co 10.789579712801315 14.169951045192025 7.847794632612505
Co 12.35536647230072 11.74931418306102 13.590383460431921
Co 13.918044175530255 11.384398849151369 10.272235568180514
Co 13.226141372625989 10.696903804850152 8.023106566095757
Co 12.37277068383731 12.72438554852377 8.964356717049963
Co 10.795120872316138 13.936882797506724 10.303858746872486
