41
Energy = -237.20694148 eV
Co 11.877631250687465 9.584929995727382 7.502751696903587
Co 11.790225869254265 11.679159555806946 8.327186857616317
Co 13.500733903693973 10.060699270713714 9.159373496494867
Co 11.449180831705391 14.068870975163 8.938199411895281
Co 15.361317826864783 11.387490089033696 9.784485836246049
Co 9.210202584062579 14.643251672895428 9.103265611564632
Co 10.085097643561815 10.109701706116082 9.03135942336392
Co 13.281219183874946 12.553940751890144 9.814106213024438
Co 11.69077105553829 8.58947548030727 9.553421926999032
Co 10.264598660530092 9.03055180213929 11.3413179916889
Co 9.77873622936938 12.425670343213405 9.3289903072676
Co 8.77961332960031 13.562976154498136 11.106481880113865
Co 11.169745807419568 13.251889693036299 11.072237707177774
Co 13.094211991981057 14.729973850177153 10.552308806251304
Co 15.055519151133344 13.360146176559933 11.080047499067922
Co 11.724813789116675 10.80192632397738 10.568795640698768
Co 10.255015819545976 15.381517657388212 11.005209492170712
Co 13.98914163415685 10.976052984107891 11.542515522458682
Co 15.304157102296985 9.232666655046962 10.756948989065462
Co 13.161899353548252 8.596507534567479 11.279077790296832
Co 12.053881738406444 15.104017771636496 12.558815902885774
Co 10.604559823764934 16.05941662777967 13.933275228225492
Co 9.552782277436446 11.282816023281667 11.423180712394444
Co 12.816388542972565 8.100603024058408 13.926650882036999
Co 14.53123100416155 9.324650519104019 13.087084340149062
Co 13.215236160337103 13.053309662066596 12.340728241637837
Co 9.738060936214685 10.082314961260257 13.483580767237797
Co 11.9367941881593 9.79018455106121 12.741233309760371
Co 11.180566984753195 11.993428927058952 13.12878488485754
Co 13.485722551744235 11.274828220263945 13.913380910080962
Co 12.880540634977544 15.750977028013837 14.65176983061703
Co 14.356341269410711 15.104402142230704 12.698627565166765
Co 9.887110459804232 14.065588617775106 13.061734892743667
Co 8.680345004392525 12.172173752007598 13.371183562255876
Co 11.520033263897865 13.857531427719762 14.72465873370462
Co 13.908501587794063 13.627492154636313 14.494928769607194
Co 13.784897097754804 9.52500291021299 15.375198188411725
Co 10.221694644571977 11.850239274993719 15.211240223981251
Co 11.607931785001544 9.97835664369889 15.02690335450231
Co 12.524099589898725 12.050797516416113 15.847920373755686
Co 13.01487355877952 14.249895694534388 16.476463347798102
