48
Energy = -282.27848163 eV
Co 9.500044022637114 9.481685821236734 3.957216755720361
Co 10.36953237893804 7.652579944768441 5.07695032884854
Co 11.330486717215848 9.898534041190803 5.267277662547089
Co 11.638959653437462 12.174635744901574 5.948363472346711
Co 9.35449204619007 11.136078304024982 5.596667767248585
Co 8.767054682612681 6.646432253552641 6.556909943547343
Co 6.442700416886189 7.513282481356615 6.582280780897876
Co 8.175113615528987 8.935428901743698 5.770183327869053
Co 10.11889016971613 8.557910548824784 7.118586588817334
Co 13.21661750514956 10.595558309611757 6.671489259089394
Co 7.475569481938695 12.147635708289734 6.804626541637465
Co 12.422260382462982 8.358226141139443 6.551098763820637
Co 11.129939842383948 10.588362179341024 7.561294331805233
Co 11.107684774372997 6.409635561743631 7.201601527694551
Co 9.836459073383523 12.612430729842316 7.442294724831403
Co 5.743212643004054 7.9879280092971765 8.957401365298974
Co 9.494660386176779 4.964367241344103 8.116304666812907
Co 6.385968872888623 9.909398513161321 7.434877993242989
Co 12.417305554753773 12.370285694544533 8.195543285753871
Co 8.706470632425775 10.47867805904479 7.707047383537354
Co 7.251890020286664 6.041309899052402 8.323301882126188
Co 7.932514967117851 8.29714919986695 8.110251698876693
Co 5.894755416100107 11.74192778632954 8.70149293198261
Co 11.846045837175232 8.00512962422617 8.75762049385691
Co 12.314858295810682 10.190982163417926 9.565783880030047
Co 8.131701041535335 12.260296483377902 9.119031196023565
Co 10.031205168963362 9.514730718880738 9.40985254846859
Co 9.59390392943915 7.060791320263578 9.160904237906314
Co 11.21737436003298 5.713730724933955 9.79632471184099
Co 7.3903796748992825 9.964027828788867 9.692179321570883
Co 8.443402963670662 5.15000122314369 10.167993643298551
Co 10.544929590414055 11.828185352011767 9.582094637567478
Co 6.509162541672619 11.895941719358717 10.921796951968577
Co 5.155079179967666 9.937138532660352 10.147457900196006
Co 5.862312751071752 5.8488628924803026 10.180172860048604
Co 11.230934672080512 7.9764849373354325 10.961185683597924
Co 7.565563590770509 7.417331540857449 10.402210119483811
Co 8.804559314926154 11.308806413081998 11.188699292928822
Co 9.012316860192472 8.940561128356348 11.36420547948031
Co 10.949975676113251 10.278132270910017 11.51442199364679
Co 9.543093898947532 6.5592398456769905 11.637902912955429
Co 6.86497764764285 9.864673501967943 11.998298095376477
Co 7.234812017180286 5.784998245445182 12.124870932772476
Co 5.570162541989824 7.998774505061634 11.418093254932923
Co 5.020171234072809 6.011431975970177 12.32130357074383
Co 10.272381318397152 8.376151272713022 13.152694450386859
Co 7.7860375915719136 7.827437376244487 12.948857468947082
Co 8.83712899440227 10.231751277174327 13.258035326166155
