45
Energy = -263.57553652 eV
Co 8.076430199399203 5.3565938357141505 10.487873738213393
Co 5.150586256989145 5.899190295293244 7.368175911592757
Co 9.698835650292388 8.960611765882641 9.228541799688687
Co 7.599521031202153 7.625962884809556 9.919553599105264
Co 6.433936881645915 9.783739486429836 7.020584275299989
Co 6.504379967802642 7.653013434887279 4.062574059165093
Co 7.175908609113772 6.733531328579184 6.043638703947693
Co 8.017797856989612 8.983168355049344 5.319355501403263
Co 5.245954258366799 10.491322508617312 8.957025468866465
Co 12.272597668046886 7.577491005825708 7.371568448480081
Co 8.015363285016676 8.185564499566562 7.612871223748249
Co 7.239212434656008 6.006257262969858 8.268688063623282
Co 10.488833649625779 5.149430066685248 10.167636167074503
Co 11.201821990064586 5.573515671444247 7.770946114238346
Co 7.769286621752156 5.201076356136833 4.459798132561309
Co 5.125016592562988 7.891100502337963 6.035105770037151
Co 8.931039531522282 10.386644042685493 7.320236132949689
Co 9.218990688157334 11.284075422571284 11.790859162683414
Co 8.15050834670099 9.23785006842688 11.523006614103906
Co 7.036273891304615 11.24515115296887 10.877830605911909
Co 5.413260526464722 11.751992974041764 6.46823600702795
Co 10.113343311330759 7.829292971253659 6.649735301631777
Co 5.761332220601217 6.241505588456224 10.095738561546296
Co 5.465220982692138 5.642072525679507 4.987403073639495
Co 7.084216637859595 11.817226117205777 8.161666891309352
Co 9.134375746432497 7.077364824152921 4.624172836090352
Co 9.460064919659082 6.593637997422654 8.736649649269943
Co 5.586235382818815 8.02963257923164 8.481000181965635
Co 7.587820148729065 11.303329101099669 5.639563708316791
Co 11.493543984082079 7.455343908930297 9.51807902473782
Co 7.110544451628248 7.045740562537604 12.014024058733604
Co 11.16244336780073 6.1275377913434355 5.4980395089862215
Co 6.499761246915536 4.0534869289595274 9.064376471952231
Co 9.153978777141528 11.3009255694683 9.542099613632592
Co 4.155720408261384 9.72930971538537 6.991958523723619
Co 7.4295834046953235 9.800845428169266 9.231720449622538
Co 9.601830779431387 7.204005750973149 11.081668509155605
Co 10.163946053044558 9.81758649571471 5.483913344304868
Co 8.83558784743832 4.280160290073967 8.505227469766588
Co 9.15971862173184 5.4805959290754345 6.48649557228688
Co 11.189572165885375 9.665123602122616 7.683479493948417
Co 6.9035982850157165 4.418983069814446 6.627035920403501
Co 5.85028320056515 9.815096956993397 4.807809914432415
Co 10.488831703015416 9.358476659509948 11.256864235476996
Co 5.860841126990054 8.953387426944976 10.775122896786728
