43
Energy = -250.21405495 eV
Co 11.843492200720092 6.702729063755514 8.876570145699858
Co 13.275598102118495 8.330053016802587 9.662436543859364
Co 13.216757674643137 10.043705723742347 8.167148971460191
Co 15.14473325541421 9.578056800734279 9.695765515940208
Co 10.863197916569773 10.653933594671148 7.152878543873161
Co 11.104317442873432 8.912689026266973 8.606738544004203
Co 10.777212597490534 5.800950514841517 10.69492092833552
Co 11.418139994846333 7.986424401348196 11.0216171760505
Co 14.006549041517232 11.493109811726145 9.89022547092579
Co 12.555572584829738 8.21572226053348 13.047734322991293
Co 12.1615882872619 12.110628841311154 8.430062631649088
Co 9.601720793564137 7.295153136392797 9.200626587568378
Co 11.93881379097538 10.413300809301573 10.190348319029207
Co 8.786432378130943 9.353326047306838 8.338071026356424
Co 13.397017081022604 13.711409939822019 10.109636890889027
Co 9.83164594123038 11.369530717923077 9.169839383467073
Co 10.142672954378769 12.97876562985925 7.468796877374799
Co 13.641831613734926 9.66418645902881 11.568671582958343
Co 9.107276232056718 7.229058595378375 11.478458100910771
Co 9.491682199896191 9.41527677215205 10.590684615307994
Co 10.905810843132679 6.5957406760166135 12.913736958167767
Co 11.850384574685048 14.40303626132452 8.378091996804224
Co 8.580944121938476 11.250652294742277 7.038950814541398
Co 10.175071942006527 8.90550908456654 12.936584665483748
Co 12.856018112845165 11.984463760518203 11.8866691427281
Co 7.423456845416897 8.808606968987176 11.561981221463354
Co 8.730712275438536 7.150786068449856 13.650462137455698
Co 11.2136297967227 13.055119835762724 10.408728304928252
Co 11.615426096454916 15.429811602153412 10.38473293652084
Co 12.048613703497251 10.387640172223147 13.394614133485545
Co 10.473764226763338 11.32884629670934 11.880187601392237
Co 7.995469922071751 12.840575367481883 8.590095455639238
Co 7.652108203511355 10.772734625020188 9.860949269010815
Co 7.960340197666762 9.242950848091796 13.807594401970341
Co 9.61269190467899 14.383829734954963 9.313539847894983
Co 12.186087490276124 14.2142147275749 12.27484604452268
Co 8.67439521965468 12.76545590718963 10.818849197190449
Co 11.387389411066485 12.596160304998712 13.764442343604243
Co 8.229523877789564 10.847235686541474 12.163580489743337
Co 9.68529291224792 10.901571071846673 14.085877662504679
Co 9.917522207172443 14.613463641647687 11.709660580610544
Co 9.178112681761627 12.959975027270508 13.165621700298603
Co 10.571364357479942 14.75588621222552 13.888100968429468
