42
Energy = -245.57825947 eV
Co 10.530482568709294 12.957083191605278 7.178290439079604
Co 11.919131503893167 10.731182542570727 6.779056634535974
Co 12.577535060267518 12.661842131971605 8.248174320410827
Co 7.089574723876692 11.1379675881147 7.572039688642067
Co 9.447515973952473 10.859613286679954 6.697892833018277
Co 7.924538693280232 8.964238737503907 7.193015726496986
Co 10.76678944074106 13.222571559993957 9.929409431310779
Co 8.773560898576456 12.569818515078774 8.572681556624035
Co 13.970758985449597 10.818407080051438 8.077551787766495
Co 13.112067690091637 13.525563603477142 10.352479996239346
Co 12.466442886909014 9.185657806072518 8.586610728140649
Co 6.894458428811726 11.347204754438657 9.889201473200135
Co 14.7970831943507 12.033269548155689 9.857362217765244
Co 10.785841997179057 11.176344770419353 8.672675590045733
Co 6.676990178591112 9.078607258387397 9.348911606581067
Co 12.629066458583958 11.132211527090424 10.09565742413369
Co 10.353611424084253 8.862717273238909 7.740409079060114
Co 8.371002396363664 12.872215217644726 10.825330527332738
Co 8.72579454844265 10.23204816100274 8.883360434682155
Co 8.778843286612258 7.88466002073044 9.2405541382633
Co 14.51111073760515 9.666325885790835 10.171489214501111
Co 10.142410697344069 11.314647276984077 11.151865767330298
Co 8.363520432687416 9.562974413562287 11.055423209650542
Co 14.087694883245181 11.14039047177019 11.95719823294716
Co 10.632622383566542 9.20691396667534 10.183214117341622
Co 12.804775000568933 8.255912306088144 10.688717693258447
Co 11.058289090261148 7.078537969121385 9.635351696954011
Co 12.05485605222083 12.50635610647496 12.07128225612724
Co 9.849760306256657 13.256574721481293 12.466306114929624
Co 6.2275169598809486 9.983023281522593 11.741738667742938
Co 6.4242482276162045 12.273935625656433 11.984845207971109
Co 11.96151675022884 10.040222837549198 12.12692966566342
Co 7.164191455385892 7.614409963018502 11.17330863076568
Co 9.499003653778848 7.433507753146562 11.449958734774746
Co 13.841179472216176 8.894717799943278 12.680483584659317
Co 8.307542819451719 11.234774312055354 12.70929115127835
Co 12.891357159927047 11.14721604144004 13.983231393452318
Co 7.625885990631761 8.749458307501131 13.152473612637156
Co 11.576319698179411 7.6521826001918924 12.485249414485555
Co 10.586082243981776 11.377763779810001 13.600936777589357
Co 9.845167012059276 9.24055711469988 12.97211549529467
Co 11.89869181639338 9.081386758507492 14.253631438416573
