44
Energy = -258.39846553 eV
Co 8.781273237741829 12.864005743394856 10.551662162043074
Co 9.986196124562055 13.903175463744459 12.238976985955615
Co 11.059180887917812 13.360071203081901 8.04535902211413
Co 8.737609814998777 13.594865484421229 8.294488026285844
Co 12.131197934502591 14.583009631023929 11.466004562578147
Co 12.845457635184689 13.731247004474373 9.44611693093755
Co 9.683624322034436 12.11095791516254 6.58630622255991
Co 10.306341793878204 14.58711895427038 9.906068758858607
Co 7.323071735371901 10.946398199333697 11.101650128151999
Co 7.467795154283475 11.64425353751276 8.819510975858561
Co 12.058252520807004 12.001121327288912 6.444229166684435
Co 8.50943880031542 12.07417360760043 12.865706867302908
Co 10.909593453359788 11.923441022859004 13.046605214644485
Co 12.275608220870472 11.428225232627081 8.720018889328506
Co 9.734085371320543 10.767609240604914 11.270497596219613
Co 6.182271992947889 9.702925734317994 9.39370789282109
Co 9.800690948572653 11.511698050064762 8.842094828485205
Co 12.986618544614757 12.639405310251217 12.35954458353653
Co 8.450474912957434 10.215367381138082 7.2625975216446035
Co 10.889039356842394 10.142804402074098 7.175963693508256
Co 13.815861683025844 11.843428247821699 10.363538899825631
Co 7.1787745702813375 8.506591686350989 11.155100658188683
Co 12.234795472851117 10.517164599959388 11.463171279650382
Co 7.289513273369606 8.26400313733618 7.894733434930884
Co 8.384584001280762 9.64667550745353 12.908836019605763
Co 8.506434350390993 9.535137488738876 9.50040263766194
Co 9.53029487528463 10.845597487837953 14.564576772531252
Co 11.2403587981844 12.573925588192296 10.681289583511827
Co 11.001286384172786 9.47252994198354 9.569195704883624
Co 13.289227366384928 10.003544898245963 7.253898649955229
Co 12.134793762445208 8.175244304243014 7.945679939455708
Co 9.621505748291138 8.286919924037289 11.309145499104694
Co 10.787454643803594 9.508430534387607 13.079198215679892
Co 9.675711693337396 8.191541950474905 7.871119044816145
Co 13.348948254924734 9.443581373183633 9.658085690290845
Co 8.366795675472659 7.148366668445065 9.646271481267856
Co 8.291396295366054 7.260720299979213 12.911038738792998
Co 9.424880669176952 8.377092770870323 14.600516105667143
Co 12.055020859216226 8.188663422222614 11.372355984806772
Co 10.820169590352096 7.031200382260584 9.64112617872218
Co 13.17832548388415 7.053947574356398 9.648961044214998
Co 9.582086973949288 5.927968606378752 11.309047379039113
Co 10.703532640670792 7.13833674891242 13.025757490588159
Co 11.892065346866897 5.857296673626772 11.368222458400972
