40
Energy = -233.76548933 eV
Co 8.023604099383233 13.806964125657114 12.136677521657194
Co 8.15077127313454 13.570884771816301 9.551406308697327
Co 11.164395299053119 13.146265463872863 9.42435372520609
Co 7.339559995434734 11.830789693924304 13.210815730312689
Co 11.353573753854269 13.426240104515264 11.878783489497437
Co 9.592821470415839 12.622255060290863 13.371777527052359
Co 9.51895614930746 12.479302375919344 11.013758593907557
Co 9.456353902752488 11.868076670008078 8.635478830665518
Co 7.162179137025081 11.663419385570721 8.52861610472477
Co 7.064047127570839 12.058548642272001 10.921038850322569
Co 12.614363675645823 11.841900722695202 10.652879336065979
Co 10.684635064827214 12.221312649411615 6.75834740259567
Co 9.071204083196875 10.49862342771831 12.464768610081581
Co 11.41136217197622 11.228832768937945 12.651843894126863
Co 6.82180913825339 9.869684780496495 11.961967916022564
Co 5.956325142896906 10.037838905414098 9.771492570529045
Co 11.83127090067741 11.064945177422254 8.42331388258612
Co 8.763101396543378 10.786659161863737 6.697860045249307
Co 10.70105203797039 10.462621944677737 10.547596242866259
Co 9.798338016016823 9.475504875760508 8.356706321090078
Co 8.306822693465838 10.246025342768325 10.131108840194946
Co 8.457020007788788 8.198868158511589 12.37721462255119
Co 10.805668891927535 8.864190519518194 12.495032166637248
Co 7.364690650017491 8.105460004771036 10.222678691609731
Co 12.78053947975942 9.595025803695226 11.442848564436465
Co 7.437490827976437 9.304147446111578 8.07263235233378
Co 13.788198629875932 10.185965516383327 9.349079158411312
Co 11.056173374366738 9.941178822029089 6.457736278234541
Co 9.011946375755423 8.48311330204502 6.349974216737385
Co 11.918746232481787 8.769654133581115 9.352558167615625
Co 9.768522226735499 8.17760366982268 10.456365431833975
Co 10.130884175672024 6.537043585199106 12.189849535177194
Co 8.64687804712494 6.103648582121343 10.49449784787705
Co 8.753183301303718 7.312827750102417 8.407248243753266
Co 12.994562831096513 8.938214368089945 7.3743176637756
Co 14.081804781628355 8.042121426421406 10.166862431933712
Co 10.978853339486704 7.639301680001543 7.430194580491373
Co 12.030115251604983 7.258428548926902 11.086414528727506
Co 12.930948694193567 6.820708001225125 8.578941845919097
Co 10.703974009661229 6.316483570217663 9.365990773172788
