42
Energy = -246.2576545 eV
Co 7.4257729911539565 11.946819481561977 13.694646977015042
Co 8.96950944320656 10.264285898199102 14.61397355116869
Co 8.17186895633072 13.404143963687304 12.049961663937815
Co 6.594130824867507 11.663464945403721 11.503430784261177
Co 9.642820311095694 11.790589753143605 12.954762722841322
Co 11.176811501686485 10.125387863405765 13.849860788417335
Co 8.061605121239689 10.057061554882848 12.44171872369607
Co 9.606324652956397 8.418354019028765 13.34307850616992
Co 7.321340460597904 13.157477475221574 9.75740761492236
Co 5.784897660397872 11.479172155776784 9.293763944364937
Co 11.91941538947858 11.673034544328768 12.100390167489039
Co 10.394318260285608 13.337261312749005 11.187908412612488
Co 8.788607822684265 11.593972934924512 10.691495255224963
Co 11.843107743866069 7.894406661165763 13.79377504561435
Co 7.201814108823089 9.804698557627963 10.143492735458118
Co 10.343778211577078 9.897368891490954 11.62467188569144
Co 8.768316734943374 8.150436251541159 11.053240713581893
Co 9.552586940806075 13.07370192507421 8.937892848114888
Co 11.099000702930057 14.679177403688728 9.439113745975588
Co 7.947866243774255 11.296808082611527 8.406850810930266
Co 12.656867865731291 9.325749140665737 12.100310665184372
Co 13.320140055861646 7.068717380211026 12.006957022061787
Co 9.490751756288608 9.630239047177593 9.279805079629943
Co 11.07562707477862 7.590751111380363 11.586899606599358
Co 13.420569619515009 10.868367885239019 10.335157083493794
Co 11.833264845708916 9.069891482987323 9.818410043054635
Co 12.687651471415684 13.160347962418733 10.312395338086358
Co 7.9051816034481535 7.9576651089674355 8.766708221837746
Co 6.444747863577999 9.577081053194323 7.924840041420338
Co 11.099111776102612 11.47940298846562 9.831521895396703
Co 8.630701992265513 9.438204872527415 7.059324719109505
Co 10.229856531349105 7.339086783579078 9.279450099865906
Co 11.865843507885815 12.929324073183354 8.098280956672003
Co 10.247242253088125 11.187545961193836 7.571368945321364
Co 14.060055393172247 8.574047896280426 10.344818648753048
Co 14.774972957577615 10.009017623482832 8.612875969926463
Co 12.484598463631118 6.816195553717412 9.856261366238552
Co 10.974186164341267 8.867583563459622 7.564272011103198
Co 9.43074946160289 7.248820873792387 7.105548601768738
Co 13.234505421072328 8.351625061503592 8.090732646078397
Co 14.086095224800667 12.343431250700615 8.62643631447519
Co 12.578757686025295 10.643509595824307 8.090349009312677
