52
Energy = -307.6336385 eV
Co 10.492362037497017 10.17235092111182 5.148823809868315
Co 8.683168270832308 9.041503263403538 5.948002490078724
Co 8.526627865277646 11.172794340203023 6.802005029503131
Co 12.414124981221308 10.386112650529938 6.451493260915304
Co 10.547717740111567 12.061038283003361 6.567555486497871
Co 11.294163003315568 8.076602703584353 6.180687883908221
Co 9.107505708938168 7.5089719578714496 7.572896974819493
Co 8.13958800472995 13.412270698596464 7.1627360974108285
Co 13.993049350230143 10.796083780962816 8.248345391971123
Co 10.422152803398202 9.691470511113724 7.487814923297936
Co 7.9079604598641335 9.487375273893795 8.278325896417371
Co 7.301803523317384 11.773699196566923 8.729962288989407
Co 11.916123483101128 11.746117856549901 8.38739611533413
Co 12.650445772841959 8.797954875193096 8.11673009647796
Co 11.239922410605502 6.977353598474816 8.269439944407665
Co 9.900243871431032 13.306951878798042 8.541539107497911
Co 9.766178887097327 8.484475725925037 9.582750754800898
Co 9.421968138768282 6.193007125621424 9.66377346166402
Co 7.441816170613953 7.699437775225495 9.601058551993209
Co 9.604722125211625 11.0518762590709 9.135439895476487
Co 6.144115557117414 9.994946712127463 9.887037636929799
Co 11.698793098357923 5.402979747376409 9.833518490423126
Co 7.598838903986275 14.096261936399237 9.331567873064746
Co 13.256836436758247 11.571446252537335 10.496874567461152
Co 11.572341352710234 10.060290772313863 9.980692788692982
Co 13.916042771976649 9.31701848214024 9.99074788058477
Co 8.720993067998748 12.538199670141687 10.609279530460123
Co 13.861101824688953 6.9019678053350795 9.435127642845094
Co 11.192534820360718 12.648122546906283 10.51551563112537
Co 9.667253129359983 14.664033476293973 10.505185519381097
Co 8.195825123772146 9.926331683577109 10.820277866907379
Co 6.5052988170275325 8.31042212879816 11.693119335250113
Co 5.836033217952261 14.475159891262706 10.712684929268065
Co 12.04620285093422 7.7292828731200345 10.429765939637667
Co 10.08289601008107 11.033376619831543 11.876905600193288
Co 6.385664214434628 12.282866726246084 10.829198425376328
Co 10.471467237431522 8.765582433211737 11.82471211300838
Co 10.660042743109171 6.312873357833809 11.749025640260763
Co 7.751754450668758 14.189386310212088 11.863916714881311
Co 14.252915606982464 7.835254345767509 11.666216575412527
Co 13.133599499864706 5.8881952799727495 11.55304293195092
Co 12.732081866702485 9.807046814545402 12.05792924495443
Co 8.61499150047666 7.477721235262568 11.595596902663186
Co 6.270670463357842 10.455736801551327 12.264944732687647
Co 10.005073213441136 13.384470081765357 12.480042823859279
Co 12.038073661258137 11.94029987590355 12.649939557808603
Co 7.9843579519303 11.902891277715355 12.713746173463845
Co 12.214540034041155 7.634674479984295 12.968246194036837
Co 8.574344456223507 9.533318567541087 13.139289668376874
Co 9.957584256252803 7.607752525143471 13.741214595088136
Co 11.04814383818875 9.776908968577672 13.78619098221118
Co 9.829948894431897 11.68973712518758 14.11367351068697
