51
Energy = -301.83177667 eV
Co 8.466373752831645 8.870941215668063 4.916162290565522
Co 10.8714040428152 8.00064971296304 6.037779914451473
Co 10.484429717467835 10.403192126012996 5.503825055513546
Co 6.6459121609899725 7.350124680848114 5.659613111640103
Co 12.647151900784591 9.424241796285749 6.2998500684273555
Co 6.637601459894925 9.506099531511776 6.476166256338266
Co 6.051625352516547 11.73690407714933 7.090580233422275
Co 8.740363786350589 6.83390781979065 6.401782864704456
Co 9.076953361243655 9.249198575418198 6.978280280061329
Co 8.185120704670322 11.234534830526655 5.902563258638095
Co 10.88234735865144 5.776371142658143 7.213049948802371
Co 10.023224341919663 12.771548947021536 5.819437455440599
Co 12.365250288686559 7.572840985994782 8.298115995379739
Co 7.482745020478517 8.055541103287185 8.218916688567937
Co 7.655874071447506 10.704854070533399 8.34981038292256
Co 12.008508694184853 11.73953396540393 6.815739347023624
Co 13.551956122508686 10.670004960137657 8.153856871322303
Co 10.037640530129835 7.5795251424237025 8.200557745111873
Co 5.24727787373564 7.770250546240723 7.5562918395538174
Co 5.533736019640081 9.98043607305471 8.758737658815663
Co 9.85743669628062 11.423882969925339 7.636137097171316
Co 6.720176975929383 5.904930748564652 7.586928128249019
Co 11.38291739030028 9.711907188519708 8.14765086837973
Co 8.035950354304491 12.92950160586066 7.742956834205005
Co 8.855190939291528 5.514371184758637 8.505867097519761
Co 10.441772714619932 13.599049166272899 7.995888976392658
Co 6.921898893128766 4.350649856413209 9.496339319191076
Co 9.221405579760452 12.215108365256933 9.713913210438246
Co 6.646980237694654 6.524822796765391 10.049216081219285
Co 9.290240266146553 9.662522111868345 9.468031120231535
Co 7.1048509466552 8.900218545921343 10.379949343240634
Co 4.828722903049545 5.840694326255212 8.886629751367856
Co 12.879111599622819 7.24080784107886 10.688839667800496
Co 6.47609622528764 12.085887110441572 9.67579608263236
Co 4.87527859366681 8.06383997735207 9.858685509984594
Co 8.707268940637562 5.102123575244937 10.876272913036134
Co 11.008597490489523 8.312975895430645 10.214702041753997
Co 12.747941186895929 9.765951133721286 10.15506061802002
Co 11.637179118569087 11.846404593076773 9.181339671346935
Co 7.941582572231348 10.930556324795033 11.147274236217873
Co 10.949943784044809 5.958762301170453 9.762832119255346
Co 10.710318365412512 10.678040362159448 11.014595934564861
Co 5.56373612769868 10.370680907143011 11.112832643842827
Co 6.531601891553596 5.196365449619031 11.84930449650331
Co 8.894637346739161 7.269841828623764 10.18542481686737
Co 5.777535266816297 7.643425150214922 11.93739501494823
Co 11.739002248285889 8.8223163049933 12.28274123523331
Co 10.405601152463719 6.817324723400417 11.943024491914048
Co 7.1261000521391455 9.31801729113689 12.774312933277185
Co 9.25898687266744 8.973936730458071 11.888771518704115
Co 8.009415621039405 6.93735724499827 12.333143874158042
