50
Energy = -293.36108732 eV
Co 7.9791338690813145 10.530830337294498 13.04049110070504
Co 7.803774445916443 8.380626176343352 11.78656564936095
Co 9.30881171281434 7.612946024579565 10.124321008605337
Co 7.968455184369586 12.65397634211796 11.769824255106743
Co 8.471922668449857 9.881855984675822 6.7097621555789475
Co 7.035432919931374 10.645597727302825 8.370864911042101
Co 8.987570444250023 8.63274207693878 13.858845553654492
Co 10.741866906220647 7.504534708095025 8.107651629172475
Co 10.295921327631271 7.452308385058942 12.271168850567905
Co 9.694813161280464 8.060398541006384 5.9034214960951426
Co 8.244772070561124 12.666795794691296 14.156936145233653
Co 9.513416765255949 11.848049350193675 7.861753889511737
Co 9.977033872660881 11.731223318812358 12.759313422592848
Co 9.599425934455939 14.100540096698738 12.851814734012738
Co 12.831155726321175 6.636412175488446 8.026913624116533
Co 11.979438956233194 7.915536510091414 6.170836989173546
Co 11.385024972684253 9.041091181019675 9.798082689404854
Co 10.770704178714642 9.748582065456088 7.169612918047308
Co 9.072982865186683 14.114837248090168 8.131497651623272
Co 9.131218835739062 9.697793384660228 8.975700875531299
Co 13.204622065656618 12.545851231189415 9.968874793600468
Co 15.29176436598711 11.570264417548966 9.905813279175815
Co 13.59497586089076 7.764653907666314 9.909374966848743
Co 8.43093118280741 7.712807133463197 7.789044129646087
Co 12.899812326359903 8.971862923520918 7.997797150786292
Co 6.472665638496993 8.678872425326453 7.267971653951157
Co 11.696243105140399 11.16650747291741 8.809702748669682
Co 11.553560832200658 6.748118534982822 10.222201401100763
Co 11.951039652280336 10.843914988822512 11.461408999521346
Co 14.237017722559386 11.55160748893684 11.910940825362625
Co 7.126740945480562 8.56492745406421 9.541141150472747
Co 9.819741723832033 11.70963117288053 10.26270752672199
Co 11.080677683278937 13.38403198855128 9.084497345168302
Co 12.352302673995045 8.468528437839282 11.840994075344902
Co 13.646927741554949 10.109911025979667 9.95392210492896
Co 14.655376413942767 9.055538396132008 11.672563379297758
Co 10.991137420971004 15.41962636058661 11.259617764877202
Co 11.366277231278152 13.1854037807973 11.429599957819859
Co 9.716534198609137 9.594856585726749 11.500256988412604
Co 7.807953796961054 12.614991468359406 9.354486692295444
Co 9.299390301166744 14.132493313357628 10.42915989348082
Co 13.563473617329107 13.797906390730535 11.896149681111055
Co 13.341590138817669 9.993960646365952 13.369785012413468
Co 11.047995758985008 9.615408593547956 13.499493603967345
Co 10.66132499765616 12.943709558895174 14.67519673842958
Co 7.668189725473249 10.562125402731208 10.694756095027493
Co 11.874543463086846 10.932007577856663 15.185831085099064
Co 12.43634614550512 12.25764086713862 13.371391298999667
Co 11.838628383308363 14.561130403871203 13.31958979359877
Co 9.543945570774234 10.793031094728521 14.87567575702944
