5
Energy = -21.88661486 eV
Co 10.094045820515653 9.668206049812888 9.184887738316304
Co 8.783617490010252 8.175889405264662 7.590032915732186
Co 8.31252989333928 8.600876041183268 9.80706748083898
Co 8.50553909966109 10.29769574341752 7.934178507197541
Co 7.715305050960347 6.736369973879493 8.834328752406785
