50
Energy = -297.30726351 eV
Co 9.106632828605107 10.232251222641104 4.605613120048629
Co 8.285326651126766 8.0889052256529 5.414258322773544
Co 10.69755369549319 8.597418313928072 5.526498554881117
Co 7.041405053028782 10.145302396035746 5.911119417150061
Co 7.460549401222407 5.948046447291429 6.259099866234266
Co 9.892862680702784 6.447674505116522 6.357826908114931
Co 12.301787933027065 6.99256073300745 6.501262153002896
Co 10.906934535813477 11.003865572652467 6.052094190334629
Co 6.203954571003605 7.982270836069523 6.729551491794061
Co 8.633365879853269 11.95574121192598 6.292976581501896
Co 9.158493914361733 9.731900141421136 6.909306480729817
Co 5.003809048776715 10.077699000404564 7.232161216893203
Co 12.48052669389297 9.369655976559224 6.97314331889702
Co 8.319353276173295 7.568873159002363 7.70897984952777
Co 6.5730968243071715 11.873831872190108 7.617878671111369
Co 10.744960676893122 8.112758758503885 7.851949551294707
Co 8.73604405053554 5.316751767448033 8.245697610551177
Co 11.148699487406185 5.818778084252513 8.349945677066613
Co 6.482475911170446 6.283886082334521 8.472167305468307
Co 12.618908590484917 11.806346237897714 7.292542635109938
Co 7.072332566568513 9.64012202129036 8.219267164159259
Co 10.43483257591671 12.730434776631542 7.705458893496881
Co 8.237594939238443 13.65964237230939 8.039468301319705
Co 11.12620228085327 10.581932485210132 8.510212591229486
Co 12.779724869689748 7.5425955893783 8.798882809235415
Co 5.2409721559480476 8.34742449672109 8.962309073142366
Co 9.220636634334923 9.260610594083891 9.214796506098414
Co 8.718847269990746 11.44315378732526 8.610634116445107
Co 5.467179988502105 10.720146143275064 9.549735941554868
Co 7.111715901462601 12.576415961121361 9.858555017016027
Co 7.545228050538514 10.395063895898403 10.598181069067588
Co 9.610100162486976 6.986503380035453 9.71030747458931
Co 7.353794731809803 7.950107548916726 9.948792901409275
Co 9.447915824813062 13.089689437614796 10.048129419258762
Co 10.06635249237625 10.904054463069476 10.6832405703539
Co 13.260400133051665 7.969980822665332 11.154468306935412
Co 11.65324407740741 6.455285377607735 10.682444458774896
Co 10.005241396983275 4.722734325131447 10.236890451314004
Co 7.7784074980947215 5.68554843434925 10.477559759984434
Co 11.406896806355633 8.909019852962867 10.19614749551482
Co 5.57022232940436 6.671375442203452 10.73396029802644
Co 9.18726482834035 8.660867957924637 11.45361662642427
Co 8.466746867281158 11.966183693842337 11.991013910776468
Co 5.748945978774521 9.045151021675197 11.272232221023419
Co 9.559333800067366 6.38285150507918 12.000480292756317
Co 9.935539508179197 10.251670525505094 12.942696005571753
Co 7.32684967170749 7.359000733633684 12.242715679889255
Co 11.219318307916033 8.090948274248333 12.434069621019036
Co 7.607138044642377 9.675978384915739 12.830004527858126
Co 9.180348411127488 8.107058958782615 13.725725381011303
