54
Energy = -321.90211716 eV
Co 7.898007546512646 9.166409913370186 4.469556707536993
Co 10.353176468046398 9.462828808040138 4.980514202396239
Co 10.12031394088312 7.233766580537129 5.4555509157643325
Co 8.909967520170692 11.142367785891718 5.614213667526896
Co 5.703111888527704 5.960323557268675 5.716713488543849
Co 7.925889609945954 6.611539910213657 5.839958501092399
Co 11.752537546549615 11.13876502110418 5.879154418615404
Co 6.201167496029079 8.243955084073335 5.912609559332027
Co 6.693234953026756 10.570773280545122 6.2204387078468875
Co 8.559018195758878 8.823025160293176 6.556223542778921
Co 7.67553706313399 12.84294351932274 6.556736772792995
Co 11.919984694972314 6.176944089005249 6.674203413899866
Co 12.084305347031847 8.62206027652023 6.358189013107069
Co 9.57813875782734 5.4619941965897025 7.161298361688198
Co 10.478910898282662 10.036950486223013 7.341383200471315
Co 10.15060994619212 12.371380754388964 7.238092164996777
Co 7.1688463589277225 5.001444014653736 7.426593892235534
Co 4.4800360129105465 8.866738040731438 7.4642646511915185
Co 8.252954260331634 11.148915210998346 7.915967210433263
Co 5.66447997999065 6.861416960185909 7.7879875439308135
Co 10.421774572691447 7.60870196149118 7.750355835849217
Co 6.663233154246851 9.114924303659995 8.137627054897315
Co 6.483835239726497 12.236114762379367 8.743295607575359
Co 8.04803842369759 6.997687459513621 8.193166891538562
Co 12.671423618116076 10.109797307318244 8.162948890834855
Co 12.665938167326221 7.642678603603187 8.518893846535983
Co 8.94178605441935 9.116071011517116 8.879701766637881
Co 11.190179159572141 5.718221403113355 8.97605379676483
Co 8.798609458158653 5.083373277287602 9.405584550767122
Co 5.110815867157005 10.390194636172078 9.328129439215108
Co 10.111175931538005 11.26922538384891 9.376249997587674
Co 11.188537015952608 9.077748720950874 9.614681066799955
Co 6.5699539696512845 5.903075517769824 9.740166928935276
Co 5.107488193658193 8.063241955264484 9.726266242431585
Co 13.419922841987074 9.093201067652013 10.334205771455157
Co 7.3935144900620635 10.461780436839227 10.022775518614885
Co 9.669966567451667 7.157509570078432 10.064451476360277
Co 10.786044655653603 13.112165088795555 10.4620689472781
Co 12.15659867458379 11.067774364681378 10.471808435097365
Co 7.357806996650523 8.046211976962686 10.326507331049063
Co 8.401839221040936 12.482364654416664 10.51304053793575
Co 11.909384630370923 7.169657214164596 10.812715216107291
Co 9.279466299340669 9.366041019374036 11.176880793520862
Co 6.041446901326235 12.0165044881742 11.071235973151223
Co 10.396552910883397 5.296293877870446 11.27735136524625
Co 5.887578679497419 9.526030371530524 11.527964273134062
Co 8.138129762563757 6.174563010706396 11.570125393405611
Co 11.53555900591445 9.315271309656252 11.953855253197386
Co 10.151669545515652 11.419981695338516 11.845692584679037
Co 5.855711598901649 7.058865211005899 11.819977555417369
Co 7.824897404743946 10.856477136981448 12.29341634225897
Co 10.015496838314112 7.465093151662303 12.394897492107543
Co 7.734959299652694 8.386845157591923 12.633810115456983
Co 9.674704966948624 9.626038845037062 13.478716374340635
