52
Energy = -411.49834087 eV
Co 5.830413331228936 9.401502368182852 6.8085601405123946
Co 7.622304868181483 10.104172075730686 8.637353583068062
Co 10.940927977329725 12.73373426444114 7.742396992734889
Co 10.850317339408644 6.415887555734415 8.18444950246594
Co 5.28562670279103 8.351547501960654 11.38376964507934
Co 6.868489641613735 7.307375777733826 5.749938478580147
Co 9.176353260679038 8.23778277099427 9.111932576301244
Co 13.26808527491331 9.771676719333618 9.980588813416125
Co 9.352456359444478 7.9770802660707485 4.9541310738011815
Co 7.5411706379263554 11.441882204798636 12.454168842529118
Co 12.297857898812163 7.888537321324457 11.547167793972928
Co 9.81953135727249 12.02612380084766 11.552978339368714
Co 5.33043716331499 8.956463866205143 9.116365269610045
Co 7.680869245645964 12.165768566371218 10.114846670408877
Co 6.198412072975825 10.305634746072903 10.753162124704382
Co 6.960316053769352 9.308102285146182 4.660696193678091
Co 5.629140214181373 6.576450224782544 9.608463566174905
Co 8.462680160755747 6.320168952266866 11.840341916696554
Co 10.781996744449666 6.486381719054959 12.89121162086256
Co 9.74968973768367 8.295826082826517 11.596191986754624
Co 7.319264031556669 7.941435965786236 10.558697246052986
Co 6.867320963155938 5.510867371784762 7.527752116158509
Co 8.349683144994275 9.105631380670639 6.651672820511061
Co 9.398107086846444 10.257289417326616 13.177707676351629
Co 12.098108262507022 10.398340396303293 7.939938650232863
Co 7.121038140971949 7.749557615944269 8.148317049346327
Co 8.388627373001109 6.013779150121469 9.357628226027478
Co 10.490496894566169 8.66088372055203 7.2177697646712025
Co 8.928382753581387 6.662222584887201 6.93194643346909
Co 11.260346044246146 9.406431696695263 5.183428826616601
Co 11.424314922373636 8.610257705620093 9.479614281147656
Co 11.287051529672944 8.878440445548312 13.479907817104534
Co 11.217958191610759 10.186119605666784 11.235940091235317
Co 8.64060838411567 10.060931764046146 10.827275812228443
Co 5.024914264109729 7.085397901936366 7.351762643236305
Co 10.02386325807212 10.880947642085694 6.625173595695532
Co 11.490368846325445 11.249784467883444 13.253020264773992
Co 9.12606997608005 7.895044169933964 13.82922266475469
Co 10.009847652473718 10.790035748990865 9.118041745146455
Co 12.778747507918576 8.023788196574992 7.532380853105444
Co 9.020355450092282 12.644806432169618 5.688024725134912
Co 12.77386826987619 6.756507775262553 9.595053647073382
Co 11.269115096771484 6.944181027039425 5.854491109602984
Co 7.284545657985628 11.22805029274296 6.291211651278453
Co 8.433096213205822 12.366765651923862 7.942789731187483
Co 8.998834729133986 10.387514011685674 4.599123563460084
Co 5.901315001950437 11.405117611382241 8.43731283242512
Co 10.509628654322047 6.377172212401827 10.462882725876195
Co 12.012803915978171 11.847942073100846 9.85337308823531
Co 7.361171962728735 8.961787987070705 12.638913692890764
Co 9.789379919207969 13.256936043371857 9.681725650164294
Co 13.245083101778482 9.87532610719966 12.330577117674709
