55
Energy = -327.75404476 eV
Co 9.888015676131328 11.860374338995399 15.456793028590836
Co 15.170704882356462 13.601697983391205 11.944890560093175
Co 14.295025651857511 10.2021522519919 15.283592380307946
Co 11.658225524350975 11.928046477445854 10.342759759881112
Co 15.174563240270665 13.925139484270918 14.42619023309498
Co 14.107278451917342 14.516165872480919 8.623249553228964
Co 11.203783001836808 11.53311471018577 13.498226712490453
Co 9.552148799132413 11.820451475272666 11.608021328239255
Co 13.106443377445585 14.331300064932393 10.811938402194881
Co 13.808120295346905 11.910854283073578 16.86541409490655
Co 11.669181925021743 12.852403206395637 16.67930971788213
Co 13.115387740119154 14.445947960302338 13.239759418879832
Co 11.0758794354584 15.519157377903031 10.678070618065115
Co 9.100683216996241 14.787005518246254 12.000261102655212
Co 13.151216607321501 14.514779458971754 15.685513147029786
Co 11.1080352706192 15.75536862910287 13.073295198040672
Co 13.900140167382002 12.4033506756713 9.700025468905102
Co 17.443792809099453 12.73348005759375 11.15654999520585
Co 15.5146267752426 11.37663312437522 11.066781010217946
Co 13.197739986782182 12.21743530922687 12.109324450222077
Co 17.145320645877767 13.126760629800973 13.437522603624817
Co 15.15852306628239 11.582025506896407 13.417021081448476
Co 13.213514182992567 12.356019512288912 14.607620915792204
Co 9.827127746008678 13.583922186714409 10.099021031277719
Co 15.88517465675711 11.942978556831807 15.62898379843877
Co 12.902690514215713 16.28243414019925 9.452173963418737
Co 9.620132379510567 14.059348710124038 16.254138966970164
Co 15.011256652107521 15.67340108618128 10.589154155800102
Co 13.023844568019378 16.47588348929436 11.860919916449518
Co 11.319608161852432 15.041168601527271 17.58203554315445
Co 15.045989725778197 15.854247449525674 12.96897213688837
Co 13.130619286824913 16.55667494543639 14.365181313610146
Co 13.272051677489916 13.966795492872954 18.073953330837625
Co 11.149160639943172 10.10624291878675 11.726112326063909
Co 17.322032675593075 10.896809214488941 12.619137437494834
Co 17.265655925738983 13.831223981997189 15.732114169137443
Co 11.970931172191717 10.687920613350464 15.64757482505193
Co 18.041536450274794 11.596385780753673 14.87205444547108
Co 15.19306131363102 13.949800992829314 16.802490158135694
Co 11.842269920462922 13.821642959318083 8.962356555288464
Co 17.01781935308845 15.005373988830044 11.805023314721119
Co 9.205855091464286 15.293809474500959 14.343293136172083
Co 11.121753777756508 13.551626997682948 12.07181800858526
Co 9.082008086643562 10.66708162398488 13.555886481882899
Co 11.210297432887636 15.957171104842175 15.530394253255727
Co 11.14644438142118 13.771393769980747 14.532654135545597
Co 9.084040134143217 13.053464052941035 13.555588351822836
Co 13.337407822093962 16.24023336877166 17.136118080321936
Co 15.197035699696844 9.467957134160534 12.443297394248306
Co 13.409434565953873 10.232419988738075 10.931833918432678
Co 15.125999742515052 15.97150225373215 15.527796271190505
Co 16.45148944130774 9.901871699839877 14.507876322003932
Co 13.08029896869179 10.143512601420902 13.285054951954553
Co 17.027328964442827 15.471682603924197 14.123449703000354
Co 15.949413520945685 13.672475486896158 9.729532001671506
