51
Energy = -303.56117307 eV
Co 8.089126918703082 8.118415563721332 4.2783038962410815
Co 8.364745691855104 10.231880535891927 5.281765684334389
Co 10.305786934208584 8.739625521984818 5.144826763885889
Co 6.339162287608888 8.96199323421367 5.77418405933632
Co 9.472382909066562 6.477787522692671 5.54846651128732
Co 7.002912861845882 6.612269786763819 5.937607019870504
Co 10.650533784271019 10.948581074388231 6.21662151419965
Co 12.472975994127943 9.423509383807339 6.058573814604654
Co 6.610305217760593 11.214028261212508 6.837315653754309
Co 8.461879830690245 8.30163877389157 6.59682967358039
Co 4.651233395778316 9.89731245994207 7.258386721216769
Co 11.652903148925809 7.138720546219254 6.4470825418039395
Co 5.278668616442819 7.5269385636770565 7.466770564417359
Co 10.895067063775384 4.964404125601828 6.683159695435928
Co 8.380814452581943 5.012364575278226 6.995976657765912
Co 8.757654272366985 10.629203638060714 7.541013953684501
Co 10.650996218986208 8.978766961409102 7.479592575397439
Co 6.731486395073162 9.234026401682593 8.091102007017975
Co 9.791476593107475 6.541825738417616 7.961561793883134
Co 7.309510654695375 6.653223463194372 8.285257063440662
Co 12.154865682268564 10.695285992682466 8.14158290483418
Co 7.754388100283161 12.465905326438719 8.657585939965303
Co 5.74261358989404 11.129269120529168 9.124936270967597
Co 12.784069584172046 8.332182098869888 8.286039977166945
Co 10.290298634003376 10.27985336056871 9.537253836433525
Co 8.814642458533001 8.509439084672698 8.885884411760927
Co 9.292994616778445 14.036351607403475 9.295806685778132
Co 11.982313216978405 6.081453337207933 8.62608187714515
Co 11.745171950059161 12.015910218220949 10.150805520663683
Co 6.987005022037186 8.1459222021578 10.308983926447345
Co 13.036817323746702 7.245248330700802 10.485910190799851
Co 12.411980429612786 9.659338686175808 10.34343551185068
Co 7.867909681915148 10.4434560405475 9.902755000025424
Co 10.295197139213919 12.28804490562349 8.259273132565305
Co 8.858414814168595 6.50152221614871 10.234783753614952
Co 10.944736096186107 7.898601486804141 9.691744683261948
Co 5.411163898637832 6.575888041518066 9.70237571988743
Co 4.878355802595205 8.875576714023866 9.507893186884159
Co 6.896211979508729 12.319946794538106 10.897047768772527
Co 7.02813235219273 6.309956778519633 11.717789505958693
Co 9.34527266456704 12.197733307547056 10.605888159373533
Co 9.207454500614585 8.82160198803688 11.213951589524076
Co 11.034264765098706 6.024793737178114 11.019565276594612
Co 10.679369708263977 10.55827967243638 11.847851655316903
Co 11.320647174316061 8.177832302243473 12.01049991646776
Co 5.16534977333077 7.810712121598384 11.741744279020123
Co 6.029811617791382 10.0973725239465 11.334769699500422
Co 9.263620558896113 6.884916110029337 12.525562571055023
Co 8.247034489961699 10.723996405891702 12.216408801715607
Co 9.5912206174888 9.1068520153355 13.49756049569985
Co 7.362784781153684 8.473977606494328 12.637565851930113
