5
Energy = -20.73864032 eV
Co 7.916773812106571 9.477271414174291 7.8642605707338635
Co 9.404820248359345 8.010950839122355 7.283336729431898
Co 7.606088932415042 8.244456006917876 6.052735917378433
Co 7.348370450066552 7.251348749906077 8.150134017282719
Co 6.768981170938293 6.022918259397774 9.657841509633077
