5
Energy = -21.57353003 eV
Co 10.361520896925667 9.168206661374034 9.784097588831065
Co 9.560808849125387 7.775969237720715 8.30978230177864
Co 8.083453767177675 8.349252477330525 6.840755803267935
Co 6.845974637126659 9.183945642690158 8.327053638500496
Co 8.250663117478659 8.663904085896414 9.882716716398834
