50
Energy = -295.66241948 eV
Co 10.952098685874349 11.726556137834752 6.430122820672102
Co 11.88934986976933 9.54891478540683 5.535179748039423
Co 11.91289171555912 12.5992658004051 8.455837000761113
Co 12.928604563703924 10.598780101237423 7.455854133470751
Co 14.045324909818422 11.49393879887717 9.360787959934566
Co 9.501908713938553 9.848213920234803 5.703094078854086
Co 10.448595143690778 7.766119922751972 6.344070566249062
Co 10.770110426367966 9.770682327984996 7.615761763463787
Co 12.428696711625928 8.165966805335866 7.54057377468277
Co 9.910294006724886 13.438581041432936 7.688451463844264
Co 13.023180502694663 6.740278393203416 9.252000358592241
Co 12.527618215718425 12.544166770618732 10.867721727837788
Co 13.626432648871162 9.156699562936872 9.307382669869385
Co 13.260592084413572 10.304256564840253 11.402571163800864
Co 8.726749178508738 8.577512601201795 7.72512892791439
Co 7.242932797083245 10.1494199668364 6.251773765969445
Co 8.832680619702002 11.340324172696127 7.424779849677029
Co 10.781415596919336 8.310771366220271 9.485748632268677
Co 11.808862793590004 10.6050742510776 9.596766472081873
Co 8.737408889016152 6.344400169228561 7.372923222786364
Co 10.910223510729397 6.36672665077422 8.230440711140174
Co 8.680006349128705 12.713552014561689 9.501304610504546
Co 9.436731625625187 10.43168663421234 9.509662697527444
Co 11.144981680199772 6.246152297662034 10.67215769823551
Co 10.67550397464119 13.872126331387662 10.006961566107243
Co 10.325675872236689 11.902605039140903 11.139883877602363
Co 6.962555222305791 7.28484861846985 8.828640440406975
Co 12.639745572637766 8.010407824061065 11.126538525188504
Co 6.797511530519796 12.107873948390656 8.271873744469511
Co 9.022843451360957 6.57267474166812 9.709664780342163
Co 10.861119510162611 9.497309257716456 11.531264934659712
Co 8.749808507608742 13.55056422259354 11.676542294125804
Co 6.948563854959429 9.817989119809992 8.432477631884538
Co 11.068515136311705 13.703434655417636 12.470605227340407
Co 8.1970041821287 8.705098341292938 10.249430526533933
Co 6.687311133587264 13.287365554233514 10.503809845529227
Co 11.755982082785534 11.360734108752267 12.905595125158586
Co 6.97937946456765 11.024036382845221 10.399752225892028
Co 12.5165480403452 9.100601567209393 13.299605512951057
Co 8.718757105061382 10.40577690873708 11.915731164956519
Co 10.915038016346706 7.439549840728199 12.715555998244954
Co 5.727967503031257 8.809351751878902 10.062552673386744
Co 7.090174035548406 6.94677045137046 11.22663668838184
Co 9.18294131483772 5.958173076471311 11.94403556692481
Co 9.494754946446932 12.03870758205764 13.391738349448127
Co 7.2038327835202365 12.0428736850269 12.517159814986496
Co 10.182537908193721 9.707732567747676 13.738851367119203
Co 6.7019037415303035 9.261813218057704 12.105763005473824
Co 8.716986731563319 8.137140110293966 12.592205378895214
Co 7.863830716229114 10.180883614809423 14.02151149355447
