5
Energy = -21.886071 eV
Co 10.241159789985321 11.150705189168157 9.607790804025106
Co 10.540609561484088 9.726021146774245 7.9832260283681915
Co 10.131527253873033 8.846384807960389 9.93402035099326
Co 8.77511418178307 9.894396065925395 11.248912503143082
Co 10.736262967050369 10.603625075339995 11.650811716055427
