53
Energy = -314.20552627 eV
Co 7.598350482951226 13.55705110351767 9.298688668048
Co 9.573328547713874 10.348382369547846 12.422044850795528
Co 12.787091992892408 6.9338756380923225 7.565590503423117
Co 10.61647676301486 12.738059453921755 11.358002290754332
Co 9.239032103541666 11.233380956992695 14.630042742121091
Co 5.610214259090861 10.387997355775683 11.44071971871839
Co 9.403847087771195 8.31043760096068 10.953967000304557
Co 10.944506249785535 6.674184723978096 11.432996833821177
Co 13.131677111382237 7.265298259636983 11.267921965826357
Co 6.4393234766398075 12.696271518364725 7.507506266761631
Co 9.799381001267907 6.633644259149773 9.277489624835814
Co 13.005222180775114 9.877889927582185 13.434903978765467
Co 10.836957634426582 9.51905887881722 14.244527642289327
Co 7.605654905693355 7.684347974002443 9.502166237506271
Co 13.912752049513822 8.114338429018838 9.243288533805066
Co 8.826466177036673 12.715171999399526 12.933012239528416
Co 8.49829813180279 12.079096435065562 10.766373856370135
Co 7.783483116177033 9.935950176644486 10.374794026781329
Co 12.93851161539883 11.563550842511315 7.225810735453482
Co 11.213809975897838 13.050748884459384 7.090896911844973
Co 9.372500761500065 9.029864757090438 8.68815768257255
Co 7.366236876931794 10.886178589039087 12.744061050545975
Co 10.43036859716742 10.635784550750941 10.177034738653703
Co 10.690133133807414 5.888190209390306 7.3512964692364235
Co 14.41814650370221 8.04409391459903 13.028178671474793
Co 6.277211552214222 11.499288782428529 9.483130052834374
Co 11.242953301556529 11.684250650735354 13.459350466787217
Co 9.751186995364288 7.811322973935457 13.161888545395154
Co 9.140438523311643 9.599533782145004 6.414180612446231
Co 5.338591539914793 10.614384574500834 7.522800442616926
Co 9.723548860341959 11.742558796863253 5.895600569200925
Co 7.3339536229581785 11.091791385762242 6.179279466805446
Co 8.27392937656836 9.195367212113856 14.184658057899862
Co 12.168711853051565 7.613682432748848 13.448686672601776
Co 11.564890771458286 8.259920568781082 9.453758705749358
Co 8.69768648572516 7.31210236609144 7.290467703839374
Co 11.52925470782723 10.234540139980892 5.756046417698578
Co 12.057108442760917 5.937464551330432 9.458071342113945
Co 8.414433336011431 11.307350853061362 8.240494774114184
Co 12.437177030599125 11.319319516572234 11.509755569889311
Co 13.002566878565373 9.229909045110178 7.338034409750493
Co 7.173754736528952 9.296650532294022 7.757806534844818
Co 11.603813330541223 9.098239714180357 11.761734899497215
Co 10.908292788137045 8.203470342314635 7.010742841683191
Co 9.900330414251066 12.938139211140937 9.023433032880178
Co 13.96951132877767 9.494908699061192 11.279225003252977
Co 10.862432010147831 10.787042929319208 7.8533334969817785
Co 6.465896286805754 12.68350832434651 11.548271280102654
Co 12.08321002854427 12.444255953546467 9.372861393189085
Co 7.357747469083873 8.560109861987025 12.128424209237512
Co 12.853456751797658 10.277141327376233 9.399608946246168
Co 5.708399947920541 9.108917819224924 9.546451072685835
Co 8.645548634623706 13.379786586011418 7.090237980689396
