55
Energy = -326.33153299 eV
Co 10.142236578508 14.538276356037274 13.50564954333856
Co 11.50302110748708 14.91002139437956 11.681349325428972
Co 12.009495783717032 13.299262053484583 13.228017064450126
Co 12.175209739449677 11.286446308311861 14.718902564503955
Co 10.036765833165308 12.034962586469703 13.917536741188497
Co 13.727372763857126 14.10939839168159 12.024489438744451
Co 13.736979626968804 11.625619239062356 13.013985902848965
Co 8.317203784969188 13.09332390798686 12.938414862432852
Co 8.963911686366997 14.772553411062557 11.393837005277879
Co 10.293655826488106 14.565976294423146 9.496582884443233
Co 10.302346688268655 12.82458644371311 11.136881284427677
Co 12.749613311133613 14.454942883414985 9.7438297077534
Co 10.502698969891188 9.710518754830959 14.224853291763402
Co 15.02208131305805 12.063373017716277 11.014327971132131
Co 11.479727212410431 10.972085899604819 12.427763278927983
Co 7.828445811558172 12.842782237746704 10.656349569507345
Co 6.762269174434901 11.407325099760135 12.560807503847826
Co 12.810043181638518 9.367583759480624 13.456023321169242
Co 8.269411072478617 10.437934003448579 14.052758742309777
Co 14.120954348074449 12.777352830718574 9.04395166698158
Co 12.696734922020955 12.348274494124967 10.88561706428621
Co 8.008600992778371 14.471019281302587 9.08811907001168
Co 13.590946958966606 10.16856891288772 11.23081439089381
Co 11.492066527095854 12.689140928938833 8.927770616308287
Co 9.001110474123546 10.993248923116017 11.858426047105064
Co 9.311961351361134 11.46167714582582 9.324414911413752
Co 9.344206630644464 13.082575817059599 7.754534298014046
Co 7.262770019094225 12.189443767343354 8.44688273106357
Co 8.950980984825767 7.994481745501812 13.65484997854097
Co 7.503124508078175 9.136614692965724 12.23546572098702
Co 6.98730783008384 10.662657043325192 10.377625479859942
Co 10.340371099717334 8.911457944715744 12.072959424736815
Co 11.214692209894649 10.231140402827629 10.117412281516511
Co 8.85125280207251 9.207957616714003 10.25061450413534
Co 15.110116459851792 10.239548505319597 9.522709746325482
Co 13.066914950805687 10.76906446294821 8.808532130659144
Co 13.436275665620043 8.446745968351355 9.54921793710583
Co 8.601372607259693 7.211343914548448 11.348528913602802
Co 12.447424611104749 8.106447043319664 11.575015860524514
Co 10.730211373540804 6.660877087640542 12.332198274064906
Co 7.420281966157501 9.6740096898402 8.327545614251942
Co 11.03550920487398 11.121512024125112 7.371871899573453
Co 8.753488934557355 10.958384338471538 6.81429847252901
Co 9.789820153012741 9.332644199866213 8.14667335462557
Co 6.794852131984343 8.195240589579884 10.078984856472129
Co 10.799312266332967 7.650358589834112 9.76431260061712
Co 12.008304006940486 8.943956892214313 7.755588931688786
Co 12.221172532738679 5.978899870060356 10.544080959401729
Co 9.88708702015752 5.4937341101356205 10.539107260472951
Co 12.486971093172736 6.68679151139126 8.35988592944051
Co 10.29801374570653 9.394156769752495 5.850734310576405
Co 8.32987093479473 8.372009085621702 6.607624457109283
Co 8.627209798303019 7.2459228725922324 8.815945333398895
Co 10.394280300780316 7.35447465915128 7.058443812626858
Co 10.499943684053875 5.569298791682824 8.414885722012022
