55
Energy = -319.25165166 eV
Co 13.508338620384503 14.540570358502812 7.3343585014731545
Co 11.263781660030347 14.5991182742255 8.157902713550218
Co 12.747525486110838 12.800823737361382 8.635630257295249
Co 14.99888568979477 9.420669923834545 8.972635357428626
Co 13.086078218131629 15.778263957455655 9.12558253169897
Co 11.960488853476367 14.223401081411788 10.420819980929556
Co 14.892080526871775 11.851792585615097 8.419196261884444
Co 11.064699754549524 10.82320316226083 9.302319672057788
Co 10.30931990831139 12.978680965871263 9.336057419528451
Co 13.303464130932497 10.78453887851965 9.758410841368752
Co 8.207801327325773 13.131145246399328 10.116535379831392
Co 14.944239288558952 14.102905813750182 8.990090907208176
Co 14.129024093930893 14.948525707872587 11.027586377146546
Co 13.148120241751329 8.68443548075338 10.464372130567167
Co 15.255640992369429 9.998475481884038 11.068985662235937
Co 11.68768611050993 15.763039371628413 12.011475555385653
Co 14.427727073539318 12.60514153688907 10.61659315579123
Co 11.047398933895742 9.605517544778387 11.226389142528598
Co 11.67023020947689 12.06673704132637 11.311036397601955
Co 9.799495926117386 14.170671564359461 11.416908497177678
Co 16.125324090592024 8.255733232169638 12.287106452928914
Co 9.406659563487853 11.41116696275981 10.954365655621398
Co 11.715531937496317 7.557535919839118 11.992885832702877
Co 13.3866044858313 10.786445020945655 12.219302650322314
Co 17.26256803982861 13.646985576553663 13.018932045371281
Co 15.457720702121987 12.251770710656764 12.57148526023587
Co 16.02448022591184 15.255054802742785 12.24191345802689
Co 8.656055687329388 12.65977390857407 12.867564486036875
Co 15.258996609235858 14.144946787637227 14.097763600095963
Co 13.840254622889923 8.486927155891458 12.630229506672208
Co 11.726018010249447 9.30539079501937 13.411301085477282
Co 12.184863236341887 11.750826605312405 14.020077255950058
Co 11.02576655664622 13.725418508391721 13.362368514910438
Co 13.327963226612434 13.388799287359465 12.607962938979206
Co 9.54730082415519 15.749364600914625 13.171468005640268
Co 15.646623123312557 10.145623246771166 13.487933162843472
Co 10.224018466428022 10.963432280639607 13.04806162353044
Co 13.71779604414053 15.665911170871135 13.197718389016613
Co 16.660404686286114 12.02139276693152 14.603130249278427
Co 10.301264497379542 17.642148179431885 14.358519634879155
Co 7.7470581093285515 12.29692133074484 14.918833435031457
Co 8.887650962138412 14.208149665139826 14.731784914695329
Co 10.883857203599243 14.203376083084079 15.954241412166287
Co 13.591256595576924 9.796667272312247 14.70575474678841
Co 11.63718713696934 15.884457014056768 14.360886491900482
Co 15.083782092700812 8.098438760714405 14.46821485023482
Co 11.362460104901013 10.217592658466316 15.517529535103032
Co 10.022567330796091 12.156980106120908 15.133353192689185
Co 14.408836687468371 12.03706455210505 14.859289523403783
Co 13.01314552325962 14.015675450871308 14.91253866550529
Co 9.623632737209167 16.162581203668964 15.885302839945904
Co 12.25936448836317 12.226592183678546 16.347272192724088
Co 13.967961056729433 10.80864120436141 16.701447621666436
Co 13.02840004905209 14.270966987208375 17.13289854557341
Co 11.781552381464824 16.17054443525753 16.754629623266514
