51
Energy = -301.62888867 eV
Co 14.517387696584393 9.309443872976809 9.505543805707363
Co 14.963057457925549 12.286137904825079 10.047640376926815
Co 14.527191730519434 10.416126108692056 11.5728990328147
Co 13.180160064317292 12.328001848638845 11.851702628833694
Co 13.287841039642403 13.103307829196039 8.4433243855401
Co 13.181962010825838 10.789276336648063 13.598072347666818
Co 14.348723400094446 11.065945905335006 7.885064355615016
Co 13.529866783627943 14.162074869792628 10.410446799089899
Co 12.558181685662639 8.463763059180026 13.614302248023987
Co 13.951602897556752 8.08862012661284 11.617142615238121
Co 13.06278193642582 11.094378828813227 9.784887875823447
Co 12.680603614201868 9.335996703969773 7.853662741886761
Co 11.210791899729493 12.773730527322675 9.579588566088114
Co 10.825109755870592 13.664270802054242 7.478397667848323
Co 11.563959143214001 14.007889047034261 11.62210710617693
Co 11.41346784763116 12.5188446064426 13.596670294585085
Co 10.904252719762484 11.621329182401183 11.607132580403091
Co 11.653096564007114 14.995348301315081 9.257330395275124
Co 10.907444843610689 10.182267637899566 13.63592993801896
Co 11.533650269646799 7.441617628056805 11.809303988877815
Co 11.832878648442644 11.470423877688908 7.604189377285705
Co 12.259984908447567 9.69994303260223 11.670029573864062
Co 12.512311410080166 8.120724035475565 9.771296500270365
Co 11.278636912895724 6.008277849274781 9.93274045937001
Co 11.255392175677347 7.3517154661411 7.871296551092428
Co 10.310308817308188 9.43228947456146 7.3930116221167435
Co 10.957463392111995 10.247562230207354 9.568452414310611
Co 9.793368078536314 9.341504382456247 11.618961997764469
Co 9.424604911973713 13.449814708126238 12.358941574976495
Co 9.513898386865176 11.645076894032803 7.9049446704651105
Co 10.123995081152499 7.968758347573386 9.7603342482532
Co 8.675606411535684 13.667701885837413 8.453010387699571
Co 9.301985158357928 6.762111858555401 11.610729022813295
Co 8.737793327858668 9.842173756263144 9.183904758909023
Co 9.642633285237435 14.481224319678203 10.311514473246621
Co 9.021851582124057 12.11801507146037 10.35407782424434
Co 10.096716999879364 7.971513387146969 13.581168501859707
Co 8.96459855097945 6.004363589723744 9.364780754758359
Co 8.862415981945809 11.290989893156407 12.861581893976606
Co 7.867891917699148 10.09013640481566 7.1233322550016345
Co 8.670904218983257 9.643211697549306 14.424946067980636
Co 8.539831206482532 7.883941945703512 7.986554081663537
Co 7.5591838217665845 10.274620758926677 11.073965260186243
Co 7.8423903706022635 8.443482720986665 12.641272940767921
Co 7.218729659940749 11.707606548627624 8.948607056804704
Co 7.710780836444527 7.8854480356127565 10.304521985884547
Co 7.142634457310234 12.49023134395654 11.713172453303144
Co 6.443843872797778 9.427995165401784 9.054926875649713
Co 6.658312510882647 10.483999784830653 13.140208814273542
Co 5.784339160321289 8.888514255699548 11.454675221192966
Co 5.51540970110902 11.098158852478969 10.479436833190682
