5
Energy = -22.40901428 eV
Co 8.601689655431654 9.935385365000934 8.462273299362177
Co 7.0179162446553125 7.816119461373338 8.38463314928704
Co 9.635788893873258 7.503697652791414 8.417499021674171
Co 8.40242329994021 8.388421166728822 9.981193095945576
Co 8.450387429182609 8.465667042366169 6.863071074862303
