50
Energy = -295.82766364 eV
Co 13.476386212112107 11.821552106772595 12.492262947592769
Co 11.71447450921944 13.631741096397203 11.916233770626588
Co 14.494220900078734 11.341936539380438 10.04689062622265
Co 11.165027376767707 11.349642611493637 12.740173811028288
Co 9.335919382075618 14.476212077691821 10.995145818517072
Co 13.419097397492797 9.733655348349354 11.369331942749831
Co 11.241833138581292 13.657176468975782 9.375140940528615
Co 12.575026257569194 9.711914514365509 13.505261791118144
Co 9.809632777026751 13.24705765262172 13.153056494260323
Co 12.295536827090055 11.877352808279927 10.563740143683512
Co 12.772083940110846 10.09864547969228 9.089386644030537
Co 9.998327149847585 12.342542652383433 10.89585595553876
Co 7.871430049812828 12.7260848349481 12.037842162470769
Co 9.02189157574875 11.155740094327756 13.970506962637945
Co 9.031238359110283 13.350168524250982 8.80892656123086
Co 7.196441296422796 13.871919260046376 10.181021699821347
Co 10.244879229664953 9.065034380199855 13.135442917935924
Co 10.533485394395415 11.285266073572457 8.848007267329159
Co 12.0437169305772 7.912434052972844 12.08240490039163
Co 14.834047157202527 9.09684606294118 9.372527526523845
Co 10.55751651023661 12.519070718564375 6.979284388310582
Co 12.689328284243299 12.255632387715366 8.144765548436848
Co 14.433219783340558 10.639088612097392 7.638565096615102
Co 8.86345515141508 10.498789125119261 11.832816808805932
Co 10.946227016123887 9.695068118288939 10.839711180120172
Co 7.972632542878459 11.579111448904271 9.939999623115467
Co 7.798113288472928 8.856835456339176 13.33052441384136
Co 12.165670654536171 10.439589661536717 6.797787644569147
Co 6.779587418160095 10.907754839239306 12.925621715665919
Co 8.81561524239254 8.197548042297031 11.381477644939352
Co 12.909842144691059 7.803160053896453 9.857017396775973
Co 10.162737372267808 6.560579377402304 12.320214666889385
Co 6.3260543417836885 12.428123198801476 8.527218458705436
Co 13.140587881878941 8.392764343895104 7.497727696553679
Co 5.872284633561308 11.7487833899484 10.838383081475579
Co 8.922706940256777 9.481682145522544 9.366887269537527
Co 10.55967418105205 7.332653106021881 10.145616242835262
Co 10.980524859440205 8.85698403452954 8.380654982713075
Co 12.060810518270685 5.862921782416975 10.86239306235898
Co 8.310697669619906 11.431390250524961 7.639855670340642
Co 9.902509679010368 10.116008959064292 6.7081967011002455
Co 6.810365838651811 9.544685337640713 11.036409898566259
Co 6.7951486823545935 7.217053727206364 11.679049878054647
Co 6.59359106505137 10.095288301522686 8.741187348182006
Co 11.689983413944725 6.617647312985297 8.199754035778149
Co 10.567548648918986 7.892622743563386 6.373116720765611
Co 7.264678252836423 7.789035546434128 9.452500533081357
Co 8.017544005677145 8.8855565671794 7.269443765462189
Co 8.600577334589099 6.100238002329556 10.430924683977864
Co 9.248373967027105 7.177527415629716 8.228804225795587
