53
Energy = -316.65734264 eV
Co 8.285139329244311 10.589810080189595 5.292445302225158
Co 8.243338504791009 8.340944488095813 4.396171194857405
Co 8.507222716254175 6.285375874257623 5.671064077389938
Co 10.430069701808002 9.876451468793208 5.344165292953632
Co 6.321527774576445 9.574594581197106 5.968742346088209
Co 10.431124151797711 7.5199743464250055 5.469030337958602
Co 6.4701993624557215 7.227298779787318 6.190139769526155
Co 12.53577329363208 8.642821113961118 5.87068777186423
Co 5.168841517874154 8.475417749466603 7.846179113674668
Co 9.8838227125231 12.305904918390834 6.0528092041371355
Co 7.222659991789303 11.860184750397847 6.9250009251434
Co 8.424911469768178 8.541114449224661 6.608603183105897
Co 9.061973625381471 8.777874140018318 8.882104128884924
Co 9.620432070856644 6.586926296848052 7.781877969543524
Co 7.5800767230084825 5.278272853208752 7.55033707186865
Co 11.831547150881025 10.8092424386836 6.98660284674251
Co 10.75597282877525 8.764250623548545 7.38263623020536
Co 7.215682215783723 7.3967708457453405 8.420467152854131
Co 12.109760924184261 6.921135435670228 7.487943091789315
Co 5.353191111301349 6.043542555909198 8.032390529095391
Co 10.912598021532327 12.45774049964742 8.251221172619786
Co 8.642808330399204 12.846174889270468 8.548385094336352
Co 5.051695158019145 10.911152589262445 7.580945901407124
Co 9.271447358123405 10.760315246139223 7.53388977001238
Co 7.050794123010788 9.88425559801658 8.187865871939895
Co 12.927728599344842 9.042396643452097 8.20344178396114
Co 10.896138997643044 10.253955446398809 9.356217927688999
Co 12.812587225066782 11.364647975056748 9.339428147059929
Co 6.511126914623306 11.93389747567342 9.28359782058674
Co 11.093003757515243 7.694783815183407 9.564909174247257
Co 8.568683170941386 10.917049393695551 9.904843560351724
Co 12.887582489323902 9.257708232888222 10.495884591009135
Co 10.360787567476956 12.320439459394086 10.498529329872738
Co 9.146779996976463 4.795548854427691 9.264934705285235
Co 5.280062668908293 9.897643488943096 9.794090168098073
Co 13.224894495361808 7.107581453765143 9.741500922073602
Co 8.02401635829884 12.951118811925156 10.92112659687984
Co 6.91384787904083 5.535589762478104 9.883055075853575
Co 8.856755342155525 6.87344739645303 10.209505324209028
Co 5.441049508730845 7.4510551254340625 10.037457285232623
Co 7.280226429383781 8.83536909669919 10.463620571828534
Co 9.685632233967224 9.078832035358435 11.148534911217897
Co 11.409863094356602 10.583557530056707 11.679375127409255
Co 10.827523644637793 5.8845738119736275 11.011299300944861
Co 6.776389089215598 10.895056052944797 11.477439357352686
Co 11.606010228331929 7.940730158167155 11.895543280875982
Co 9.087070375519115 11.119576459087513 12.20972529735915
Co 8.625188075030465 5.011794287728224 11.597154240292118
Co 7.066705989018669 6.9340510438066625 11.827298807567784
Co 5.544706271486568 8.860588682717275 12.027665896141825
Co 9.381445273865706 7.15103407236109 12.504556806166883
Co 7.881595697845633 9.082008900713639 12.727326086938326
Co 10.228036107491548 9.276465570390997 13.398280202598794
