55
Energy = -317.48225868 eV
Co 11.72490773025382 10.89913569187683 7.682207072597876
Co 9.68550195401954 9.932321007455744 8.433988427445286
Co 13.252936615997257 11.127254370108972 9.477974273137153
Co 9.907126695611202 12.37300176475454 8.164775752901978
Co 14.063543580501992 14.644935706958869 8.05397280451033
Co 14.35852397528511 9.093678829320439 9.677709911033874
Co 11.8662325426708 9.196994005872446 9.455158357227852
Co 14.505966088628199 13.038666371914092 9.56061473949135
Co 15.625291868382387 11.071831188100495 9.495710120169342
Co 12.228141191877018 13.20850786341402 8.4906703492548
Co 10.909728920490485 11.264462483913553 9.83018360004575
Co 8.486709613903349 11.325184628302285 9.841069616909309
Co 13.234060314219313 15.06888107939069 10.041737203945187
Co 7.96236009179891 9.12765190187769 9.703595426219213
Co 11.447630530049555 10.867462398106255 12.074784442021993
Co 9.774031966350938 9.566612364946684 10.928431611983711
Co 15.294594126359572 10.578155044929678 11.654206726837879
Co 16.032205983556892 12.96194786469117 11.363479986697016
Co 12.001594983526756 16.792026258558167 10.65747739629525
Co 10.738031709042534 14.958081256978451 10.263129547463539
Co 13.670983035340713 12.26576035674568 11.881100155126417
Co 15.576385489810749 15.040661230308567 10.155438283194615
Co 11.998212493012856 13.075048952238092 10.709183621368089
Co 14.50162972918259 14.518434140158826 12.179695529392419
Co 9.615516641133027 12.776081852509057 11.202196832027006
Co 9.000855063039705 14.880336141562422 11.720134324991118
Co 13.188749293607087 9.601362354222317 11.479898736562408
Co 11.027772246163853 16.765029336265236 12.768940192883969
Co 12.259058904159724 14.93947724194059 12.26081305576347
Co 10.14249503258151 14.962025793915556 13.664800022115822
Co 10.753989187442704 8.684022200906092 12.777776439065377
Co 16.441516167823124 15.639376179768444 12.254542348249787
Co 11.147961684978572 12.975387454404345 13.004468706294672
Co 12.972036236600937 8.576770776003162 13.551916478304637
Co 16.64964799044796 14.058992074427886 13.735000134475008
Co 8.820454057822822 12.96164933283721 13.423506007654163
Co 15.588081557543953 12.01817653368305 13.46074493036325
Co 9.60422975525652 10.648126912392707 13.522767462343804
Co 11.60264031710735 7.103032044138737 14.362921254412162
Co 13.32170583746744 13.3042701517218 13.982656133833242
Co 12.32602073699233 15.637264378013633 14.463814566803213
Co 14.72438529028266 15.219391093560596 14.411941786344814
Co 11.352273684729962 13.661671893807709 15.444692749270246
Co 13.732429825082662 10.735927769220314 13.65349262769864
Co 11.66337177771408 11.34556043795699 14.536444825452222
Co 17.16205996455345 12.292482819363162 15.051892326326943
Co 9.011881892712745 14.223852368739973 15.440083815569611
Co 11.070288824900848 9.129874156495967 15.110463789720514
Co 9.15426760369043 9.94345195611949 15.909830117651493
Co 15.1952028874601 13.243586638281775 15.56880478593244
Co 13.390268937687186 14.583077504266123 16.313004837447014
Co 13.154561350659947 12.217446060329797 16.153475082119076
Co 9.585926166407015 12.067964060025622 15.514233352400202
Co 13.198801205442571 9.875336277843424 15.687945237915502
Co 11.26977545453318 10.9068562502524 16.765058890636286
