54
Energy = -319.16962266 eV
Co 15.711062350441926 12.231141321617011 8.503654363903085
Co 15.496133563524555 12.549706096792933 10.745502821648365
Co 16.65679670474295 10.543091610646334 11.20525812100426
Co 13.582747122033815 12.43745042633335 9.062127800950782
Co 15.301437298713031 11.38673621754038 12.844903958238334
Co 13.828994790915452 13.357301365088903 12.414359491045502
Co 13.871389605783559 14.442971588450147 10.366311163813153
Co 14.993926385072841 10.414517735733675 9.634096510237743
Co 13.228625114305228 11.487969083569874 13.800888772509946
Co 14.713630829826803 9.36904931228491 11.755365679918219
Co 12.40446231864809 14.315594421198712 8.492513476719138
Co 13.513894293108063 11.397538264485588 11.241220791651438
Co 12.246071886931153 15.148924838669894 12.05189391099372
Co 13.674698007780966 9.18844418867673 13.863768886470936
Co 12.238628898722261 13.824885595058332 14.072676045168121
Co 11.009014523873295 15.220842949908512 10.124612166023347
Co 11.648353649901903 11.031565166461233 9.599956432412425
Co 11.542724524557553 12.075843794624829 15.409363774581438
Co 13.297960652463097 10.28248724544062 7.984839007925142
Co 12.004977165205533 12.095720293160882 7.367669884314303
Co 11.116490204207091 12.05885720908938 12.885109966812879
Co 12.210849804334705 9.800444440393331 12.170062928924514
Co 10.740040954657633 15.53006853741281 13.776161119732333
Co 11.889850948959433 13.167435337091778 10.844072227396438
Co 13.012490835946707 9.109730011152699 10.019072442839432
Co 11.445452186800443 9.960627488039002 14.412638082355333
Co 13.13865260170265 7.5828659278240105 11.831240713359021
Co 9.922196337551531 13.439501483735468 14.417485765790124
Co 12.111142696046471 7.064311932496589 9.608883006437255
Co 11.33074450623164 8.98007295237756 8.312422626936362
Co 9.966258563401757 14.128049352787434 12.051420389402491
Co 11.592283315800547 7.860091130807016 13.541672352854663
Co 10.009395003346533 10.977007259884324 7.807331965128068
Co 9.844135074429992 10.0592801452704 12.343820142209786
Co 9.711495046208002 12.028741043733739 10.867891626304539
Co 10.501008635856252 13.085902532195727 8.846254434082562
Co 8.875703014536501 14.258723978572279 9.896386589019096
Co 9.609675203421725 9.788851902530386 9.84936126146593
Co 10.876667008437977 8.109247767070705 11.255270839410569
Co 9.470573530926908 11.04457712226754 14.752605257883864
Co 8.619745517378242 12.14107626125382 12.955099063695174
Co 9.569428430341304 8.74821070171185 15.100904070633785
Co 9.763366010599867 7.440858465330191 9.357505862902032
Co 8.950990682990646 8.858849941053371 7.73602193333592
Co 9.310593635411662 7.860270636912397 13.080259952367545
Co 8.263977918447107 11.91622152783654 9.015127682688329
Co 6.797162727607513 13.706731097051998 9.037577620454025
Co 7.466519998281091 13.040304091027812 11.193140883275571
Co 7.923023251706406 9.734845021090132 13.513096637091895
Co 7.674765914806327 10.67837141606035 11.32778368201955
Co 8.248714572160273 8.360378163273676 11.073009591978042
Co 7.503168164088146 7.473170157736439 9.030217380960273
Co 7.313895497724003 9.720132344852427 9.21208750273562
Co 6.09521335841456 11.639778650505914 9.84431416769068
