5
Energy = -21.6496612 eV
Co 6.657654844782708 7.171894949939998 8.804527612732013
Co 9.02598063888659 7.534833494423917 5.8087385424009375
Co 7.553291764870769 6.310780196333921 6.856930032077505
Co 8.12957583041252 8.407922883065247 7.57113640458259
Co 7.373797947328807 9.118809393508235 9.472913456149751
