50
Energy = -295.5057275 eV
Co 11.320434652651125 12.532775110676928 5.53224075410903
Co 9.237183327627847 11.798528433132336 5.986482507162295
Co 11.109009342996726 10.208340270445195 6.272052016062671
Co 13.042205347226874 9.448938582382818 7.481402828602174
Co 8.874664302542442 9.744328694297941 7.049849647631272
Co 11.667117088636376 14.056109772416496 7.17057580725896
Co 12.924285240054363 11.66243665041481 6.924368621837212
Co 10.80789449055996 8.819550848797444 8.163462886734575
Co 7.801018526136848 11.833132685237166 7.78805223379346
Co 9.333767149554786 13.730946693469233 7.3984567434365305
Co 10.726642958728766 11.91930646941436 7.877998416253182
Co 14.389411230673666 8.469175710482984 9.04425314683061
Co 12.451138933418216 7.21924736061852 8.25561620826148
Co 6.968408743897611 9.727500755981216 8.504996275061272
Co 8.660969490203785 8.164915352272663 8.931399002717228
Co 12.742222813860208 12.830193175225393 8.91197582860073
Co 12.09412407453727 10.38787943404993 9.413069764519614
Co 9.236560467752254 10.59002939754643 9.184557792474589
Co 10.815936241900765 14.219258256499439 9.310451720098701
Co 14.293852584070175 10.901134508301263 8.897916526004117
Co 10.51989844208126 6.869560441302738 9.709505580655158
Co 8.904791064047119 12.963013986977797 9.595144796785354
Co 12.425754403701056 8.15394527951586 10.33016538530453
Co 10.982081374586409 12.12445717067054 10.452140348703399
Co 7.093637904525287 11.453621423932105 10.062166361822147
Co 7.720548562484427 9.32677321003707 10.813307418927144
Co 14.011858735089985 9.716012438655648 10.958674393326447
Co 13.367395957585213 11.930607862316245 10.954990640746004
Co 8.757368016917129 7.317849381188652 11.288376993398877
Co 7.506198647906138 13.240349612346417 11.446239895931473
Co 12.17714617631429 14.014694697277237 11.162422927189745
Co 10.172886888447463 9.037921912880945 10.602839000915992
Co 11.682847600418874 10.208723261071096 11.899187757720625
Co 9.080356100968782 11.21153107213857 11.659670645162102
Co 6.861966470826388 10.860266283282819 12.380412799492078
Co 11.058962234857733 7.335244000457909 12.072670856384068
Co 7.364470647379373 8.553607445777516 12.986355652975137
Co 12.993680811430814 8.447432575482893 12.79412648302933
Co 9.220121304915603 6.735493470864724 13.438635909267623
Co 9.880675699027025 13.458787176030334 11.972905413189656
Co 13.883368420626937 10.815088484757602 13.002687201483804
Co 9.643114189712856 9.161469550981817 13.015361233168012
Co 11.993892368313945 12.384280174238345 12.806229681120744
Co 8.134749126024511 12.55093175843912 13.497027647260271
Co 11.169979862464167 7.972000882754815 14.332324620457504
Co 12.056370731199372 10.122568233110751 14.179465432406975
Co 8.03748706148569 10.346280403354713 14.33050231712224
Co 10.137557568181327 11.491586858190232 13.759312004178229
Co 8.6571813310487 8.169968581663909 15.064080654930645
Co 10.113527970863709 9.868926889099729 15.440613899956464
