54
Energy = -320.10941666 eV
Co 14.849367649685284 12.448731116747021 11.969910427545022
Co 11.038911363060857 15.620281973585554 11.91433301178477
Co 7.7587277150817675 13.427394676484033 9.373658047368501
Co 13.728128805578445 12.343853471110931 7.837319272644714
Co 9.777265596947027 5.733624044742494 11.900274959495452
Co 7.042397556900415 11.48087914643601 13.093522186476305
Co 12.67535074834349 11.7864153432443 11.99929076527541
Co 7.464299318581925 7.201274254321352 8.718692641603392
Co 9.054485812853214 12.696876138950396 13.398746484763665
Co 10.381081962404481 10.5474532664743 9.25441912499949
Co 9.274138788283539 8.447995811273662 9.090014065491676
Co 9.253632300136616 7.931672612637521 12.974646621260899
Co 10.851935257280857 7.568030787008272 10.943058856294304
Co 14.841395259295144 11.586852382971287 9.76701841919669
Co 11.20419102093534 11.471915205083716 13.991947187921948
Co 11.986912833414378 9.689755476221698 10.792719517400725
Co 8.22588452737758 11.472509142530436 10.596969672890008
Co 10.034019955364702 9.5458367962909 7.13495131804184
Co 11.167316982913748 13.601947798292494 13.114769018304965
Co 9.948049916402221 12.897994192423864 9.349526646441014
Co 11.571424078628114 13.673044559990329 10.81151649900821
Co 13.830765105779102 13.653941302887175 10.075161839473402
Co 11.330264724856436 6.894370819787143 13.257833046847084
Co 13.280808194261036 14.285707463035571 12.286937872391587
Co 12.116404117411673 5.706992117063988 11.400852876665631
Co 11.721360711093759 6.189414873115367 9.153710800324006
Co 13.244175584319379 7.6997942517117695 10.263185908721207
Co 11.165904424378502 9.390312658720722 12.972940518019325
Co 9.41309933044668 9.489062859679906 11.193875447659599
Co 9.233047441241803 13.879938715679486 11.429402346746885
Co 13.313257451501505 10.255649346864542 13.603974643850103
Co 12.264890459637378 10.42626352076268 7.529919568907509
Co 12.38086203472704 11.747479690366282 9.572779413554144
Co 10.09101470569543 7.048410604696501 7.505126264463309
Co 13.343175793565088 12.673606927957998 14.022724714739507
Co 14.23306566895819 10.051281095268648 11.4378656640376
Co 10.392129518359823 11.633783700232797 11.621134552888794
Co 9.43610072600759 6.103782554420901 9.580099039808841
Co 7.19347797186426 9.353522365903673 9.92246317432015
Co 8.127918060867156 7.398243436904095 11.031950645838087
Co 10.886706841783205 12.165021492107893 7.375671620320017
Co 7.012665681161297 13.202197981153107 11.589997135783419
Co 5.987920186611453 11.019180545820204 11.115779844326132
Co 6.537317890141578 11.388545971639887 8.871286033089055
Co 10.240991899162085 15.227356309490727 9.695340413854543
Co 8.658529039523609 11.436456631992298 7.970814055620297
Co 13.06319336391584 8.150287099966562 12.44947711443622
Co 12.567152275063107 15.66218394936416 10.159846938277363
Co 9.086704239300584 10.38287958345151 13.372443327946595
Co 13.736682481330341 9.683884343313176 9.11569443189074
Co 7.645600357712169 9.418655764133726 7.6481667298045455
Co 11.625127035187377 8.448676765508768 8.653745140430468
Co 7.3051893040418845 9.25222284503981 12.290855208374428
Co 12.031834230269757 13.917784635252316 8.492740932969582
