54
Energy = -289.4143029 eV
Co 12.144830087858779 7.256040624649254 13.992859216037813
Co 13.457731287454653 15.931519702712388 15.360202698661302
Co 8.584878582388209 13.182870736231932 10.13461979332316
Co 8.519973502252869 14.283983051733463 12.23842740105417
Co 12.52216724405209 7.400808259598376 9.969103350330629
Co 6.837359566142941 14.353461224060798 10.804680804561821
Co 15.411796234115185 10.161189362911973 9.74947979872728
Co 12.593941608812113 16.996407899872686 11.730708854187665
Co 14.571198924353777 15.854018809937156 10.89206298058139
Co 9.579273945345474 15.496621480490894 13.91447040946983
Co 16.08177843032782 12.328807768673594 8.81135536736874
Co 13.905901513308129 11.550720850252832 8.737400583111505
Co 10.903012318139501 14.0946156692086 12.654318116789831
Co 13.068206485755447 12.773643659259394 15.52106915188078
Co 9.826866365702166 11.433961126329628 18.12428607488022
Co 9.228709287432778 11.644636941006386 16.003499952953312
Co 14.621583502714493 13.817487277145526 12.223153327926507
Co 10.717245161737512 11.784852900278887 12.342146875830306
Co 14.162824182464236 16.00702024761858 13.20194308567282
Co 13.37504935933056 16.497664818297697 17.5081260257498
Co 10.035659608694127 12.56987618344117 8.407014791507505
Co 15.212688783806854 12.09559653767967 15.297671182068552
Co 13.36754337583157 6.2534075890704734 15.43610174205275
Co 9.67289654286443 10.144844655834955 8.17634704263397
Co 11.19835189858353 14.165288591038706 15.033839237494744
Co 12.789345721162558 12.725992431201494 13.173222302989458
Co 16.612668735078994 10.45997263643013 14.501160262974981
Co 10.99527266849932 9.108957178082953 9.875527904517993
Co 10.88285163135646 13.316594732200818 10.469755721964951
Co 11.304008444786824 11.480173312778016 14.628687006178467
Co 14.386212678047094 13.761811589200986 9.889676617708659
Co 14.598204380943976 14.104984913900761 14.464789652927443
Co 11.728629399966184 10.96701339071323 8.545187562747673
Co 17.485622350845034 10.993386003939086 10.095380639329834
Co 9.208098474783336 13.102207306423683 14.100122653052951
Co 9.937505043715953 9.642737848687096 11.922224936229423
Co 7.415086290338983 11.792773272202055 14.626480914461252
Co 12.584526434274903 14.676483909665526 11.165463437110255
Co 16.34640134312148 10.761550910633975 16.661653488536093
Co 9.214338244247676 10.623765062654684 13.892339767156999
Co 14.703566569482103 17.904925395151476 11.902008384595279
Co 15.650756368228421 12.13370150062982 11.138245263623404
Co 16.15854159307623 19.4477973826198 12.061976514067483
Co 11.559552240641114 7.960739151606325 11.936030704778984
Co 17.81362054241697 8.95765257849481 13.418963557032226
Co 16.79876357267958 10.515281338876415 12.21449728242969
Co 12.335928984659864 13.300757405521786 8.67320348844581
Co 12.493755536322027 14.530854240791212 16.96571528432135
Co 11.809158556020176 16.06494617419841 13.675641236662905
Co 9.776312674761485 11.161976233737807 10.242946636877797
Co 14.472442489733359 13.500835249620735 7.638449140140694
Co 11.036163325883152 9.204712402220343 13.90254828062039
Co 13.309344282591027 9.397212300578499 9.383391779812266
Co 11.168596439415479 12.641347549588934 16.845269760181495
