55
Energy = -327.0579178 eV
Co 9.143538760497222 9.013212916605013 7.393710694767187
Co 12.60755018232918 8.243590006279842 10.632051955258898
Co 10.489360828089264 7.08250648224464 10.938233839492263
Co 9.871660542095276 10.630521940646263 9.01043016470896
Co 8.873995979346226 12.783953888733135 8.727758321894902
Co 10.864216336534536 12.398770327892633 7.525803311010237
Co 8.988813702266807 11.23718393167528 6.868161511341801
Co 7.960900978552951 11.870298409093628 12.722847097672995
Co 12.483884060195386 10.1237404695012 12.328738195129006
Co 11.828602036875392 12.814647974031022 9.691027863983681
Co 13.604688796373255 11.941250463293047 11.176597899923864
Co 12.109510682913658 7.728589807505205 12.781180000188606
Co 7.582265986770035 10.735710978361926 8.737594315803907
Co 9.176089589766924 8.814861425761807 15.330246938126443
Co 8.543827797309312 9.477535260610074 13.148240788290558
Co 15.846270458398925 11.839262859841885 10.65841159636609
Co 13.4205173779659 14.258900208966372 11.739143618253554
Co 15.135629850885675 10.893923272384274 8.55462821787231
Co 9.752543477139513 12.116706616217845 10.93173495329003
Co 7.316100362190939 14.01478041465919 12.349013269448939
Co 8.823303552782688 8.493917905041364 9.593863295061558
Co 11.694744875795902 14.92039014899811 13.273210256912956
Co 11.318633370373336 10.0309446715078 7.242242361908578
Co 14.866072758343904 10.517165180386423 12.666734419981424
Co 14.30472042820404 13.009123308179214 9.253267371385874
Co 15.524498707723017 14.177272116106858 10.792183179707274
Co 10.550721996347473 14.49760072586911 8.685225564388649
Co 11.732799629400263 12.630169023342647 12.305150461529676
Co 10.170143797582178 11.201290186790361 13.272522859129358
Co 14.635946329051835 11.535113948252697 14.683158213942201
Co 14.36366056762188 8.273014464456912 12.239342200975418
Co 8.170960367287112 10.269855462839034 10.951197562706785
Co 10.240667497736126 11.005757193830084 15.598429441810032
Co 8.64167831867378 13.023560775893442 14.727234620240603
Co 10.343679571993581 9.31709214405251 11.432675291782411
Co 13.269155820600886 9.176326090039261 8.422309151536282
Co 7.403773494352382 12.44262146294545 10.508714116235149
Co 12.991175888365362 11.480967646804729 7.995304032979547
Co 15.157258186330859 12.86847439674872 12.720718065230793
Co 8.222582532223937 7.7617320670046235 11.623443129168606
Co 13.554278915137365 9.224246623333146 14.217336105830004
Co 9.846903668912526 7.5345150596686175 13.24435631278273
Co 11.10621785669582 9.2796785417336 14.233181790719371
Co 12.9166406942159 14.954210380669478 9.58712356135389
Co 11.060235795383626 14.574804628818185 11.033914592053172
Co 8.819431911774727 14.326860028165838 10.526101173943548
Co 12.370958874394656 11.28827828174652 14.441013097167701
Co 9.556023770700843 13.791616882640682 12.718527253412159
Co 12.665947166367909 13.865973538650046 7.6059578538063555
Co 10.923504315816166 13.15106096694757 14.58220543343284
Co 11.036900700619872 8.483472367271512 8.974145137524047
Co 14.380292206015744 9.8391184809023 10.408537663579613
Co 12.03112030047585 10.490743371480061 9.9742513048709
Co 13.313095890531477 13.374256619505585 14.001595333208929
Co 8.06602745567027 10.842552655072428 14.892998236878146
