54
Energy = -275.37631186 eV
Co 12.90335240219171 10.990113139446821 12.064168464265137
Co 12.85856817974558 11.413641080372326 9.85600071054581
Co 12.152671870393172 14.140195135910469 10.549707529894507
Co 15.028508419469414 11.669335429125063 8.788522831133966
Co 10.840228952053842 15.693536545795286 11.634513093978521
Co 9.013706548596357 8.969844137942557 15.718418597336344
Co 15.719432532453368 15.925673416108431 15.094385574545845
Co 11.627499430342485 11.509068684290868 16.349840892656943
Co 16.242931535371945 12.350599222320481 16.643275280101456
Co 9.869607493548779 8.276059925573989 11.467482256146123
Co 12.568956949351504 17.574081194444158 12.217739791979515
Co 14.07966523526324 11.707962413045061 16.1611387565664
Co 11.194631827448076 15.389612372660157 15.19008536466897
Co 11.827204645792673 13.518093145933369 12.852188631866616
Co 16.09954079764659 11.49499515581021 14.639413462198066
Co 11.919700906473212 9.266296814367834 10.881382491709465
Co 15.033054362968667 14.699719394187854 13.144615316589269
Co 9.651027197877495 14.643191685933962 13.285331270869515
Co 14.028924844510588 12.399180013066985 13.763071917147693
Co 10.873275380669593 10.020457847090073 12.81317355971414
Co 6.180772230711878 14.296163551479838 10.647569333523895
Co 17.381392953322784 10.88195935179504 12.662330256924783
Co 13.541360555134132 15.66133272895642 14.952047871361456
Co 14.164132141388977 8.443091725617101 12.06220229108935
Co 16.189738618516937 12.822387908295692 12.700561867248355
Co 11.286480334448935 5.41337595142252 11.07365081650488
Co 15.12187847797024 13.780501362193023 15.351648042305868
Co 9.795824923092558 10.854005270671877 15.03230677205249
Co 12.929590540096884 11.911163736104998 7.636390269262303
Co 9.027638626380035 15.446999949082658 15.268230821433
Co 13.272615013494066 15.418215786697354 12.006421350514426
Co 7.908257191140615 13.074817400538883 12.015522697616435
Co 11.892293275549576 11.624525080908892 14.15918844501239
Co 14.143817573584736 9.518683278936718 9.986398435357353
Co 9.73146147878094 12.265803283638208 13.22324729037838
Co 15.477929808072322 13.736645697543212 7.927043219064101
Co 13.614150406853144 13.588450726892171 8.973928862843206
Co 13.611087844829862 10.147990344840414 14.582138633709839
Co 11.189275446039535 12.796211727244641 8.960284909810545
Co 13.91726027808124 13.103846170371806 11.578381575056023
Co 10.018112390990426 13.223604668329521 11.065318430045368
Co 8.228950809919322 14.428970152880172 10.193954366306736
Co 10.35640863051295 13.319182336396619 15.293356407367993
Co 14.44380324964502 17.055394258395296 13.400709532946383
Co 8.848780959164236 10.646583766429986 11.868367650291495
Co 15.727749798904492 13.568038013092536 10.241260852538977
Co 10.42245449060575 17.76230603352109 11.920851218537369
Co 15.128858423021057 10.248264018569529 12.951798473788491
Co 15.468245492111507 11.289542560527488 10.92101586212496
Co 16.243488199866576 9.0842381127796 11.287407726852436
Co 10.281453639305257 15.181854425552197 9.606494642293846
Co 9.016548542325403 8.996495787554945 13.531431758727651
Co 12.732385468297595 13.485405883925102 15.501835980574109
Co 11.861250739203749 7.265953413352679 11.950685292338411
