55
Energy = -321.7141852 eV
Co 11.427478106690469 10.98884425141577 7.084271329997094
Co 12.881503558978668 12.726779037253504 7.559703680135784
Co 12.510554274054625 14.935257412482585 8.609275917764194
Co 10.38288891176859 15.059966873045322 9.36832882565457
Co 14.882638676887687 15.587661402820741 9.32691961136667
Co 10.805624816318764 12.604754219455598 8.601703224437076
Co 10.701399324644566 10.166439020240945 9.000861658008091
Co 15.422755592503556 11.595657074300547 9.068927926714727
Co 14.186263910974452 13.465756978411584 9.26227446452377
Co 14.654402054245008 9.868747258378372 10.482073726200742
Co 12.640857403757796 8.944814784207018 9.487582918790022
Co 10.699884571374545 15.053561763501268 11.651330576687212
Co 9.49359064991805 13.146542772411957 10.490269644544009
Co 12.018138925406639 13.44906433063503 10.445795444309226
Co 16.234980150868008 13.796884649413208 10.18601055310773
Co 13.214200794204135 15.43441123947923 10.908279004210709
Co 11.13801664362683 11.342911553386124 10.847669966286027
Co 12.97819510100115 11.225073930671266 9.354692592034883
Co 16.245145357192303 11.613851055401833 11.091776371454618
Co 12.732373616487378 9.54546774213256 11.724577381827682
Co 8.961860513832871 10.625863906357027 10.816153476095927
Co 7.81468236300671 12.537611821473389 12.073381525236908
Co 11.521369729939636 16.771907260401054 10.334095329035856
Co 10.69432232186164 8.8365571656195 10.945363627405278
Co 14.297233043120752 12.92327268881282 11.54850899637324
Co 8.667441166011795 14.56629947990565 12.560033075629637
Co 15.3259770050889 15.206085870219587 11.675945851302329
Co 10.353718827976433 10.315166088317222 12.77154610209257
Co 14.801848613170547 8.68182033476839 12.483653852071516
Co 8.83846083989266 8.581238643049964 12.364440176172462
Co 14.788787693412852 10.917323855076738 12.758868529668101
Co 8.162701618269557 10.654521212931272 13.188462197525613
Co 8.877753534069024 12.647967165430751 14.256970188217691
Co 11.360939458078573 8.40229064154188 13.539189612056484
Co 10.343989743869338 12.818402420347134 12.598151098561386
Co 12.17344640455783 16.359384687817766 12.875774631029582
Co 12.603000762735123 14.037114130333308 12.795666490315798
Co 10.575011509760479 14.822507168969201 14.0961659189918
Co 11.915547116200015 8.826494418377479 15.84598381669863
Co 13.29076953192055 9.56911718761676 14.126953827277962
Co 9.3926326629371 9.032498229462185 14.600650283608747
Co 12.38395994041789 11.561897333014802 12.851906483748344
Co 15.06875835817354 14.286674042720346 13.759738079872276
Co 13.826494452549092 12.522023920048163 14.336118952576017
Co 15.3007395880306 10.858833387728076 15.058163208624915
Co 14.395509035820348 16.420601220402116 13.463140788937013
Co 11.544728395017202 12.874963741667393 14.794907311147742
Co 10.899856471894676 10.703193433759886 14.993620517170658
Co 11.228949956603183 14.485655641329144 16.391684718232742
Co 15.454293212986093 13.139797727651734 15.777196074231416
Co 13.015585163181873 14.970088865709428 14.863047938819044
Co 14.263611030479721 9.043268965441095 16.12544816204065
Co 11.171424468620295 12.052475415683489 16.931847115277655
Co 13.08194042461919 10.987243251392805 16.12961928735214
Co 13.229205850593083 13.284834577180352 16.592721188148104
