52
Energy = -310.19980825 eV
Co 10.42268241014353 10.861663619317657 4.9621666595861145
Co 8.360266530757052 9.477551853801 4.989140997265853
Co 10.581139928001228 8.416318807029928 5.3055547254704125
Co 6.297833344737214 8.120827292108975 5.0497876362663945
Co 8.533595082334879 7.036648381667077 5.328077253435922
Co 10.723136801831371 5.9775268848068706 5.6799582381914036
Co 8.392479852772128 11.687750257701447 6.129999614724174
Co 11.969188035330541 9.91346120940589 6.584558315540252
Co 6.344586278244587 10.294416769471653 6.176239613782039
Co 12.137499750220941 7.488589125442125 6.994044469591869
Co 6.687517130273707 6.358393405975618 6.633240252721329
Co 9.654048110337865 9.861117962000318 6.926080175556603
Co 8.857855801286936 5.275780992015285 7.0660936345662355
Co 10.573705833494634 12.00586981343193 7.105485946541411
Co 7.581813152419355 8.447654763821815 6.9795779414096515
Co 9.801902114355002 7.387188164655251 7.300708251382393
Co 5.246253799289474 8.430506439457526 7.232542996722438
Co 6.372069826537485 12.470539340821524 7.310923065342218
Co 11.078446615620747 5.5503611489840265 8.090394018345508
Co 13.538278752331468 8.894792270756868 8.278951547521979
Co 7.63001208465179 10.665345725034351 8.128955294292185
Co 11.268340732066957 9.026513441154753 8.61818589272345
Co 8.586976862579677 12.800104047070086 8.320393022005327
Co 7.769712335155116 6.567676631986211 8.7077590002105
Co 5.30168169687611 10.54179292308413 8.424643810389576
Co 10.19319622545847 9.238934469130848 10.849874981864696
Co 4.241470441007166 8.745146254272633 9.547506951004294
Co 6.488460535787 8.580348420544228 9.206665759026592
Co 8.874027764515239 8.82447972639467 8.91709422023359
Co 12.46915132067709 7.112441272264827 9.41038657646895
Co 6.685195242373173 12.115529033744172 9.735251358706185
Co 9.977910698255474 10.997496258599734 9.108970236415365
Co 12.51804451585913 9.281816212985284 10.564826888217606
Co 9.19884976998519 4.888003099633867 9.528875123037858
Co 10.69132195009874 13.168813254088032 9.361555535756688
Co 10.135522016281111 7.0042172344276 9.707562325959971
Co 7.254679797399625 5.7004155283950055 10.83130977066825
Co 5.63208063663817 10.16206569886407 10.839201834960479
Co 7.954351657191957 10.284735738867194 10.522541239063477
Co 5.804474092641341 7.7727083010948625 11.287893430325493
Co 8.124295063684336 7.823784438868345 10.91643057771064
Co 8.915443604861586 12.417541508716694 10.73983277626297
Co 11.39967549539536 5.2119616840542715 10.522339402104574
Co 11.489464092455474 9.626480358609593 12.749888426909763
Co 11.119768540840344 11.374981573485089 11.096479716607766
Co 9.418830630395508 6.014701644795433 11.737217980031648
Co 7.032484943424033 11.70150289496989 12.153990943282544
Co 7.214095846564735 9.278103589827179 12.538999675362875
Co 11.447320445573993 7.409598125104219 11.64814958251654
Co 7.389109191141755 6.863768272914347 12.920104191492422
Co 9.254025915176369 10.684430163139734 12.460753237459702
Co 9.440636436075861 8.23251370261255 12.847744616369951
