54
Energy = -320.30548522 eV
Co 11.596746921412352 9.363556991758093 12.595824441482614
Co 13.411196167118591 8.319759215755248 11.321818528074074
Co 6.99996290557344 10.18127463956567 8.933683950469119
Co 10.949019526876173 11.405041360396375 13.415428708320125
Co 14.768118531939566 12.000849327084568 11.842080499908867
Co 11.779785596464295 7.083764594554211 10.21009049638623
Co 9.992454240964596 8.221673590665098 11.325239180388278
Co 11.896643509887433 7.049098487053996 12.586189892786042
Co 7.60778533440517 11.745570055752143 10.707767464269205
Co 12.716696058969967 13.075752240991845 7.6980630607735545
Co 13.125030048037045 10.763529461497512 8.264460316404826
Co 10.58288111520585 12.573607902793103 7.105460159104042
Co 11.185340733726548 7.945901653604142 8.075547112254101
Co 10.512102379563048 8.886351763647388 5.87941720553957
Co 12.480816067243335 11.39116517085696 11.463834580944342
Co 7.448531091523574 13.175363328601543 8.731752096358619
Co 9.200818485419289 7.211279584377341 7.096590072946017
Co 9.762382460780215 14.152170309975276 8.482586175311562
Co 11.77104332947598 9.537194530980546 10.020240646652413
Co 8.832487460904861 12.211407984572059 12.690015090779935
Co 9.38723137228024 9.263163997023952 9.344259391869707
Co 9.969046233113778 5.9388427583370005 11.707293858972868
Co 5.893822191912533 8.138094908489874 10.383989594413881
Co 13.657883513622377 12.569461896082737 9.753530417853051
Co 9.762336724653139 7.534492445923534 13.52417205268996
Co 9.030444905424572 11.536659510859865 8.711526005884496
Co 12.720768407635385 9.031554331353579 6.707270917736588
Co 12.129924050458504 11.23235425818172 6.048363158566202
Co 9.16396797621799 9.82194472238265 13.096175163697385
Co 8.115929433648528 5.899958048422495 13.123717592148683
Co 9.94778770973432 10.896955577661528 11.10136164888677
Co 10.852897637533502 10.265521734716804 7.709060316984034
Co 11.792475763983177 14.18740496747472 9.786675049223343
Co 11.29817798602219 12.016357082724099 9.387215967509757
Co 13.249138368803045 13.808906373142126 11.673592666730762
Co 13.457760211159377 8.362775499015447 8.887996887481405
Co 7.895379592817075 6.9260014877855385 11.040578672522203
Co 7.61039512706852 7.860806186573043 8.783367445259533
Co 7.791275111430989 9.348700679067763 11.076546965630179
Co 7.47924993570416 8.147604344599277 13.134514350588656
Co 5.37218104289061 8.907272666894071 12.52379532891742
Co 9.598004466380354 6.763585903600244 9.401160180881037
Co 13.823324570045116 10.079101637035373 12.841688897022035
Co 7.002729912077643 10.662115100503973 12.802090976809634
Co 9.551356589492709 11.066099477405551 5.780899609323267
Co 11.056583033388497 13.182122081226751 11.899194150460156
Co 7.378769223986556 11.445878279738416 7.024163720223795
Co 9.35613674817733 13.217941346571369 10.45372916277243
Co 13.079634316104508 12.290131318014824 13.503433908719375
Co 14.171874794327277 10.256701913858752 10.312119379407235
Co 5.605618947550184 10.459152463256832 10.831146101290312
Co 5.942493285872811 6.6536561474677125 12.237989775077486
Co 8.482425436139861 13.347851807197543 6.625543044579416
Co 8.591182999990952 9.424566438068961 7.1737975458534216
