52
Energy = -307.48060846 eV
Co 13.717764136179055 12.415648976254053 11.370280659814469
Co 12.761094884765363 13.738697274195097 12.999213110594983
Co 14.104097501637368 10.074739056645164 11.308388928005876
Co 13.088079838381857 11.254726362930866 13.362890512199536
Co 12.930368650024471 14.609491398451269 10.698219208952708
Co 13.809488300351527 12.930541137882786 9.148524454750723
Co 13.318991037920945 8.998341148866007 13.832132855707401
Co 10.844243384937835 14.386556816782111 11.832299850714882
Co 11.471356186358983 12.110291135666037 11.971848791328043
Co 12.273972884381926 11.020970516355584 9.965358746597095
Co 10.735831892144441 12.203324224475617 14.11799295338062
Co 12.405277160243523 14.579428505124271 8.251630849083254
Co 14.158238756554152 10.588255347769113 8.8843982171976
Co 10.698098168781753 15.403955063758561 9.625169677127332
Co 13.327593286806591 7.739901773171754 11.922607873011003
Co 12.228041038472186 12.267272936764638 7.613823394999429
Co 11.174854394121342 9.947153104627542 14.251302930741145
Co 11.360591024302188 13.200780500001486 9.76368856308391
Co 9.15511592449586 12.847650971019664 12.49587387660973
Co 11.284903166844213 7.7643304364220365 13.316978635241426
Co 10.317423116807968 11.34355683568668 8.393587656763398
Co 12.92742394237894 8.627555936823553 9.800206174750155
Co 11.922439999587096 9.611140985493536 11.985043632748697
Co 9.854678155078778 13.562813280338936 7.998769131995037
Co 12.057176490691287 9.773559357943975 7.859587400756204
Co 9.743829682641946 11.634011010160116 10.519531458304357
Co 10.644823678315129 9.312459185259694 10.00788250043536
Co 10.907709478119973 10.901088716293753 6.120503417061305
Co 9.720705125583013 10.447770831881025 12.429969074433716
Co 9.574297100580132 6.325795442600562 13.301245007111252
Co 11.24459811005839 7.137796152295954 10.878614596625205
Co 8.539993049208501 11.139551007451141 14.181064146756087
Co 9.013868434754308 13.839404929949486 10.273511559811404
Co 11.208581970335343 7.639829907456884 8.37670439690674
Co 10.68597951191415 8.616692573002602 6.111140749637546
Co 9.360076087314967 8.173295209258713 11.821434732448749
Co 9.070678473680033 8.770032736072483 14.04895101965919
Co 8.744028691876283 11.366381337436994 6.720659180756745
Co 7.515114254311758 11.695543884951151 11.27989373293574
Co 9.387389704682215 9.28687824292651 7.908341938460543
Co 8.045528742726278 12.122056125841592 8.92580904724947
Co 8.354123577900593 9.826968619564935 10.005644317649603
Co 7.505615927548768 7.2548701251661445 12.987276796328509
Co 7.460762346070965 9.647565779000168 12.413257936617685
Co 9.231182295031804 7.353646912049279 9.496780213136168
Co 8.654617308665362 6.010814277975852 11.207624166772245
Co 8.359986336630527 9.071287610398862 5.919826925313928
Co 9.043786570542922 7.126080284500145 7.117432132980146
Co 7.125624261593788 10.202954745878836 7.907245197173404
Co 7.153269913717965 7.932359360178585 10.751219004608965
Co 6.118519704534874 9.992753498736528 10.139444278882655
Co 7.296519993040133 8.060871336695428 8.41749191562122
