5
Energy = -21.66583295 eV
Co 7.883980058483959 7.875086028558943 9.635360337624219
Co 9.443408718888206 6.525792877041115 8.954670110967351
Co 8.154025277142326 7.420575438066951 7.433582239397647
Co 6.945359497146749 9.216489222240359 8.008215695455835
Co 7.672096104923531 8.950384372217496 6.0038960269743376
