53
Energy = -313.45086415 eV
Co 12.08643407341693 8.93779259932257 6.393115044494356
Co 11.19121950344987 12.327336821093555 6.167183461859056
Co 13.137927526232975 11.060634264181262 6.585138920416163
Co 10.324956339760366 10.284886251376758 5.632556024079581
Co 9.864285147020972 8.684831514327403 7.328567202182393
Co 8.848054485862498 11.054447121291249 7.282532373942958
Co 13.22567763622135 9.439466769244593 8.372844690178033
Co 11.726329172008356 7.524833170852313 8.25674880342173
Co 14.329605467630298 11.373428202687302 8.74382474760422
Co 11.198368762282957 10.62139939251461 7.816326246381382
Co 12.397198840256783 12.660923066665477 8.21821462706987
Co 10.020635654243357 12.943797320247358 8.116540938690234
Co 7.739925302082509 8.371392405649644 8.170973559387502
Co 6.9930316043198975 10.49326964754021 8.656895331084963
Co 11.463997880434027 6.85152976972197 10.605785867283648
Co 9.249692869048573 9.940187874633107 9.292341745706203
Co 13.47820642058223 7.853999022634335 10.128605141365844
Co 13.307524335029797 10.185602349555051 10.72401254499551
Co 8.350165956404856 12.133688000292755 9.593473664632324
Co 15.323625440089783 11.111725338221815 10.99225327193873
Co 9.541789015471439 7.525144188806226 9.420752685013994
Co 11.393954117603402 13.96474492763764 9.917038038642538
Co 11.399060568211924 9.162429067270097 9.875969819961469
Co 10.839914720176736 11.657733422357488 9.955616449424666
Co 13.148797335590164 12.47091895990289 10.39789028157317
Co 9.132895342768785 14.265567976221583 10.06393659399823
Co 9.41139720200256 6.177223290864757 11.325146417849018
Co 12.206369332189219 8.424781551966209 12.164489632174343
Co 7.465744594573552 6.725962876947977 10.048998073292132
Co 15.552604565615972 10.572752023429155 13.251276923682536
Co 7.567745546439157 8.945618149812708 10.552548841842928
Co 9.828501674956009 8.63619052706386 11.554723238408979
Co 13.860256823142045 11.962992049053721 12.543997472161577
Co 10.12225317352292 13.033195169869296 11.936943952110717
Co 11.384106008917552 10.743897349987028 12.03101721657758
Co 14.634208601242547 8.896027111153316 11.997163172710232
Co 7.7209269399909495 13.092452460836544 11.646915878576072
Co 6.60705158234898 11.09602000412279 10.936056368659289
Co 12.414326461089967 13.771574333908273 12.16166282280316
Co 8.743686532032456 15.099403374544057 12.287335834801814
Co 10.96670704774101 9.436064800087205 13.941679836033972
Co 8.926385478800718 10.870277575458914 11.558611796795917
Co 10.864559377723001 15.420190898177465 11.693340157585395
Co 11.80637950109845 12.184905493071719 13.819828067282547
Co 10.11997967614063 7.311447979042097 13.359035792610662
Co 7.7993534359078565 7.384870260603116 12.352780697731777
Co 6.471470286149076 9.331684677553865 12.552484449953042
Co 10.720372389603515 14.284260039061547 13.805333406082474
Co 13.231522331830499 10.034690885499257 13.50651667919707
Co 8.536839115284348 13.399360348267113 13.829801700375818
Co 8.602891159128854 9.297638921342182 13.467147956427858
Co 9.65366121331391 11.386466212669168 13.773118396361339
Co 7.348120734352859 11.39443746572548 13.253678128393007
