52
Energy = -308.28356039 eV
Co 13.90914175372873 9.644678659682844 8.423966987028807
Co 12.523533028047199 8.659075914832986 6.596044743142001
Co 12.785039856628694 7.676754854014119 8.802286370788648
Co 12.866184894840986 11.27184393126055 7.148790990402214
Co 10.923794508516414 10.458009580088595 6.051338915356188
Co 13.997708423868978 11.53663102174827 11.415202649123833
Co 13.491934188933852 9.336765296218456 10.720790565691082
Co 11.19360135121219 6.666803580517283 7.4833728647731075
Co 12.9977067078566 6.902610580796358 11.056562577833574
Co 12.651861493557039 11.422297706302988 9.501222144369843
Co 13.273318010721033 10.501351340011375 13.330769256537922
Co 11.502073381015313 9.674378086190368 8.376665993331391
Co 10.106338167124179 8.35492149090627 6.51910208073974
Co 11.007786189848854 6.263996645052626 9.74631005241447
Co 11.683873578777852 12.26249426142328 13.351697999952266
Co 8.548616103838775 9.90566248579728 5.469008001443937
Co 10.799618197908075 11.991386526658161 7.878735457429424
Co 9.04808619021826 12.126379934466422 6.3270019765403385
Co 12.32824819081148 13.108175372325112 11.267607678256587
Co 9.2265352508527 10.220132267282088 7.681256522957583
Co 11.693071579378755 10.727918792726323 11.579714034366411
Co 11.341572358742825 8.464524446252806 10.4623384878981
Co 12.35120304938272 8.501393094365339 12.715697703951243
Co 12.08052974959684 13.607269727143338 8.938450244266829
Co 9.611502790297818 8.18384387434559 8.895038831450304
Co 10.939791419292558 6.683019829078231 12.175838101891989
Co 10.460614602124643 7.794667797732997 14.20347091782947
Co 8.86784651909071 6.224435356383313 8.131984350310935
Co 9.039591286196078 6.902048305751082 10.764011395603953
Co 9.801124834551505 14.030496581010032 8.409307346120313
Co 9.979029826219994 8.930661964384228 12.213516886854169
Co 10.33951219479381 12.473538382222912 10.236655932893397
Co 9.646148303927593 10.249816971617404 10.13513840764679
Co 10.742132122283909 14.867088321882306 10.423523025795774
Co 7.859257381571843 8.326692724222124 7.242994377270701
Co 7.107815638317065 10.942151461544809 7.060537331912116
Co 8.4961306875508 7.301964104876223 12.998398170603751
Co 10.998710634262705 10.100275111496948 13.969393518711927
Co 10.074413917086101 13.632503082099497 12.271441253581045
Co 8.362679613996303 12.237708831322495 8.613517174416952
Co 9.511192288823207 11.342683006321483 12.564954687606633
Co 7.848532060068324 8.937007419928925 11.322410984577502
Co 8.62443115494297 9.432686090473448 14.029202367836671
Co 7.2769325113743095 7.53911365876564 9.430739908898628
Co 7.743874846763607 11.631625202272556 10.84101544289478
Co 8.439391156490295 13.823422941951543 10.46155599783688
Co 7.3719292454747265 9.834511228371994 9.12109779566809
Co 6.502188624293517 8.657926975725005 13.16757715820183
Co 6.129187371676065 11.768180121627932 9.158102657694672
Co 7.148261417692653 10.818276080205141 12.901111478229547
Co 7.872982807977768 13.085778147009265 12.645776135528367
Co 5.93331427483774 10.13718016107433 10.97577405076757
