5
Energy = -22.05545471 eV
Co 9.644648286890611 7.2422254816028735 8.616387445223276
Co 8.263940022691484 8.135938403626445 10.1440493829528
Co 7.4828085876844765 8.429479812383741 8.072925835812471
Co 8.277866420059981 10.353280069857494 8.855600280239772
Co 9.755774758848933 9.26095083810999 7.743759244612133
