6
Energy = -28.06002091 eV
Co 5.733790685623371 8.407026569076537 7.217540954179655
Co 8.892165615371464 7.0916271618370015 6.141279467515548
Co 6.839084676400261 6.5005212676959205 6.81453404366341
Co 7.947294515822383 8.697537768871143 7.381535746258704
Co 8.69732362877377 6.634507802298551 8.282543591785405
Co 6.692628139809312 7.471066692021538 8.964853458397844
