6
Energy = -27.11190703 eV
Co 8.866627447830892 7.20589785246648 8.848428837639547
Co 8.815296341634152 5.717621942384884 7.249851912426395
Co 6.950007245584475 9.372563108754726 6.150954219226747
Co 7.489484163630315 7.441121502644969 7.024004375391813
Co 7.650314044181996 9.394255986741637 8.22101570660591
Co 6.832331402474583 7.720059831276893 9.313186143227332
