6
Energy = -29.09916518 eV
Co 8.4356942412599 7.830276496703328 6.243216916915437
Co 8.822352732353803 7.937803818356416 8.472444009911056
Co 8.020446805890456 6.022764167699442 7.550501269357818
Co 7.095050844786861 9.09463714655959 7.572072678411
Co 6.299183562474796 7.188645428668243 6.643733472157774
Co 6.687886436377019 7.2872356077067755 8.87934013575635
