6
Energy = -29.09960241 eV
Co 11.089591546750013 10.78123845554212 9.791796051938585
Co 10.276874571199011 8.904264239401092 10.775017196114092
Co 8.877078843186913 10.611996891696366 10.257095453585118
Co 10.179043836239307 12.041059345361248 11.44392450054483
Co 11.582220911846294 10.331951934082863 11.960181588694956
Co 9.36719705214055 10.163444888974462 12.427327474377993
