6
Energy = -29.09912755 eV
Co 6.2711503481081206 6.651579009610599 7.762954881539747
Co 7.379641814990962 8.16595711677338 9.036926116715668
Co 8.861817156749261 8.492671870459429 7.355128758514018
Co 7.754693581314391 6.977703427302664 6.081931256296401
Co 8.493198252458042 6.401634444006301 8.148663972831063
Co 6.641953869260096 8.74494761872856 6.969832850277843
