6
Energy = -28.05803588 eV
Co 5.752378740134434 7.723882692137485 7.9640840421160295
Co 7.721862265255238 8.569820569483275 8.411305063404924
Co 6.168877354227203 6.137216154245537 6.381623698028283
Co 7.377446838268193 8.120163974083168 6.258109134073675
Co 7.735940671676947 6.368474371827955 8.079357842321272
Co 8.330921530017068 6.122700942805367 5.927003252049812
