6
Energy = -26.248341 eV
Co 8.089311402421313 11.013946121435065 7.693150752357997
Co 8.813214705218583 6.079278447626571 9.537217329078818
Co 10.072450203687332 7.821596604342326 9.83548131042678
Co 8.001523223118099 7.613172286946938 8.293489742087258
Co 9.068709363636197 9.40587713268625 8.69712931714264
Co 7.081441012468052 9.192779317512278 7.07018145945593
