6
Energy = -28.05944779 eV
Co 7.99250739315912 7.49383176229844 9.123650774886919
Co 9.20774652413568 9.023591244314554 7.488782734064211
Co 7.104306649837065 8.289782075436559 7.219862352896119
Co 9.41911973554059 9.275029609443578 9.875115428654784
Co 7.448580339720337 9.748055623510508 8.83746929039788
Co 10.19864569397672 7.527364218926245 8.808512710524646
