6
Energy = -27.95732428 eV
Co 9.43441060448394 9.969155467515822 11.862191388317576
Co 11.164264496304703 8.875520389992264 11.01364877108785
Co 10.926914964657959 9.994405994343358 9.206974537145257
Co 11.405424626180425 11.110378262943147 11.528938865616961
Co 11.200851778445712 12.1904989810006 9.669699073497174
Co 9.225662115730659 11.208533361444125 10.12274573782504
