7
Energy = -33.98679142 eV
Co 7.341311188312833 6.975063656763342 8.520657050422342
Co 9.128433113425716 7.300631043626036 9.912294145524127
Co 8.88820918073938 10.239417776686421 7.673252598088972
Co 9.256823297576595 7.962923112947551 7.704966301308032
Co 10.080079751364 9.309398457941533 9.38991262712509
Co 7.782971318743006 9.084720895679698 9.335297496068158
Co 7.189458355825403 8.795131056355668 7.130905781463171
