7
Energy = -34.21099741 eV
Co 5.7404563442222685 7.070088146976162 7.26883147808388
Co 7.518058064869342 6.403213559150405 6.000036970401574
Co 5.756379010491126 7.495147681850191 5.020911745873182
Co 4.317275637612747 5.958564766864783 5.8595351490989005
Co 6.105452696639968 4.847982632032077 6.852693916890907
Co 4.636980060824741 3.706386241573354 5.501005462762912
Co 6.093153579079355 5.265320637905291 4.613132759111225
