7
Energy = -34.05048033 eV
Co 6.211928272048257 8.258919798667758 6.321355547896215
Co 7.491201667689527 9.408962193573295 7.654198539959551
Co 9.180975451434726 7.98848341818083 7.203541526272341
Co 7.5119493400392825 6.55633242972127 6.716415737653397
Co 8.599359334828234 8.465157183711517 9.378695963278046
Co 6.6405859764157285 7.5068382510163 8.614461979978215
Co 8.611775069265555 6.299786412969677 8.66604074034344
