7
Energy = -33.30274836 eV
Co 9.47531967295119 8.159938861995908 8.804270155822769
Co 7.7383676004118955 6.745713550576963 9.070159542656569
Co 7.252894795000529 8.869653027926514 8.624647997275924
Co 8.346037182055682 7.797117972603432 6.932516429307013
Co 6.581579544796999 6.118432216229201 7.281845558831197
Co 6.112285499088776 8.232567593732018 6.777792025194279
Co 7.249426883614081 6.832487954854604 5.264679468830888
