7
Energy = -33.04590614 eV
Co 9.058657629582106 7.42277001529177 9.375477400942412
Co 7.259054685278766 7.910606187029603 10.503283634110705
Co 8.325755419809145 6.4585092956824655 7.232131536690135
Co 9.317731290391817 8.448927083978464 7.360209052367133
Co 7.133894303663849 8.071749700829601 8.330155965246052
Co 7.567878697187951 9.634101083548677 6.696676466824341
Co 6.927017013465404 7.660152219109067 6.016933109735539
