7
Energy = -34.21061876 eV
Co 7.498770691165357 6.4894754020697345 7.534706310775724
Co 8.707811614800569 8.289354978235075 6.81233747768788
Co 10.344383815521152 9.160745790676632 8.179117782832659
Co 9.073091081740843 7.394195443085235 8.93164138380048
Co 8.110534268837748 9.439696199242208 8.693716649160574
Co 6.866464751705215 7.6496568435008045 9.401160796560216
Co 6.510499589408022 8.536193406570012 7.3179036143740515
