7
Energy = -32.70919305 eV
Co 7.653252660763388 9.443263056684096 11.485180453241533
Co 11.052158041511564 8.348369316046039 9.376195789130774
Co 9.318769875813961 9.75313881799226 10.047971965297435
Co 7.651203745791471 8.299314363808856 9.69517407698579
Co 11.267075311518838 10.474498624788243 8.963211750720525
Co 9.317851844183053 8.547711853201772 8.050308497209208
Co 9.357433867696852 10.739910940409656 7.946708935616605
