8
Energy = -39.74909552 eV
Co 8.175412175715815 6.145463352324367 7.517949817045643
Co 6.830025309383267 9.598211189053982 6.814424827790527
Co 9.721154080259383 7.381599112136649 8.736452323949813
Co 6.901408645157346 7.541418192084656 5.754927575193489
Co 7.748318365206986 6.809354041416705 9.704462511624422
Co 8.093552651119376 9.01125139546965 9.03255547083559
Co 8.671209823663045 8.289953092864828 6.958777657133014
Co 6.572912899226674 7.682085636767212 7.993725023234155
