8
Energy = -38.71210532 eV
Co 9.275580317209734 6.978397503750458 7.3487171629836405
Co 10.277156015551595 8.933011618502984 6.791907183438261
Co 6.015594150153574 6.621950219411478 9.305960533157478
Co 8.558396164505405 9.014759038072727 8.318912479883808
Co 7.03173240583464 7.433315321969396 7.412529573024598
Co 8.242449011521325 7.024344877835947 9.40895300654343
Co 6.484655062444841 8.766763779920808 9.280222741281184
Co 8.241768564757518 8.776828823899718 5.992912703067593
