8
Energy = -39.92872167 eV
Co 10.217331922096665 8.659748265298793 7.194657253963833
Co 7.990703379742501 8.370503295069078 9.937438173712295
Co 10.260940566717386 8.672830406664838 9.459604993696624
Co 9.064112528722251 7.027807955002934 8.42734822862098
Co 7.9520981480302 8.356094535663855 6.976097135609749
Co 8.671105056677556 9.93758768952448 8.418811237017572
Co 6.465000861112161 9.312466245708922 8.483537087356684
Co 6.770333878479653 7.052658617903419 8.490502410528515
