8
Energy = -39.74942393 eV
Co 7.96859085771702 10.806962593214669 10.111932396493861
Co 8.56104446682921 9.607262499181719 8.28248365257213
Co 9.911433415514768 11.382583837050463 8.969178027433523
Co 8.839116462186604 8.667643354399562 10.391898074160803
Co 10.623325743914508 9.232982762167163 9.105739726687691
Co 9.990910706776367 10.50593161254909 11.060702490871783
Co 11.297899502526784 8.658790607386821 11.191872754550431
Co 12.075765294774559 10.596237985367988 10.184863930244216
