8
Energy = -36.68219485 eV
Co 10.85465218592057 8.513535970815173 10.086145801965522
Co 9.005399730792716 7.3645145315027944 10.124765205031418
Co 9.386325885222636 9.20981339103154 8.651500132537318
Co 9.368704109975141 11.015915223465674 7.443587079108243
Co 7.84753335306868 5.781738980280605 9.197056777887124
Co 7.547244770223373 7.755383503080949 8.31055797532684
Co 7.866399553827553 9.564598708885535 6.845327339148506
Co 5.927531515547573 8.6294176088691 7.123582479326179
