8
Energy = -39.7496103 eV
Co 10.157631772450125 8.50976456685258 9.93385005548618
Co 10.291839957150236 9.786430799484656 8.06224413777735
Co 11.774959926348082 10.07686451113517 9.828401033069856
Co 8.342824528052708 8.150825832718677 8.626078070364612
Co 8.10831559612966 8.566035244273682 10.894297014828824
Co 9.941479295569755 10.360273496083845 11.233311528854957
Co 10.266882024134697 11.709411318213876 9.37305816212258
Co 8.550342202175162 10.249684538272138 9.441858601015017
