8
Energy = -39.39667582 eV
Co 6.029179179736005 7.214457505036013 5.138677531401358
Co 7.917957835604559 8.294408073929237 5.60840486255544
Co 7.4406977245692545 6.028231164523596 6.411987334297813
Co 5.08871771070745 6.170098162774889 6.915379896242249
Co 6.031331614816 8.30688402299755 7.157410688358766
Co 8.17500617687398 7.788588614905204 7.760152017235595
Co 6.54113137919343 6.455151890794536 8.577597493629257
Co 8.610464286798338 5.5766664733378555 8.264876084578535
