8
Energy = -39.52318534 eV
Co 9.118692907034571 6.2229540556239495 6.3953055922414626
Co 6.920708400470393 6.775061192429878 6.048411481327809
Co 8.400886435190825 8.291246020855878 6.979902417604941
Co 6.15698661269177 8.862849595642123 6.698328954167723
Co 5.49994995099316 7.081672225098155 7.854259619843258
Co 7.723283861333096 6.40845512724147 8.18617865636065
Co 7.016820669919623 8.503728537936622 8.839014831839497
Co 9.216021070126244 7.907383152931992 9.051948354374856
