8
Energy = -39.12541215 eV
Co 6.9232523417103 8.084440392222783 8.258893748347264
Co 5.325141122221085 8.75440462766864 6.894954311509892
Co 8.644173779650114 6.5700698763133145 7.391962048496703
Co 8.529014269323804 5.944016525799095 5.279127842807327
Co 6.5667107783211165 5.875060297448903 7.9509581530446765
Co 6.557917872421445 5.10524020927797 5.82183987308053
Co 4.8442396870247135 6.610367309705168 6.679783500351498
Co 6.936136904437125 7.382987516673305 6.049067277471291
