8
Energy = -38.44519609 eV
Co 6.606538597975525 8.124632934096937 7.053449025561285
Co 8.124657205435605 9.64263269040332 7.051821066806696
Co 9.64134672815761 8.125926957570108 7.049691287775895
Co 8.123196980585064 6.607920344352407 7.05123784678706
Co 6.608866164639455 8.124190176009387 9.200524965769443
Co 9.643598680056716 8.125617674088021 9.196767485565402
Co 8.126949271343916 9.642264254255776 9.198896971486406
Co 8.125558237910514 6.607526835328218 9.19832361803899
