9
Energy = -44.87394323 eV
Co 9.197686035354529 9.859938075769863 7.59763161868413
Co 8.946589400853805 8.387379810916787 5.895169064483826
Co 8.170464595698128 6.027343636729488 8.181302996431981
Co 9.801774838736414 9.223401918299139 9.678228874340451
Co 9.697459240140205 7.631665408409929 7.927492812048163
Co 7.650657103896984 9.833370545029515 9.355682664576534
Co 8.06585022734421 7.606344998525671 9.743570809332395
Co 7.467909281487695 8.144857213549624 7.571725171650834
Co 5.949638367658032 8.369259371830344 9.213709223769067
