9
Energy = -44.60232078 eV
Co 13.778596114432856 11.73384838513798 11.728029363824128
Co 11.660936371273216 12.405353534330118 11.311093637051972
Co 10.04457325381915 10.939187729520096 11.966159723446722
Co 10.367365745650117 11.423367037832485 9.61536958900875
Co 8.6610314050156 9.78163892438768 9.908454703654558
Co 8.369957719298405 11.746921331439435 10.76162159089308
Co 12.261914483359966 10.233386622250796 12.24563317700737
Co 10.770778327152312 9.339909018895254 10.594486166874509
Co 12.52949853181421 10.7567653046635 9.987572140573594
