9
Energy = -45.00592982 eV
Co 7.7789496715490625 8.166423584093343 7.063240021199256
Co 7.663080728951293 7.988377867060128 9.347966839674239
Co 9.590228997576576 7.217282886877855 8.264790145976052
Co 9.750820731964685 8.388457694591605 10.297788404109673
Co 6.8679095010917415 9.895098855140231 8.355667575408336
Co 8.115906711473544 10.061606363575356 10.355402451589526
Co 9.137164423734717 9.513261270703019 8.320406430473067
Co 10.392540233449338 10.560383023951553 9.925464556614259
Co 11.297980500209427 8.803689818879251 8.66385507495585
