9
Energy = -45.04605075 eV
Co 8.245158069630065 7.615582754342871 9.38158984694434
Co 9.118464499445246 9.622554159898806 8.614328868072693
Co 10.016340164077546 7.53097045978486 7.87731589696305
Co 7.073701189446667 9.671196540432963 9.562361242919248
Co 7.143640761175672 10.485119015875695 7.496905126820188
Co 9.411810241292475 5.638369691132824 8.95647246943873
Co 6.513855971941091 8.194178728739038 7.955290274633254
Co 8.050010665853033 6.457579374485394 7.364936651139792
Co 8.338405628392087 8.696621593072832 6.701152714411524
