9
Energy = -45.03625825 eV
Co 6.963540002206761 6.053200220476582 9.329291813345565
Co 8.64310553816386 7.534506116648284 8.594342130455676
Co 6.610418696961859 8.202330168005481 9.696791692357701
Co 8.029644041414501 5.500672645407676 7.475883570214407
Co 7.498941575875681 9.481426637540334 8.07133176866678
Co 8.624806485837835 7.316820739412332 6.283125101740366
Co 9.497453468905663 9.210287963014867 7.09792381319165
Co 6.611464457495015 7.4321664622311 7.431189068005626
Co 7.372381173983903 9.1203444881079 5.871876482867567
