9
Energy = -44.77151234 eV
Co 13.441772667518554 9.866685814032861 11.107152274780494
Co 12.32293585059799 11.605207422359205 11.790309890161412
Co 12.15585305190066 10.932783879545282 9.501415365593319
Co 10.257959793707027 11.799414043369019 10.530396018835564
Co 10.022427735808408 10.02290010988495 9.086780583723067
Co 11.131330157986838 9.634930907632635 11.096588895292728
Co 10.220985540583511 11.015722073124298 12.657265582668522
Co 8.743939254156597 10.023239891068279 11.108068723153462
Co 8.21087680164688 11.396406303017859 9.504567289307463
