9
Energy = -45.07642724 eV
Co 9.571687349743906 9.410023928443904 7.519381695860062
Co 7.5998736173172965 10.523883807836311 9.080466578477974
Co 8.576875749554361 6.936627348163634 9.359155630376986
Co 9.773527856585075 11.087164305815813 8.933907899938564
Co 7.558922328062225 8.503193321520744 8.066077678294384
Co 9.159593548584743 7.176203190941684 7.105511824565562
Co 9.167941640074003 9.064234723746825 9.876688339863994
Co 10.642126626088652 7.755614499148611 8.739693775022953
Co 6.998358471055069 8.60298251764748 10.301788249658648
