9
Energy = -44.77141368 eV
Co 7.253310042505309 7.625518250786061 6.019875751880152
Co 6.886425266971318 5.351510377982693 6.316759097033588
Co 5.021134383520167 6.846765332082818 6.541369111024994
Co 9.452464980175355 8.35063136708738 6.130839651229267
Co 8.830683621324269 6.3771248785713786 7.14968915811269
Co 5.156916208091737 5.083321997239404 7.817233317065523
Co 8.296730850383646 8.569807971374637 7.966823539421362
Co 5.988728417831505 8.744994121361552 7.537474412378153
Co 6.771734890248596 6.708454364565444 8.17806462290564
