9
Energy = -44.15897293 eV
Co 9.080107773049638 9.758061989209148 9.575002257551287
Co 8.40966376027972 8.748635631046698 7.6711633161269965
Co 8.523238329568418 9.437254305345078 5.604365831782063
Co 9.132978207161313 7.470443818251107 9.519201690381013
Co 7.142182717468588 8.584610440610446 9.690467437525593
Co 7.53057716345514 7.5099791433591765 5.668288699540826
Co 8.482205024887737 6.504502642639092 7.459675276774843
Co 6.416626824928693 7.679590648626578 7.630453262095397
Co 7.1534068288581665 6.317801826663972 9.304325801494143
