53
Energy = -115.98570571 eV
Ag 14.819372139304674 14.727678963561731 16.25108684586833
Ag 12.444106623509569 13.120538818424105 16.060940474465216
Ag 14.888330269381349 11.950876535744817 16.76682299644389
Ag 14.815746823465853 9.211539819640768 17.43217575075507
Ag 9.894300114775454 11.707294731288574 16.29919175886436
Ag 12.683057842810541 15.437739720512463 14.56966825713162
Ag 12.412057593083617 10.451292921552808 16.80491686788913
Ag 10.284887625121424 14.06181764735203 14.561511197889049
Ag 15.180529938141841 16.280267835252367 13.911027024067026
Ag 14.539477558532413 13.023222114143877 14.075046992485147
Ag 14.60156925257523 9.982691208120235 14.766287246504469
Ag 12.650078563967035 17.413389336870097 12.636187485453215
Ag 12.939090613805062 7.809732185372524 15.924357105971554
Ag 11.484813367144845 11.313308934462952 14.043042878348487
Ag 7.743488418301175 13.012183145344828 14.864086486136033
Ag 10.308022990989794 16.897062342186118 14.168023203375775
Ag 8.617038587491628 10.517197730983481 14.058811248191612
Ag 8.1836924056506 15.255208509465438 13.13058074635834
Ag 12.220713293045364 13.559374122206584 12.429692008314865
Ag 15.055118306372941 14.562697285810422 11.664658183776742
Ag 16.224214444558896 12.032857633239294 11.909190484254275
Ag 10.389974702793229 8.946727089288519 15.617449512722965
Ag 15.081121950165677 17.391414898549197 11.375278219282544
Ag 9.158775893466967 12.665647284671318 12.3315856668654
Ag 15.835617002199943 9.207423695132126 12.204193791730107
Ag 11.128987664107415 6.504399940536113 14.198124702377536
Ag 8.227129629832167 14.83296751904113 10.354591523027997
Ag 15.515427043358796 15.893965757004757 9.133371603103875
Ag 13.703934523547991 10.941369316136011 12.337778918307894
Ag 13.682423546363303 7.753417132617827 13.272078250955351
Ag 12.891683192365551 15.831321631923847 10.265571229632187
Ag 16.24128657092823 13.229030639069785 9.349208776073912
Ag 11.014666455607706 8.828061768579767 12.724083095659253
Ag 10.458549109709002 15.968751258866602 11.583365235808241
Ag 10.695737198444744 13.576828249376977 10.07968282291018
Ag 13.43797422927854 12.816850628826632 9.995065798947573
Ag 7.589189133974528 12.099713163858377 10.090658442565768
Ag 15.23986293473475 10.606392524553332 9.694138171680725
Ag 8.528275095799717 7.780369849137613 13.911061567763348
Ag 15.996185545043494 14.493520883877062 6.799858022405737
Ag 11.26672455550855 11.076767705703567 11.10985833407214
Ag 8.690027289604831 9.785819380506748 11.319381349369245
Ag 12.02991960889338 6.43311751466866 11.448880303459624
Ag 13.485345797193203 8.65555878630229 10.62479070225004
Ag 8.850710052414836 13.565948888797195 7.931234613341941
Ag 13.358707658938389 14.906305481195995 7.633607880152438
Ag 10.710569735344405 15.720044713286116 8.438344789242395
Ag 14.401729028833278 12.229590538449596 7.3954938943512945
Ag 9.275325288057381 6.9287841841402384 11.443871685045547
Ag 9.762265810220212 10.95119230058189 8.749253909643125
Ag 12.601495212840058 10.38767697736159 8.553520274174062
Ag 11.575858274239982 12.812369435079269 7.518634396860904
Ag 10.827529973572345 8.532315816735444 9.741510507085449
