41
Energy = -87.94136370 eV
Ag 15.098785069624894 13.412495819784866 13.568794701951987
Ag 13.449471577727234 14.396141710665312 11.403381304276898
Ag 6.806622774332613 12.791163630303284 11.852342509077236
Ag 10.916024847788696 12.603135451758751 14.909661122423229
Ag 8.477548693353796 8.44836462713185 11.059206291669913
Ag 14.388265756599099 9.57746568433888 10.833553123322524
Ag 15.142285759842697 12.23809995643652 10.99431830225461
Ag 10.520858427261324 12.634479695269876 7.79493945793656
Ag 12.377243812004087 14.358051903961064 6.719511326113516
Ag 10.737720903293644 13.938708273124108 12.112381422124209
Ag 12.760990661815132 11.896010742622568 12.760617559081036
Ag 8.275451283185264 15.141223262947882 12.25588360728785
Ag 8.10052818854737 8.847350357957042 8.27041623719293
Ag 8.876517198653566 13.416906235624015 10.015453765037318
Ag 12.327150979531115 11.749602992303426 10.05014977934476
Ag 9.934505273416653 15.214950814525805 14.594073222781274
Ag 5.9963724882720095 13.110492098240861 9.27229739606723
Ag 11.58757456951058 9.298644308919053 11.498800037621411
Ag 15.285094326379507 10.540015389641473 13.30652419247059
Ag 10.557517808749651 7.761324033669527 9.194411348238594
Ag 7.946616998065481 11.668421737146586 7.896720536039467
Ag 9.562367996026582 8.461094946883598 13.569467230692467
Ag 10.520368521729688 9.863126677840738 7.127095813369068
Ag 8.317955936675835 12.949570581092173 14.100552307337418
Ag 14.92957233776888 7.765156042427981 12.834017504418672
Ag 6.871517788143281 10.565308082818754 10.238569812473886
Ag 13.040183350364595 7.1074492703457945 10.709447462053399
Ag 12.888020003055946 11.551243056958715 6.91227331325201
Ag 13.653895445970349 11.765819905379884 15.419473462439546
Ag 12.275307623454612 7.418798209244003 13.539399100644541
Ag 11.455616426525571 14.63685228800723 9.467144117309447
Ag 14.107133709210737 8.919377924150663 15.223505241657737
Ag 9.790906548332483 10.638120090684673 9.74035804049885
Ag 7.426541351207816 10.293120603366322 13.064913325108789
Ag 10.404091113775264 6.460682109079933 11.657136666198692
Ag 14.050669796501408 13.564334202433031 8.730467502131042
Ag 12.658215246496237 14.5942984326047 14.12518945958454
Ag 9.940411839924776 11.235077876756863 12.535479782395786
Ag 11.624267968316268 9.963722852748553 14.561245523145564
Ag 15.09651510993565 10.961765411816685 8.4776801126722
Ag 12.819650364145179 9.238388584501704 8.599502855817992
