40
Energy = -85.95306240 eV
Ag 15.891785785351585 11.205844456094965 8.480650272985008
Ag 14.596874347421451 8.74305351658642 9.23979610832698
Ag 16.341825178909787 13.204303837791382 10.44907978130004
Ag 15.46017231666223 10.71942325315825 11.159123027726512
Ag 15.131645811865248 7.9544915000253855 11.965612777879286
Ag 12.955571036421672 6.78269926618378 10.61304552623556
Ag 14.331679499547898 13.605866682823942 8.500605233943581
Ag 14.507820038152895 10.189261349536382 13.695890197266614
Ag 13.133745136199575 11.08454679222195 9.0130326651315
Ag 15.259391895024427 12.922438476046183 13.10380736801588
Ag 11.155816199426308 8.682140873599746 9.238627838262369
Ag 12.88505907267997 9.465968870193663 11.361949998100943
Ag 12.848776351044975 12.28679401629861 11.879760921509954
Ag 14.046586086198733 14.722949486015859 11.049285230036823
Ag 13.265139879914676 12.194577671343668 15.152350227505723
Ag 12.753729871467655 7.793305928305445 13.656301586374655
Ag 10.628156871867272 7.74790863477894 11.91673983626807
Ag 12.6492443585229 15.959214458662899 8.901928190084677
Ag 10.603476302665621 10.77325316202064 16.248175868162043
Ag 11.506777996096833 10.46722924040154 13.589156385802944
Ag 12.982444004907522 9.427487873964271 15.902731373182501
Ag 12.877392679738694 14.525940754622827 13.616594699907022
Ag 11.695452004971115 13.43605118383826 9.473402359523757
Ag 10.64732850671993 13.110806104443043 14.721885053597969
Ag 10.561929969638438 11.083908252137784 10.904388686344063
Ag 10.587549700798773 11.184828421614496 7.973673277462788
Ag 9.950020333923053 8.471091309751442 14.564422784421884
Ag 8.69724469031643 7.323228640430512 10.040385362233652
Ag 9.815403519007562 15.533187909653996 9.508564882253804
Ag 10.189944757977731 13.74324817257453 11.889687131713242
Ag 11.685485694422502 16.153341398699236 11.513661890005979
Ag 8.750730247086066 11.122799740469024 14.11950436797945
Ag 8.846368387877622 12.878178824135903 9.26987000932141
Ag 8.293689231676654 9.169287033314347 12.194169178535448
Ag 10.349645581359262 15.746011006788438 13.97933741433461
Ag 7.787916745979282 11.874542870495288 11.646571787012489
Ag 8.437428455411508 10.019871914402225 9.473126684200718
Ag 8.902292691324082 16.72243785058659 11.889220381527322
Ag 8.068746085121715 13.882806866923797 13.652242327073381
Ag 7.4086336930963785 14.574593415860022 10.940562325245834
