20
Energy = -40.16783900 eV
Ag 12.427410933454237 11.329196175667168 11.864482719407663
Ag 10.63007201765452 9.514326696892661 13.31810095686932
Ag 10.733567856648502 12.234661010496142 13.930164754214973
Ag 12.296222175565502 8.529719378441955 11.249850769740577
Ag 9.548337908197876 7.500621502436528 11.67862347173224
Ag 11.815760202778126 11.942190610737578 9.118418198075553
Ag 8.45302208890378 11.153986406081403 12.727127577586455
Ag 10.210594368562575 12.993898541726015 11.261073572625378
Ag 10.058606667530594 10.158190664701204 10.633883380416451
Ag 13.953340657575238 10.291644161347676 9.707936855192703
Ag 7.869865690041203 11.857733089996215 10.045063580381976
Ag 7.3877309834496225 9.116627798366016 11.085875966671217
Ag 9.650621286670564 13.53420340397762 8.523441063989532
Ag 13.798514863671338 7.591178560290181 9.01631772733784
Ag 11.665757649498033 9.173138848553364 8.404228305923825
Ag 11.214537914759333 6.577082599844402 9.567562366590684
Ag 8.996135559582264 8.112115941633963 8.93651788027106
Ag 9.545773633118367 10.7578694547185 7.8197698638923985
Ag 7.42758407749702 12.382002050074563 7.286680927113809
Ag 6.882007845114569 9.823588597772641 8.397242327056942
