21
Energy = -62.74768017 eV
Al 12.329930884920135 10.509793777307014 7.215830966682252
Al 10.028457871528872 11.130225411319987 8.540952641403019
Al 10.794069433229346 8.565132328120155 8.541385640406483
Al 12.115028582234133 12.818985557630404 8.477052963603835
Al 7.348609340652588 11.650716360168879 8.52713296662055
Al 9.666006356651144 7.1871409962600605 10.668115488189397
Al 11.243766272814067 14.732752346420146 10.021002938630115
Al 8.323889131922579 9.157242209354786 9.233979171874045
Al 13.54678527588262 8.304133780804316 8.010600090979883
Al 5.933917096461161 10.264336889394421 10.27185921664921
Al 9.0654091464006 13.531339056505702 9.275325482942728
Al 12.552127049929275 7.733563072210867 10.38367308198372
Al 8.314239927568586 11.587048019239512 11.093051493994526
Al 10.355894686875041 9.666167957316233 11.084056166794781
Al 7.622076643296399 8.914620405443165 11.808868901465637
Al 11.029116985762098 12.299068514482409 11.127353857790888
Al 9.740306464360257 11.13223378115023 13.282172696046834
Al 12.725302573563953 10.449990745721754 9.888725762478698
Al 11.812504153840607 7.866623655690947 12.821124363045426
Al 9.490312670666167 8.49114275246232 13.54443304037502
Al 12.407198938753995 10.452691870309877 12.628252555356136
