21
Energy = -62.85744072 eV
Al 12.426997236058897 8.23239137278886 8.691247634128041
Al 9.63952327128312 9.304864937041552 13.181258057453766
Al 8.953378387828872 9.7422650477076 7.83673250180138
Al 13.238034938471385 9.4867261596536 10.830455985780782
Al 11.725844154156968 10.911347709728767 8.915893137643788
Al 10.390087104556155 11.67724354313437 6.6590194235149305
Al 9.39244536774712 11.598953709695285 10.081267891021726
Al 11.324468607640927 11.04297404570003 11.774725748670662
Al 7.712293202138962 9.699533775315285 11.349576362524601
Al 6.501305961725218 10.16546629392237 8.976104986015432
Al 6.897010017176199 12.236707108143968 10.73715983749383
Al 8.835908499414137 11.872411447376441 12.718072939826547
Al 10.72812001245573 6.295491670606863 10.068047803440209
Al 7.894004842811178 7.829476735995153 9.360785719714631
Al 10.64182033843241 13.469575145949516 8.612196852034447
Al 11.27624241287653 9.20084107838439 6.5043767302644175
Al 11.628978347773623 7.807334874076457 12.212655132023546
Al 7.997526802789542 12.269246527994287 8.014532093322234
Al 9.962182678458369 7.1874480326065475 7.720131716530599
Al 10.236666065096916 8.990453104667164 10.206039267022124
Al 8.770153102731951 7.183897477834804 11.744743317413107
