21
Energy = -62.99020132 eV
Al 13.215561667110924 8.883761165971485 11.68747666612894
Al 12.917037012094587 10.382424587551798 9.467009807199137
Al 12.200008923828252 11.655646651108977 7.20130249258419
Al 10.87944176259962 12.315811178881383 9.53362350209258
Al 11.556340586621937 7.8199689171520586 9.88858351444436
Al 11.429965263645837 8.986898347951556 7.479872482025561
Al 12.091938868674688 9.874946487063523 13.88818985350442
Al 11.430065189968182 10.98542642859051 11.637875329036472
Al 10.203061583956604 13.47015119365858 7.31547915683191
Al 9.503864557811173 9.712291558966635 9.797173436311205
Al 9.63765281418999 10.833738752632526 6.91773248741444
Al 10.544784230567332 8.326475057991516 12.372725462273289
Al 9.580104755288652 10.614226529956325 13.66556971299081
Al 9.08072037897759 6.984095447909084 10.720199529704944
Al 7.596376869236121 9.460630424368357 7.773016108353298
Al 9.359095343693589 7.529278696229652 8.110282087082817
Al 8.914894333524616 11.861448548372264 11.3845734812879
Al 8.225630943380736 12.241212701112488 8.77502411797993
Al 7.931704125161794 9.18005329791106 12.095560576117316
Al 6.764594449144639 7.955122619020102 9.840502080156112
Al 6.633277519820351 10.622512586897917 10.144349295778158
