21
Energy = -63.21065804 eV
Al 13.371164691856112 9.196536356305968 10.269146111697799
Al 12.989808696995537 11.632577988554573 9.340161355112366
Al 12.456867397307605 11.219610858228078 12.159925275115171
Al 11.958872823022755 8.368596394060617 12.333407889029758
Al 11.221786550087796 13.228763799256207 10.46824228975122
Al 11.860070561479338 9.539716526834445 7.992290143940302
Al 10.64222032600396 10.328396315310695 10.564306264808874
Al 11.24574639518716 7.524771562420294 9.816749983305627
Al 10.187197189662433 9.950432938653675 13.466850857985872
Al 9.824974091842488 12.384580208831588 12.532910092052065
Al 10.545794646644426 11.983974793586734 8.12626802816867
Al 9.310794621991153 7.983226138650566 11.760404945109412
Al 10.102255811023989 7.5766589294119875 7.339556091561544
Al 8.617774775609409 12.442691043215428 10.072849952053051
Al 8.002910843215547 10.430578883276018 11.889067339611671
Al 8.722006563228573 9.392840929053635 8.881654006152289
Al 9.703822446523116 10.060902830658643 6.401304526970569
Al 8.680744251107267 6.6976061535531075 9.441658793048077
Al 7.895236104337572 11.66759612758539 7.565098650436727
Al 6.8732251101938 8.301450552518753 10.608449513231774
Al 6.485940843340065 10.787705410693558 9.66891263151684
