19
Energy = -65.52882148 eV
Sn 9.141630719106237 13.607475961584523 11.688761104575496
Sn 10.25081896125286 12.191515802312587 9.371241919665678
Sn 11.53097964306806 10.466346906895822 6.9746731833489966
Sn 10.578006544462488 11.173701526553872 12.8033327385672
Sn 12.521853072822589 10.374220754696724 10.168956974333343
Sn 7.028080020280832 12.730881241635172 9.630754056318121
Sn 8.912683003386325 12.147076998693837 6.712081448676914
Sn 7.580425044573375 11.1098182345288 12.51169485481492
Sn 12.083531375302973 7.48143452491211 11.294055340953221
Sn 5.5934110755631785 10.057843581329095 10.5691440462798
Sn 9.411952666753248 9.202262806203901 10.831110672799008
Sn 12.95442282676638 7.935624486998826 8.379438091290961
Sn 8.78205267064196 9.250643445836925 5.7724602582941005
Sn 7.7864833515940415 9.92275695178632 8.51238938497006
Sn 9.24252936518681 6.24299148675311 11.307714418627418
Sn 6.446435232135973 7.063521681084888 10.35542699452359
Sn 10.865351909701454 7.002806950989919 6.357564385123419
Sn 11.225482274501312 5.47018520171687 9.036690910012126
Sn 8.525478845534106 6.872571997693587 8.229638334726578
