13
Energy = -38.09387901 eV
Sn 16.327765262816005 10.271162033506828 12.5826079391597
Sn 14.002891082842996 11.641301775817674 11.207140863422342
Sn 14.353609669172656 12.149277860964265 8.391324008200762
Sn 14.76035415395961 10.093133667814984 15.995708373527938
Sn 13.452280709462629 9.622426473378848 13.351618303010092
Sn 13.273185848800441 12.401876924927786 15.311410564159159
Sn 10.826377677783384 13.028231905815902 16.650904081345573
Sn 12.07947840225007 10.62208211581879 7.429598816120019
Sn 10.869768488836558 14.456960583830714 11.262643256844843
Sn 9.708736488277134 12.721486481953804 14.115773147637947
Sn 8.465571032979604 14.987603457367888 12.96666833722637
Sn 11.093314207986671 12.049125235964574 9.83246006261064
Sn 8.706783564021318 13.936165022740143 9.175841298023988
