17
Energy = -58.53397498 eV
Sn 10.18489494270355 14.604650571019993 9.14213501950512
Sn 11.910179298117493 12.24149402258145 8.726474061844089
Sn 9.812636674439133 12.036402931664172 10.864316759780717
Sn 9.781642770104975 15.399532836399018 11.981514244606371
Sn 13.291781657649379 12.639623644401915 11.339180524839916
Sn 13.960438296361964 9.679021475009685 10.727273410562841
Sn 7.432402195237615 13.968672538509825 10.364065602436016
Sn 11.48734856636685 13.329080683157125 13.543269146289944
Sn 11.628348533585232 10.246155729746741 12.691929425127968
Sn 7.057155645322705 15.499345832467117 12.87948725205811
Sn 15.179588528583722 12.895018591912798 14.451331403516825
Sn 16.56407061172806 8.738362036691168 12.13998224482023
Sn 8.283648229972854 12.826725069816069 13.327494963179758
Sn 16.209353534511703 11.82361610807126 11.641689444046932
Sn 12.610700674824113 11.38019245926521 15.512464170348851
Sn 14.523968930540544 9.906794395417815 13.870445430091282
Sn 17.342637335487204 10.763158225829438 14.35423436176612
