11
Energy = -37.73737538 eV
Sn 12.505349715600895 13.713703675442877 9.995367816053172
Sn 12.603003371043425 11.476295591590796 8.093130811916321
Sn 10.055578154676107 12.103186800569535 9.68043787346518
Sn 12.31920401215994 11.135256476918478 11.59142476376566
Sn 11.800346494947927 9.088397150088118 9.432315139094218
Sn 7.302273119906624 11.333579604893817 10.201769969482035
Sn 8.861351840673953 9.472959943671453 8.274743842572542
Sn 9.36328393966379 11.182394523916496 12.56357866580005
Sn 9.972443355161156 6.941168042524151 9.738723558547793
Sn 10.906767458842184 8.51728480677998 12.453501856136846
Sn 8.010565692719034 8.62698370349329 11.291552463211497
