19
Energy = -66.13846024 eV
Sn 13.44513262689623 13.384353998216792 9.013078806297786
Sn 10.949268101362488 11.608529515289195 8.877009802483753
Sn 13.583139089571073 10.441473402234553 7.686807616578937
Sn 15.153602775884268 11.066377682387929 10.290581189200166
Sn 7.974375299511416 13.282175974603971 10.065265239165749
Sn 8.060273083166361 10.486484380349204 8.833950501720766
Sn 10.78065447422014 14.582176769957275 10.151753082224525
Sn 11.289760318332377 8.51666368562328 8.483735672046574
Sn 14.105027554057706 8.203527241761229 9.72607500555142
Sn 12.481255608129102 11.982851577318208 11.558806749989081
Sn 14.036067023306503 9.320394881785553 12.584518265110951
Sn 10.00868526522553 13.823115111686825 12.906974199894035
Sn 11.674049031710476 7.409204640245923 11.47093107959392
Sn 11.972491503337835 12.080710665707405 14.44232599697314
Sn 10.079779461417678 9.908251944916852 11.257648201160984
Sn 7.131865278046 13.395369311206608 12.998370840199996
Sn 7.121847794046744 10.67220647607154 11.639425569203594
Sn 11.295799548068727 9.076827946509663 14.108345601771344
Sn 8.871850700353727 11.016329283186508 14.148734117887216
