17
Energy = -58.94867859 eV
Sn 15.603027895164777 12.689903578320367 9.198367571624145
Sn 16.361464517723725 13.073376258220666 12.242633985822456
Sn 14.811718033996955 15.250729104847242 10.611776068605078
Sn 12.3907906785328 13.502194026196486 9.20936336783777
Sn 16.09685915114017 10.251093201288663 11.031066368885545
Sn 10.023990206613263 12.415232710468626 11.119441513066588
Sn 13.209287067557987 10.895450392095814 10.125252188720925
Sn 13.20729890464406 13.445402665982813 12.18626915747046
Sn 14.306080477171648 10.98808528331214 13.51757532183417
Sn 10.877283970471574 13.092986715400633 14.064514727490762
Sn 8.368881171645581 9.679579283743335 11.382465999038233
Sn 7.04204924338546 12.330493317332055 11.091026864855987
Sn 13.481889788045157 8.593309986755155 11.793071106459408
Sn 8.34634058542792 14.33742119154529 12.973910787091057
Sn 10.934668117516907 10.074760338333103 12.907910483529983
Sn 7.85508044496412 11.485675999260673 13.84152577183061
Sn 10.169179829229751 10.697837291201619 15.632658296370707
