19
Energy = -65.80375196 eV
Sn 16.43345876170447 14.0622048914167 10.262060751321592
Sn 15.917212236345435 14.696798055338121 13.226895381158133
Sn 17.182373711632664 12.036462782165804 12.486290296655005
Sn 14.142192289352803 13.046193139745766 8.565645259997275
Sn 13.476825009062994 14.521762280060225 11.287095115235845
Sn 14.389467956719376 11.959045797649315 13.60633455704223
Sn 13.0252466987667 14.603213031130059 14.374303060818782
Sn 15.894905999265225 10.927256675684731 9.933300953285883
Sn 10.538634706876033 9.939959475553295 9.85413159616378
Sn 13.107997774898218 11.278903261983489 10.90922360206565
Sn 10.951298475518312 12.209694004205266 14.477203334885372
Sn 11.07514811090874 13.195269685062827 9.641285554515415
Sn 11.571894525258164 9.609046152184254 13.084999370145946
Sn 10.417291430635256 14.45168992873047 12.39727613016162
Sn 9.130051683731223 11.53914882615079 11.870920121962563
Sn 9.06101166772969 8.335156247173352 12.11771452524321
Sn 8.77039901017306 11.98682494423899 16.435304273192976
Sn 7.873254933652268 13.259329851239237 13.896486251217326
Sn 8.128948179159767 10.001436016771642 14.367176225947505
