15
Energy = -52.1761012 eV
Sn 12.752579554439412 10.9078908585343 8.644838865067458
Sn 9.697148198155054 10.375147460246986 9.034598214105879
Sn 10.680975835359506 13.20075778031738 9.104370606737257
Sn 11.642654624592833 8.985090452774111 10.836422036593925
Sn 9.816943891463277 12.690643135661654 14.55851398925986
Sn 11.26107254009546 13.73558074506235 12.029873234812557
Sn 13.59896815603915 12.15140601387437 11.16754972194912
Sn 11.908567502336055 10.839746864403905 13.205765569281718
Sn 9.193675288264519 11.366783261432817 11.729587169868848
Sn 12.005334523893977 14.953010574776096 14.765923031514912
Sn 16.071169895885593 13.195716348297866 12.324659870958302
Sn 14.836782504997158 10.933260720754497 14.081348081394012
Sn 12.646007278721445 12.083790763921144 15.911247304408409
Sn 13.837994492219268 15.361966179386517 12.346443814341374
Sn 14.905690644059131 13.966702905628571 14.993779047794867
