17
Energy = -58.90081053 eV
Sn 12.753911302997334 9.115214161467328 9.391967250251055
Sn 11.002512726756471 8.413785066240726 7.135308935244661
Sn 9.931215744602511 10.708782980010065 8.632054225452002
Sn 9.55283168510432 13.28754231885198 11.80303752650724
Sn 9.952231032029209 7.816013808913779 9.816751449039241
Sn 12.025709181489145 11.944697944905684 10.630378105390443
Sn 12.000198107122511 15.026589821248557 10.730746784171348
Sn 10.898427789729965 10.916551578979881 13.357502844819633
Sn 8.723533222592678 10.098233038174808 11.378153972160565
Sn 9.743095459670455 13.00177730338654 15.10790573602553
Sn 13.876517758550094 15.503024443352322 13.190187831706767
Sn 14.718709508015383 13.403340092728358 11.073418564542187
Sn 10.869867524250283 15.48937369910287 13.62216891034311
Sn 15.428562725573373 12.994049287025321 14.190737395704128
Sn 11.874876571005549 8.301890907608051 12.21072075576015
Sn 12.653467743472323 13.127989484771208 14.922249497552503
Sn 13.918332816502936 10.7708616759219 12.734708237752173
