10
Energy = -34.20303881 eV
Sn 9.164486976805861 8.111238292932525 7.212392358813798
Sn 9.415572397796602 10.404347314846156 11.29379401259286
Sn 8.641188906372427 7.300381207079086 10.38373039083
Sn 11.83060380871193 11.454685388431265 10.13803607885747
Sn 6.933074415260223 9.059395513965676 11.876408053059917
Sn 10.575042084488954 6.059850072471031 8.663749149395425
Sn 9.833338072156282 11.21483857748485 8.073599183115743
Sn 7.641863436218294 10.395613289081382 6.3655961316980605
Sn 6.9905073030018 9.878498927852181 9.112890897072639
Sn 11.528382205996747 8.6752110226651 9.433863351372944
