11
Energy = -37.41235342 eV
Sn 10.48595265816872 13.16459582965245 12.67961809609134
Sn 10.133736663106536 12.059522957011428 9.41260961842241
Sn 12.235767913275216 9.562077753674378 12.90358857370555
Sn 9.371751327958854 10.064216838318128 11.966834290163222
Sn 8.53773905413704 9.599068071956292 9.061659683429816
Sn 13.310618418643278 11.315618840469721 10.531367245315332
Sn 13.84951748781718 8.460427017624868 10.543658882634674
Sn 13.141498645266834 12.352414082147751 13.391512759998426
Sn 11.212041045831908 8.91252510469959 9.589239869016481
Sn 12.19556389013299 13.989203406843375 10.292575674360494
Sn 7.972630384907842 12.587550835890195 11.492265964744647
