14
Energy = -47.60641541 eV
Sn 6.163331388565806 10.257098628686899 9.918732831894015
Sn 8.860581425892823 10.243024907304607 11.720245020269024
Sn 6.68817682882727 7.949433096224216 11.702383936602965
Sn 7.962464531650215 12.433457951113965 9.47953017473347
Sn 10.83989680984673 11.951375455504023 9.229417337512203
Sn 10.934026227349195 8.908788840724814 9.535387919888443
Sn 9.741038857764044 7.174801873294281 11.541671432133423
Sn 7.599298344866741 5.5466666304046806 10.133912822574208
Sn 6.338823300237112 7.681354235957205 8.438323087981754
Sn 13.517775318015651 10.173020626280266 9.646682342862873
Sn 13.214354043762993 12.364803175789396 7.674972078567506
Sn 9.350691078417118 6.896336305555233 8.028155503005395
Sn 8.37484259190511 9.880639620412941 7.453411959486459
Sn 11.653768493515551 9.92633434873546 6.856589913226901
