18
Energy = -62.20979878 eV
Sn 12.761240975930818 9.01122098518131 7.719937399576816
Sn 10.227814538721468 6.93508920797995 7.383802181357463
Sn 7.071983089320213 6.195387376589534 8.118396454911522
Sn 14.001880769965087 11.811467834305596 8.404071396819505
Sn 9.359107328053424 6.1795254341112535 10.197516490916088
Sn 10.56643300375519 9.105878431401257 9.762819106944736
Sn 11.002071513740612 11.560761317499544 7.993055819681891
Sn 8.09523582045724 8.960667790139151 7.4246000742922
Sn 13.600018938177532 9.731640325105879 10.595257078927462
Sn 7.858349132753169 11.854135633252797 7.7475639075036
Sn 12.33828738861523 12.639009608242347 10.715663144538121
Sn 11.406349112047582 10.362053926625261 12.68373765503549
Sn 5.305461874270517 8.834231275011735 8.48918782067673
Sn 8.932601314520246 8.50186416362633 12.298390972370678
Sn 9.406384280181648 12.891364300850082 10.235411867963727
Sn 6.436771433324128 7.267307909529465 10.869733065174072
Sn 7.070296837008057 10.386953354307186 10.389336116329057
Sn 8.454711297700715 11.51422501493608 12.741431162890878
