16
Energy = -55.95134303 eV
Sn 13.242158446296317 13.895837964451617 11.509341316410842
Sn 10.296453810145223 13.683172430753377 12.11267859941756
Sn 11.47977857813712 13.422419721622024 8.963754790059248
Sn 12.012031348792256 13.449760939270357 14.660887585502431
Sn 8.606425689736428 13.916477464053033 9.783492292334849
Sn 14.839063744264537 14.219286391471602 13.901280934271464
Sn 15.482581086813795 11.575441558652592 12.068422121333406
Sn 12.859084736542556 10.97687465742775 10.743573479203553
Sn 11.918372595844925 10.540109120420784 15.586217345339533
Sn 11.884998485038965 10.530899134026633 8.053266713389576
Sn 8.200902562176392 11.193517229290332 11.534627138300639
Sn 13.688000045757779 9.291325701422032 13.25159944591387
Sn 10.832478827337699 10.805720088916162 12.910636749564539
Sn 8.930125608707035 11.169017572303106 8.541158865014342
Sn 14.792252454239284 11.435728873161263 15.067591922065441
Sn 10.209830842684406 9.108974691184384 10.334627046176648
