14
Energy = -47.8118979 eV
Sn 17.00229959438467 13.76753480283605 12.19625341103395
Sn 16.78036159287844 13.144770090513791 15.032843654722098
Sn 14.512779861068243 14.191606678913331 16.70822441406715
Sn 14.816478028356318 11.00509906641136 15.879106156483182
Sn 15.700100692492839 10.954675157363654 12.962996897603764
Sn 14.05198915918292 13.502712713390915 11.982423895035723
Sn 15.140930013617718 15.64905721992512 14.034616344733868
Sn 8.81844881852661 15.936016152535247 10.406725421059186
Sn 12.712139069691048 11.305777633043139 13.559834221967204
Sn 12.104762725831625 12.223340067846177 16.438554943146617
Sn 11.539100003616477 11.93946063899089 10.730884730780554
Sn 11.083877835731023 14.84520935698036 11.635061988147502
Sn 12.423601792924119 14.347152328779002 14.34983493628103
Sn 8.874713146252644 13.049392916981333 10.72485104982037
