12
Energy = -40.62169834 eV
Sn 14.96965715988768 13.99688107029679 10.890869462621508
Sn 12.455470005818526 8.865648902022945 10.6100505851321
Sn 13.09976122093528 13.817188658746181 15.39659513035462
Sn 10.99374758734218 11.885600537697181 14.25320945822354
Sn 10.895980911171247 11.351336356619685 11.188896494067395
Sn 12.173503940176715 13.446839217945508 9.399883123718762
Sn 12.393144640083126 13.984893233142321 12.335023134984526
Sn 10.368480269997784 14.990149377888383 14.190539626034473
Sn 11.984595601415208 16.252362563757647 16.216177656063884
Sn 15.055598157828397 12.392640852173095 13.41788247490936
Sn 13.141380981755667 10.083038710124933 13.162914002226085
Sn 14.095237636317172 11.2354303342142 10.312491051159022
