15
Energy = -51.72968836 eV
Sn 15.988590679570247 11.541444681211965 9.018477479359873
Sn 16.16704646865068 11.039347048429441 12.075097059715413
Sn 13.328500636986663 10.25076341560637 13.504776341811041
Sn 13.443568515872789 10.874526052092259 10.390255369686741
Sn 16.38233436482183 13.853637609842327 10.910303458121426
Sn 13.72411320106799 13.69248126767494 9.256201020181638
Sn 11.888654038061441 13.036177594940566 14.641876347790511
Sn 13.805507069333997 13.194649829093489 12.271317210842533
Sn 10.319904141424797 10.147135127823706 14.299708432814416
Sn 11.142513469737183 9.232246394793473 11.38210188869803
Sn 10.276828634872084 12.062766377257107 11.5726086247614
Sn 8.760607643911737 12.873134374605886 14.496940977769302
Sn 10.351526876040923 14.807700683736142 12.572319709669234
Sn 7.736812174421306 10.66630281240858 12.590291825516637
Sn 7.611426464576886 13.509636593376039 11.731226961250893
