18
Energy = -62.83485747 eV
Sn 10.720341093791617 14.96298282302601 16.393630458831627
Sn 10.324007662453855 12.51809536424205 18.003152752441814
Sn 8.533313054913792 12.61250509492292 15.574242030464516
Sn 12.214159937310844 14.092559152783911 9.031028178746798
Sn 11.676044934400302 12.47786104877507 11.464218775652627
Sn 11.766328793140346 15.74933175663304 11.724532317314864
Sn 9.953910116235244 14.230556311368032 13.542600231326395
Sn 11.670000334547163 12.001254182655765 15.477898831546707
Sn 13.058536622296502 14.830855417132224 14.372678520015647
Sn 14.192787875434156 12.142455203840669 13.213692216453714
Sn 9.89415515151468 10.92645755743354 13.336902116413059
Sn 14.624849243413502 14.441027209633706 11.16903321442072
Sn 14.881530744400854 12.67893558426573 8.525489933168199
Sn 12.332151403296514 10.86375770686542 8.828921103481795
Sn 12.699173421268513 9.640418813185866 11.706836378545718
Sn 16.601088701879245 12.148164360320866 11.058752236404942
Sn 15.607747046619806 9.656384306834155 12.7186648402482
Sn 15.074459500208485 9.845680152994088 9.686050086566437
