10
Energy = -33.21404873 eV
Sn 9.724623696409235 11.224594277759383 8.739970889535934
Sn 10.541047732294624 12.791567654959362 11.398675788558437
Sn 10.272749290228914 8.049343804656209 9.688480695980315
Sn 12.225050184718448 10.605653064000762 13.072665145774508
Sn 12.502620126627942 13.417478829508916 13.57716184073886
Sn 7.4539845863571825 9.494382673151724 9.405810140781025
Sn 12.222870308277402 10.406705576632984 10.09445624121535
Sn 8.377915491003082 7.505779335355513 7.597328290791631
Sn 13.56649241565828 12.857913625372108 10.857362078489976
Sn 9.363260697953908 9.921609004109778 11.830714931706886
