16
Energy = -55.31845896 eV
Sn 10.685905106559073 7.863391311487142 11.815363203254652
Sn 11.155736081342043 10.518496984951941 10.434408932862317
Sn 10.276052708424382 9.294164522628687 7.9932624142743895
Sn 10.435044841458314 5.472541095578012 10.124129227351409
Sn 10.900752187974552 6.5046437677333895 7.259572858918893
Sn 8.316040852773009 9.593793329461427 11.01707372549903
Sn 8.698315863331128 8.653006590717938 5.131163317859399
Sn 8.77729169242608 12.157519135800786 9.01264584756994
Sn 9.403874832800904 11.395424509499566 6.063059177915782
Sn 7.8667746620310846 6.556074390733462 11.550790161335
Sn 8.256497697939809 6.887362365087458 8.491951266557628
Sn 6.0751290923520465 11.265226443930208 10.043525659025775
Sn 6.769770386899406 10.32204786994142 7.221036356947164
Sn 8.305826439462054 5.820113343746372 5.565180384439874
Sn 5.812447551758852 8.152725804411444 9.581469758605337
Sn 5.919453124353765 7.480563749467544 6.498260583529945
