14
Energy = -48.45047699 eV
Sn 7.749692158149901 9.404547565445382 8.23043495671306
Sn 9.135629189136884 11.838361092397022 9.587379340584581
Sn 8.991979733152231 10.834189043463073 5.972389585198127
Sn 7.138135066458468 10.4711290154084 11.386797008624363
Sn 11.572958933541535 8.239964984591609 11.386797008624363
Sn 10.008816927531718 10.705331705493373 12.493338329801942
Sn 8.702277072468283 8.005762294506628 12.493338329801942
Sn 11.206758848690557 12.285953102985006 7.5167236622904605
Sn 10.961401841850105 9.306546434554619 8.23043495671306
Sn 9.719114266847772 7.8769049565369205 5.972389585198127
Sn 12.145289558320606 11.183330048724006 10.301766099541286
Sn 9.575464810863114 6.872732907602982 9.587379340584581
Sn 6.565804441679394 7.527763951275997 10.301766099541286
Sn 7.5043351513094505 6.425140897014993 7.5167236622904605
