12
Energy = -40.27691264 eV
Sn 14.77661266804724 13.520830328589195 13.775242593019327
Sn 12.599158465554877 13.331325396063653 11.880991167178868
Sn 9.710731320858304 13.409581941649469 11.27334333938396
Sn 15.168721478373154 11.6345711064183 11.463806407459995
Sn 13.498067080996506 10.88165480935705 14.171681724914475
Sn 10.525526318442374 11.802978068182277 13.765324564676858
Sn 9.646785837834678 11.596654266950884 8.82807960677902
Sn 9.437463407661857 10.156813371839213 11.552334763132272
Sn 12.614331581367074 10.324269440084379 11.40273541255478
Sn 7.00773116551083 10.580791169098868 8.321202781159565
Sn 11.361104825461679 9.255499006139694 8.923365541537505
Sn 8.528325890180488 8.39762864414429 9.512193400151975
