10
Energy = -33.52116109 eV
Sn 11.63639553967035 9.4726267280957 9.879255996577207
Sn 9.023065214028687 9.362648939276054 11.494267203875301
Sn 11.624420450416537 10.418649346130257 7.155847044798172
Sn 9.034994404825225 11.24589024312119 8.543165927871982
Sn 10.009635479186237 8.410706203989108 14.068292771364279
Sn 9.299950687832244 14.104787403937854 9.521473127286459
Sn 11.349802398845513 7.230940540263624 11.695577510518854
Sn 9.908722273876618 12.194156911710081 11.697867289336605
Sn 11.916523552890549 10.263806622308328 12.75607389873224
Sn 11.695785406388788 12.776105990603842 8.81817795964696
