12
Energy = -41.24956849 eV
Sn 10.224936606983018 14.961176161515604 11.181011915604696
Sn 12.509492867801539 8.03091387428089 10.957876058421895
Sn 9.414304157504892 10.703637545733555 13.714888290917923
Sn 9.257445246601701 12.232277059910919 10.892820837996915
Sn 9.503599781343734 9.320018683388886 10.83099722428468
Sn 12.022584040080389 10.61845292972159 12.33797815885978
Sn 8.551556939494974 13.608083026631943 13.521351639049836
Sn 11.55115433758118 13.353244839238267 13.548074642911557
Sn 14.22064983538761 8.815660824265198 8.621495947754298
Sn 14.574852195327141 10.669669002874508 10.816010053636797
Sn 12.441512974595305 13.138033813403771 10.370111423489808
Sn 11.798535859431047 10.412208938697447 8.987012529665448
