18
Energy = -61.81158395 eV
Sn 16.51282736281264 12.686136573194203 10.548708344803726
Sn 16.326234804225127 11.873172753672476 13.773707883263722
Sn 14.832598594863736 10.456427399487161 11.593646629239625
Sn 17.448737408994454 14.555296156828716 12.751653441836936
Sn 10.153990323332058 9.304396550837435 10.325161762747456
Sn 11.173724966511033 8.385951301377222 13.027670026573436
Sn 8.358588510012948 9.423782793607042 12.901804380070063
Sn 14.632449027278371 14.42821459409367 12.400089559342396
Sn 13.567558249395042 12.937681560067716 9.65312617632713
Sn 12.00631604835482 11.168924010617456 12.084713743198188
Sn 10.377758100424465 12.65249064820274 10.07335618837012
Sn 13.437828779493975 12.354476621995355 14.50017426749616
Sn 10.730147826143158 10.736923648026965 14.956790240790466
Sn 7.722129754594356 11.241565406795944 10.705929449609334
Sn 12.31572866995179 15.058553920360849 14.214152575884945
Sn 9.367341111137666 12.521069334059062 12.974891301489295
Sn 11.991084060858501 15.21162926682252 10.962454986865783
Sn 9.764849135351469 15.461030195706176 12.900548080892447
