16
Energy = -55.35277613 eV
Sn 9.480815840110111 6.599999263810967 11.320057858944365
Sn 11.969976679795723 8.327409308347294 11.047159769825178
Sn 12.622136750959534 9.724657841008385 8.382198700742954
Sn 9.603212543681533 9.621863226343898 12.529070402525074
Sn 6.844128344792433 8.153671099717068 12.386299184341649
Sn 10.170825515906978 7.715081163644014 8.466531905510964
Sn 11.44365770627966 11.373060752872451 10.744206575605892
Sn 9.747683904272408 10.83628430022615 8.106128882756169
Sn 8.823633323502476 7.0659632790288205 5.879020451350302
Sn 11.00483359706274 9.246905586048905 5.646006695661677
Sn 6.7313724524715095 6.36837055832766 9.958923315658291
Sn 8.357025656370505 11.838057120573849 10.780563886513079
Sn 7.767322667808585 9.106870202558168 9.65899333497281
Sn 6.2943592162012605 8.144894640787602 7.154437840277717
Sn 8.136804237435486 10.118335453128529 5.505481742730821
Sn 6.482041266285132 11.1528930445707 7.804611323539531
