12
Energy = -41.06251407 eV
Sn 13.371447664957579 10.901520444553809 9.98462225759973
Sn 14.910482251176632 14.769666049509317 12.088863240868426
Sn 11.178000477404423 8.864309405668624 10.101455064795392
Sn 12.993071295703484 13.890280831499203 14.418531755828306
Sn 12.902231125049314 9.16124180746311 12.585310549975771
Sn 13.941975839082197 16.56849653246333 14.283221465229827
Sn 11.680296322468944 15.99921614049373 12.298292394511256
Sn 11.835639637821872 11.225980702222445 14.802452382282928
Sn 12.493458166996334 13.431028620724904 11.148360113861914
Sn 10.537988521711894 11.099229071288768 11.679912201199084
Sn 14.638481053842659 11.676554480927306 12.966025879545077
Sn 10.06501631393775 13.400494576528999 13.462051063908538
