13
Energy = -44.60475061 eV
Sn 7.684337891062846 9.053763093998747 8.769501771748192
Sn 9.158238516506337 13.768218784856625 9.611516443532524
Sn 10.565504432676214 9.391842965500297 7.8172653683591315
Sn 9.389897699543138 7.923702940043806 11.029053371960234
Sn 9.585425584684689 10.901436916946436 10.307015361097676
Sn 11.746943811322728 12.156322200700998 8.609080027131444
Sn 10.071805246806571 10.089272225658322 13.166418005297597
Sn 13.386085381001052 9.225840150624457 9.149996483501486
Sn 11.499852617266232 6.8314927832281045 9.137718428856786
Sn 6.830741500569827 11.837090166401577 9.727164347740752
Sn 12.406864477583813 8.012345803198915 11.798708624189487
Sn 8.18142047637028 12.56794604999495 12.336260011080169
Sn 12.402445027292295 11.150288174817012 11.449864255504814
