12
Energy = -41.39991699 eV
Sn 15.059976066594148 11.870993270866487 14.427841271646018
Sn 14.208942143637131 9.6011784666661 12.606496759561814
Sn 14.825391220886472 12.297467409244021 11.28907793723542
Sn 14.76964578901969 14.697965672877851 13.35290193165703
Sn 12.35141841351006 14.346074421074782 11.788598210533957
Sn 11.652961271952178 11.119597743502975 12.302688308030982
Sn 12.490591408962601 10.397770959579168 15.091283378015518
Sn 12.325079165741702 13.443263976779253 14.902095845131846
Sn 12.160113498498069 12.2102852673326 9.531106872739503
Sn 9.918455968350946 14.46540521207588 10.092076912975138
Sn 9.705185293671645 13.287192869070449 13.079374108500526
Sn 9.224562119731411 11.622695707190463 10.460599385548178
