15
Energy = -51.76041099 eV
Sn 12.097617251440054 13.805203425248017 11.147740730272268
Sn 13.951778401509541 13.476711332971265 8.696340374175708
Sn 14.435277242543822 14.955796793497841 12.593687129181449
Sn 11.232208712110587 11.88129611963677 8.973133466526848
Sn 15.390454033576036 12.41939127756807 11.193209433128063
Sn 10.267811471657676 13.52613223050598 13.735487013369529
Sn 13.358378915770597 12.20348468060768 13.70090637194087
Sn 14.00700823864015 10.559700775950068 9.104086148682411
Sn 10.105198585192865 15.063118945338033 16.185186073070078
Sn 12.91839743756085 15.05210885888072 15.217647414138844
Sn 11.091195290634179 10.98926233111551 12.054384025117747
Sn 11.881269259676714 8.883687561682285 10.148327489210262
Sn 14.145462614652558 9.718407523897149 12.201189969023417
Sn 12.535820122558803 14.35718898131275 17.960342507168946
Sn 11.542339926785493 12.211568824163349 16.232917987969447
