18
Energy = -62.31716736 eV
Sn 12.836084288316286 7.650133909832131 14.526530101750463
Sn 14.998593516897493 9.330032765351403 13.474221637741662
Sn 12.058502832279865 10.541217708041243 14.661563852564212
Sn 12.15234953746391 8.784554502187063 11.908178255280227
Sn 13.757840183085385 12.059530214019592 12.74617143898515
Sn 16.678402299741997 11.103450676209583 11.819020419860749
Sn 14.486299112057141 9.836865610783784 10.213254095523142
Sn 9.81004237635938 14.967757236368957 15.635194169447784
Sn 10.716797462112835 11.450256719014613 12.06402161963063
Sn 12.615224331689678 12.264394686599733 9.896983494945177
Sn 12.654917905608617 13.74495822971416 15.561327462225881
Sn 15.374036921790227 13.779446619312814 10.933435209788753
Sn 14.286185101174004 15.313446824555326 13.508385476980978
Sn 12.124631623847046 16.931750109835463 15.369636542367962
Sn 12.71986068304981 15.25520446054839 10.37874785677665
Sn 11.169755780297539 14.528404382240426 12.930031783263992
Sn 12.389473307703666 17.57581357099651 12.418834656337236
Sn 9.613543141970302 17.091948231633875 13.525794194704805
