10
Energy = -33.54498057 eV
Sn 9.83201029818165 10.612626681729093 8.911334059500641
Sn 10.392381825090778 8.949472397255242 6.587757628111269
Sn 12.311066581537304 6.971512565777154 7.425448994667784
Sn 7.13245406526673 11.68658484303574 9.186107608764377
Sn 10.048073424195273 7.378211639102057 9.447689069474515
Sn 7.901619883911549 9.181169112771437 11.142357398753578
Sn 12.560358770780832 9.317036766061369 9.119831483412828
Sn 9.439488339505287 11.94913981993186 11.592620207865169
Sn 6.571197934277901 11.810085961155263 12.001789899709781
Sn 10.958029093618986 9.290840429546831 11.73174386610636
