19
Energy = -66.06685215 eV
Sn 13.490537252829478 8.134239760680394 12.080324432381616
Sn 11.445710141613759 13.684049235158454 11.405324569390025
Sn 11.795774062491715 10.370504248685155 12.525204167185313
Sn 11.537107477686071 11.264707577848815 9.59060644591768
Sn 12.176956833459695 11.026123626777416 6.6848379762136805
Sn 12.85137668586313 8.624447769697396 9.080327478165206
Sn 13.53840694820496 8.316837123134892 6.259156229345559
Sn 10.626643840236095 7.256513637767084 12.473590264723281
Sn 10.679718927218628 12.492944187351005 14.229948116501111
Sn 10.604677209687633 8.326095971677313 6.223032748365546
Sn 7.611292992425756 12.064779148926197 14.448300539617323
Sn 8.596651266135666 13.908404860479989 12.300888394196596
Sn 9.025330729329275 9.681937147852377 13.466789170733497
Sn 10.206628359023082 7.318139337177433 9.38352108765902
Sn 8.882808629056031 12.832739874248702 9.482394585501442
Sn 9.174884506680474 10.900460991830764 6.740766669734921
Sn 6.863486499382643 11.423943989945466 11.419342544871906
Sn 7.9783784891203 8.319135560580314 7.7049346775893115
Sn 9.105306848371203 9.810985117183023 10.410169772495262
