17
Energy = -58.92265564 eV
Sn 13.525969803926719 14.113563288872292 10.988473765837504
Sn 15.62550968877407 15.22248757022499 13.130118777585645
Sn 10.871906525718428 15.369937855526407 11.191935025133532
Sn 16.272099280736217 13.200572040271997 10.48812554185941
Sn 9.879788232478035 12.425230625275363 10.985691429287321
Sn 14.058086239741261 13.905577025147458 15.771127047609367
Sn 12.698513682489287 15.74410204238787 13.67387373960771
Sn 14.212258936394477 10.99562603870417 11.467263873787324
Sn 18.271897876749108 14.01300475062034 12.70573100151437
Sn 7.9038580696921255 12.047284125902422 15.332554429434008
Sn 16.80799031214941 13.023224232930325 15.182859059872097
Sn 16.996772570710238 11.160713653509152 12.702064065383015
Sn 7.4430894530388825 12.421480265892171 12.503231605382034
Sn 14.690564219025692 10.796284789297264 14.650475960413226
Sn 12.52779791263077 12.586181739266836 13.460078027568011
Sn 9.734817935036983 13.954500670386178 13.846565023886724
Sn 9.993519983377578 10.78258354681509 13.52706832694076
