12
Energy = -41.56855628 eV
Sn 11.95869662893131 9.041634367749268 8.281411418740515
Sn 13.496492772797426 10.635813180877411 10.475139287393109
Sn 11.907868723253994 8.07672903410423 11.289539174576351
Sn 11.638535376039792 12.126208556388072 8.003965349942053
Sn 11.561210192383761 10.43857479254775 13.285265948947483
Sn 9.317564421769394 7.761315393156876 9.492655300118765
Sn 9.060930209870325 8.756566113113484 12.487212048988154
Sn 8.49541998794269 11.81849508782878 12.565363021887144
Sn 10.764935663831116 11.63826424308434 10.746934269434256
Sn 9.1383726872044 10.31224212173116 7.61926352694
Sn 7.3474602815276056 10.135176546774167 10.217479199917427
Sn 8.547023140914092 12.86604508865653 9.301984542750931
