13
Energy = -44.89967054 eV
Sn 6.9423827961015165 8.517942173837131 7.572690936524865
Sn 9.209773957007124 7.200073632610574 9.557714811517567
Sn 11.991148806251894 8.144956757651377 9.806936595688061
Sn 9.967766626806473 9.054104313493744 7.202023246410796
Sn 12.817015185535087 9.809183666124976 7.32147414597559
Sn 6.40904314403418 6.3976681307660925 9.605808911159633
Sn 12.257677916291914 11.247039077296751 9.835140452830208
Sn 8.147280635453052 7.3405359010804 12.343506134810859
Sn 9.83148370835891 9.74796741876216 11.504912709898386
Sn 8.055905172384763 11.008536398214641 8.8531744375798
Sn 10.57291252785361 12.087338378748061 7.419517145766395
Sn 6.455074705773764 9.171469213939176 10.762671720659482
Sn 9.714500495837493 12.64515061516487 10.586394428867576
