19
Energy = -65.66467159 eV
Sn 17.45740523118903 11.847105006284965 13.554063802422677
Sn 15.98123593336648 14.16000741385699 12.273802278115541
Sn 15.437665745974778 13.341687443773951 15.221461985362366
Sn 12.736489031267078 12.29057581949403 14.820104632506789
Sn 13.91337172715996 15.642668636733097 10.796567786188083
Sn 14.7726680254726 11.260539389225338 12.613071688896321
Sn 13.603572585588262 15.503099847115644 13.919595549218533
Sn 12.609272798889075 9.478663791075556 13.831911299679488
Sn 14.737853852675443 12.628037721933024 9.966329086266047
Sn 11.1087164983142 15.57184256758937 11.923627435363233
Sn 11.36619942638258 10.727247041343936 11.287470100951648
Sn 10.428173104621344 14.113565752516473 14.524666829149956
Sn 9.974959368623791 8.156273982229212 12.565007499728088
Sn 11.744560744394208 13.316175769629334 9.839970594805342
Sn 9.122307851375973 13.205533996336941 11.673387495075342
Sn 9.745131755864517 11.039649791244164 14.027042487256628
Sn 10.022642297783797 8.66631986010789 9.616026229354901
Sn 9.299562258062728 11.50288444416139 8.85618972428024
Sn 8.058546446406325 10.226224199839908 11.420568972966917
