12
Energy = -40.50634111 eV
Sn 8.824680276199135 13.524540621728265 13.100043527937625
Sn 10.79912500050535 13.803680336722046 10.727002656634069
Sn 11.609106411709007 14.790806086658133 13.478997334651291
Sn 8.033819603971166 12.844032886068566 10.303711299596436
Sn 9.479507069762816 10.710523502772263 11.740260886545254
Sn 13.964784981502754 13.29818755200595 12.092458866096962
Sn 11.522993563866917 11.810122735115543 13.706647562884477
Sn 10.879083640678724 8.51424853084163 10.304631892960929
Sn 15.26340083742634 11.14921566243627 10.297349572209056
Sn 14.178523758499724 10.467433768718843 13.18436242562197
Sn 12.340223960213741 11.09946364391031 10.345355620696894
Sn 13.818172839303124 8.495854258460891 11.023129150050838
