11
Energy = -37.44091969 eV
Sn 7.974754098875327 13.373614413506727 10.916195205277806
Sn 9.005641349512056 10.77926142562148 11.437827076247832
Sn 10.609375397476368 13.590760393284388 12.143378762490372
Sn 10.402665464216955 12.762227480349722 9.095047872431012
Sn 11.490493031083927 10.592572684030422 13.159973775693338
Sn 11.997891664002571 10.183280810834937 9.686469951061925
Sn 9.926105825281809 8.179176069436503 10.490361376109123
Sn 12.60667142208412 8.135420372546761 11.915985286675912
Sn 13.138186242618955 13.127760431697478 10.435623337273917
Sn 13.186131600187455 13.035320267201111 13.502439860830453
Sn 14.352101335565486 10.618211754173387 11.733044089282023
