19
Energy = -65.05466782 eV
Sn 12.759997272299195 9.986458805266606 13.386734171052717
Sn 7.589724970137399 9.287119069464872 12.037069840898006
Sn 11.692250764773135 7.152534068942007 13.361159209810621
Sn 8.238524159107905 9.193453980016633 8.913213180996216
Sn 11.194482499242373 11.054966998047673 8.849848031075485
Sn 10.416456672815679 9.152684917368115 6.51420706026929
Sn 12.351654587617672 6.85684677778105 10.342994669911707
Sn 9.781752788905193 9.500952199358434 14.256064607598846
Sn 10.448063151729109 8.91366464568062 11.104709427957102
Sn 9.042444027104935 11.041543973257358 4.758575222216823
Sn 9.34959374297634 13.494777505758753 10.005651067004724
Sn 8.504908734084436 11.978739969123543 7.48419442607972
Sn 10.117459333734907 6.8101445348049054 8.255811885800998
Sn 8.682875532441136 12.186595547501422 12.719311858684655
Sn 13.351365156859691 9.773841827571859 10.397476176835694
Sn 11.812452237370913 12.579312839035127 11.540913724704767
Sn 11.59169990046645 11.91041187154389 6.043158264290536
Sn 6.822975165555381 11.670380590466499 10.383885481667859
Sn 11.189441251189164 12.290041984049186 14.505935663727136
