13
Energy = -44.03960612 eV
Sn 14.216362274479739 10.913104876796556 14.935121571839343
Sn 15.193466778426755 13.997913020303768 14.2662043577131
Sn 14.428585103937035 12.240736595114887 12.062798564156227
Sn 12.721854979507224 9.585873863144007 12.775979592396899
Sn 12.150871685430374 12.870399425689524 14.385444416962557
Sn 12.817939604215976 8.150543695347851 10.374592618185877
Sn 12.938333108098112 15.88432134301624 15.28931253934169
Sn 11.213984452049166 12.639815244241712 11.450231624432226
Sn 12.994816050762296 10.955128143942076 9.64320352581734
Sn 13.224840971841694 15.467114049989458 12.354394206049676
Sn 10.681414416693299 15.41530442196379 10.827995766545634
Sn 10.243900919603977 9.919170346558383 11.140327009827185
Sn 10.4345209572204 15.288801410330995 13.849614107260924
