17
Energy = -58.16765213 eV
Sn 11.370822357469923 12.738756433105419 15.257696395720892
Sn 13.076680445078718 10.028311435030052 15.266801300810716
Sn 13.385366705512816 8.667448702918872 12.666930997905993
Sn 10.677634824785844 10.308317021173268 13.472282635386325
Sn 13.019342083262822 11.736287777129595 17.63944352609553
Sn 15.508441848153725 10.912604481732794 13.228011097962309
Sn 16.518086957762648 14.057622727002252 13.673373959519166
Sn 13.081803725952842 14.125812149328912 13.23317691371254
Sn 12.392803923734874 11.358966945100992 11.333843691137446
Sn 14.635478626989203 12.93085298361933 15.604262223007419
Sn 14.91090627182365 10.361344005627494 10.32654553406983
Sn 14.937979290680868 13.335225334626319 11.032499555188883
Sn 15.000921571411403 16.64134872576919 13.765057892191841
Sn 12.069787746283907 16.72756595671043 14.593506758443725
Sn 13.780256014847566 19.177954345817927 13.406510608235099
Sn 13.093287496004962 16.76675248735946 11.416855191585654
Sn 11.031789489499639 18.53716951735378 12.510189427948069
