19
Energy = -66.07612457 eV
Sn 8.660349746831947 9.226263553392664 6.759959923872389
Sn 13.431972993771376 10.407322473092718 13.539442191046833
Sn 8.72246838856761 12.219276630825382 13.89199330348319
Sn 11.980971048980948 7.166373159911909 10.001318236091732
Sn 11.787725045280494 10.072584705158723 10.671150456659912
Sn 11.252995309978832 8.265441150621575 13.054332757802753
Sn 8.011458694366656 10.96336295455327 9.0955255998799
Sn 13.18581569371531 11.804867752731056 16.162752589293525
Sn 8.882181276854585 13.858989498798865 8.860373050753827
Sn 11.630748655399419 13.248758516173247 14.06697041792544
Sn 10.523061149606914 11.966178502224578 7.1429553227659115
Sn 10.735525806874438 10.473381990146105 15.21043703432261
Sn 8.945801602170924 9.821932988861802 11.844163337863792
Sn 9.204842286546397 7.899713754536748 9.342549142803765
Sn 11.639063687053486 9.004664081381664 7.529263695589295
Sn 13.308090179142749 12.673349592005575 11.44592377086413
Sn 10.185567801318083 12.664315776372842 11.326007339921647
Sn 11.891480166840111 14.21737904187021 9.073924993719165
Sn 13.33464452113879 11.540158611850735 8.4243835035936
