16
Energy = -55.6740999 eV
Sn 10.454777622326473 7.992399198350983 6.553387085771574
Sn 13.533192972476833 10.341264844547794 9.871731354773187
Sn 9.438309528464206 10.77181497965091 5.892914791308822
Sn 12.740912201885218 7.648863729202447 8.666053442157988
Sn 9.989711540837419 6.5361183834421945 9.224381062092645
Sn 11.998484812082674 10.748975780852495 7.386038806282813
Sn 8.999216147327243 9.571784527078183 8.839341169418196
Sn 9.488180112423956 12.990338592153932 7.926907963840501
Sn 6.303983657004554 9.192820223412474 10.01434666782604
Sn 10.802287599496447 11.717389455160196 10.279542192627831
Sn 8.18877832783125 7.3421378638767925 11.769954496667502
Sn 11.067747207793293 8.748885868290017 11.021806964538348
Sn 7.559684027802212 12.022474536187067 10.320711937835997
Sn 7.2775442926208385 10.116248924628549 12.687633305400892
Sn 9.42990527190648 12.233130974899225 12.841627642555524
Sn 9.942050489338515 9.222234671738397 13.69346022999322
