11
Energy = -37.49146621 eV
Sn 10.172339693647833 12.91411089855107 11.43630539177894
Sn 8.35304578151693 11.087273084398833 12.869007305258961
Sn 11.193728358917692 10.391458353900797 13.031281021350983
Sn 7.424252126103491 9.144016150131712 10.836916420863677
Sn 12.734892397463486 13.095152112177598 13.200275992130416
Sn 11.857224978403057 11.872463766646765 8.623654978924197
Sn 14.206697076157662 12.070667972508733 10.625582691686748
Sn 12.381355993292239 14.425920002611635 10.34334630277264
Sn 9.982383561586596 10.080146813742514 10.136229568349536
Sn 12.870135750485407 9.298126076172364 10.223347719365792
Sn 14.073393426004216 10.198546104523258 12.954285976210237
