10
Energy = -35.06856869 eV
Sn 12.282387404529457 9.625519573474582 10.172572675403597
Sn 7.649052381608237 8.342099811545072 9.33389215664316
Sn 10.95243058905541 10.779986020126506 12.743348210823376
Sn 7.647200200843475 10.756340073059505 11.311120390404136
Sn 9.616738966688633 8.474044422718947 11.637142605716974
Sn 10.170686996690288 12.094167373420394 10.29439376926141
Sn 10.880921289606766 6.903473709054842 9.571728338489796
Sn 11.59481550357593 11.573272237766213 7.8356095328359014
Sn 10.16437626624323 9.061328880452445 7.791258827233277
Sn 8.09133447787202 11.229127475528394 8.266755392266491
