12
Energy = -32.53696568 eV
Sn 11.502677792170973 14.517480182624032 11.408187104131278
Sn 13.942095097713802 9.704591501275777 10.050049599854146
Sn 9.208576141808201 11.555866603338838 12.524641883663922
Sn 12.277262220004095 9.634312295904653 13.72327674512416
Sn 14.008547003977052 11.690947837097443 14.196186525574596
Sn 11.567457060892725 10.93193886409089 11.250876363968477
Sn 14.222946041637242 15.072053812048402 13.454947415279065
Sn 9.732879281337299 9.93595070167354 14.903002860912768
Sn 13.81047813196079 7.136499939998297 8.839605374757461
Sn 14.418826043339559 15.623850528524041 10.520623016770552
Sn 10.366766321266818 15.54566523983365 9.124374475638737
Sn 7.187873724685666 9.802421210631 11.535356489204853
