18
Energy = -63.35739422 eV
Sn 12.220347058729553 9.749907768878177 13.66105744039263
Sn 11.597834572345915 12.650917903223169 12.482981630657614
Sn 9.452054312080056 11.071626890369545 13.944471603193797
Sn 9.635654444888251 8.044232251052039 13.309149204928211
Sn 13.804833260847522 8.365343220370145 8.894995058631409
Sn 12.057604840374275 7.535989802330496 11.420195862322007
Sn 12.414163193790591 10.483075930905725 10.633906919469178
Sn 9.34913217315907 11.744391284054627 10.727946062577452
Sn 7.355489928647499 9.716428496496718 11.937674972059645
Sn 6.266242435259918 11.595693438411516 9.589902675281891
Sn 8.486017794094417 13.16501000768323 8.23743859933491
Sn 9.682133649380406 8.72261603080922 10.116718008864092
Sn 13.205806296591541 11.228483816640333 7.849137200923361
Sn 10.246184381950366 10.84424100197991 7.671362698980069
Sn 12.058241888842904 8.656776328140072 6.5210907427824
Sn 7.244163579250172 10.5761383325017 6.855073756859804
Sn 6.574391700540742 8.546044829364954 9.128530592374862
Sn 9.049197681094249 8.036689833685319 7.314078662398271
