10
Energy = -34.3647948 eV
Sn 12.943351178884559 11.292603923547214 13.68343357921459
Sn 9.741048049752855 11.19844551008624 12.307438870001892
Sn 11.418931195168472 13.868379220280477 12.627991356827046
Sn 14.038424278701752 11.220306048810865 10.81169108930565
Sn 12.006413528957381 9.095742992126757 11.60478390638044
Sn 10.7512746957738 9.620607374942594 14.494914103344493
Sn 11.096184290191962 11.133395133820548 9.541393634730797
Sn 12.662818588305045 13.785280963619462 9.78157632502086
Sn 9.490570192345329 13.567086285243823 10.487027306597904
Sn 14.310767716677708 13.725583498486687 12.578153325572801
