11
Energy = -38.04418508 eV
Sn 11.04057182443645 10.8932453521094 13.41845733442114
Sn 14.717977615310081 13.46390649243947 13.400799806812461
Sn 14.061623668087943 10.451703480207966 9.319290827620426
Sn 11.290570298717673 10.763021391338393 10.414494777844917
Sn 14.086556942094138 10.647017820709626 12.249499504446113
Sn 10.626217844774645 13.460256231292323 11.574663900337143
Sn 13.672115646664706 13.127225704697194 10.488552277179119
Sn 11.979113059039483 13.909419912104648 14.687998106832614
Sn 9.16776026526773 13.01597534596958 14.027099598197452
Sn 12.798816021427402 15.467073037485276 12.103678735776652
Sn 13.504520269899052 11.21835847056494 15.1080552907569
