14
Energy = -48.58781224 eV
Sn 14.393920938234743 9.844415985602293 9.160355759604657
Sn 12.961127529843333 12.40317294589541 8.6275188944201
Sn 12.28127288750014 9.725708849234831 7.0573961481325655
Sn 12.060736587629938 8.438413114137612 10.743988897407426
Sn 11.105032690012635 11.216718973972027 10.613588143739358
Sn 10.598929563442582 12.155785010502962 6.890815441453152
Sn 9.884649486886621 8.908309496931386 8.753636942476533
Sn 9.410276442358482 7.122388001842908 11.455767211774232
Sn 9.063450970661656 12.119387500735924 12.545474001841443
Sn 10.754030324116744 9.587194353135093 13.326731256462738
Sn 7.16188837682213 8.580857415156519 9.798773410437988
Sn 8.496493941852295 11.525415259660184 9.223446114539238
Sn 7.855225820450899 9.27641656483182 12.819908982471569
Sn 6.353716026381733 11.331738430394916 11.206794246475138
