12
Energy = -41.5796324 eV
Sn 10.929119516520004 6.811662641111042 13.104663519465426
Sn 12.564759205274894 9.098746121942996 11.947347315114015
Sn 9.208051942586154 9.327376574727694 13.064713983097654
Sn 10.13439984540625 7.741516128633349 10.567845122959007
Sn 12.097953373702486 9.549161743065024 8.860520973879844
Sn 9.260343785875014 8.300440485140161 7.85348028197312
Sn 7.800195214397138 9.877370100485578 10.280154178898325
Sn 11.935091821619395 12.685101282081087 9.240777724386446
Sn 10.685645497784755 11.297770268906019 11.495060469268411
Sn 9.543293706817785 11.186120373046068 7.953799176285395
Sn 9.674153947440331 13.985914378744814 7.676197882115525
Sn 8.57304457894195 12.946434337043781 10.323277146245765
