12
Energy = -41.4137218 eV
Sn 10.584434724111217 12.355202943900853 12.793442381743052
Sn 8.816685792903934 10.974187921513687 8.444510864875014
Sn 13.834931769197622 10.425569763509847 9.121598807420737
Sn 10.468458604068564 9.24752772051673 12.968846688871285
Sn 9.41248969717207 8.365083639119511 10.149558517189531
Sn 12.423351526594592 8.168620412383648 10.73478092669871
Sn 11.27575941299839 9.274341973408326 7.879382939934018
Sn 13.175576283209722 10.812679312476261 12.170240053871083
Sn 6.674297346518291 9.349186236328697 9.717211139444544
Sn 8.176630062022323 10.949164623723716 11.66456078086023
Sn 11.577103480544316 12.094214668411045 9.812466260047437
Sn 9.124586679852081 13.530815880318553 10.151705124450979
