12
Energy = -40.79665111 eV
Sn 12.117666195084695 9.892084213941269 11.723228571345729
Sn 14.093299701624883 11.43998572595662 13.331156651353464
Sn 15.942732091964993 12.76289019357431 11.432318428752673
Sn 13.384614080290081 12.498464285647291 10.280426620060888
Sn 13.575021749480484 14.541751928444468 12.573037512447923
Sn 11.294548129766996 12.842236444250934 12.597936361429818
Sn 8.932076779981934 12.407061824819346 10.803066821641696
Sn 9.628350887298616 10.475965192495403 13.513816224190947
Sn 11.083664781145155 11.286151684440817 8.824724662322932
Sn 11.781636501851041 8.423341787606592 9.283681091711422
Sn 7.059352069540004 10.50213569201087 12.028304502811084
Sn 9.207400308354835 9.204696830348675 10.612191763462251
