14
Energy = -47.62293396 eV
Sn 13.818535186693696 11.356678484320211 9.666218059587424
Sn 12.965856240451766 9.019216816489635 11.273005790419706
Sn 13.800911778094259 11.515328199245301 12.810834761325504
Sn 11.18691960160327 9.895613818195477 8.456786377962082
Sn 11.253667819497528 12.292549911714222 10.810950633687407
Sn 11.398073634197667 13.059479325344896 7.934768503368318
Sn 10.854157684645088 7.313258364074231 12.470352670787294
Sn 9.549984641453397 11.110883765659677 6.333566300266934
Sn 8.661501597021262 12.133405046710093 8.821621402017987
Sn 11.391519747073728 9.732178151358076 13.984175024606742
Sn 9.485673537780919 9.554414156794657 11.189769100994285
Sn 9.478598175551294 12.247884073343776 13.029580762260998
Sn 11.780582719562963 12.426361363390876 14.893694094742667
Sn 7.183500144903856 11.327852545580896 11.320583794796534
