11
Energy = -38.04848695 eV
Sn 7.64638764889138 7.6493251730557175 10.296918194355653
Sn 8.53034358583059 9.865787277111338 8.492468039674065
Sn 11.483900697466742 10.427685379744883 8.412662152310089
Sn 13.310592885690868 9.214693887276034 10.459427199915414
Sn 10.56193390752438 8.072523211036449 10.475947221859634
Sn 9.420169735913332 12.412108347564505 9.829609761808403
Sn 12.54735698137143 12.16777910365482 11.14982067746297
Sn 8.577793763630705 9.968024316330549 11.844079024524593
Sn 11.801763707411904 13.30192826534473 8.441711778685448
Sn 11.512730559273963 9.844438177390291 12.853495689095876
Sn 9.90167115638258 12.452647447927337 12.789679618550394
