16
Energy = -55.43314804 eV
Sn 8.538497515616944 7.2479065697710485 11.897627863076448
Sn 5.984748573301425 8.425163632726003 10.755862141944025
Sn 11.836241514873372 7.531819806197433 11.370671632657828
Sn 8.563024261822093 8.115971352514247 8.929680811188543
Sn 11.816759123849696 7.336118770245169 8.474019106849262
Sn 6.013852661569753 11.466322906721832 10.562600941559952
Sn 7.572184352387026 10.027437165383002 12.925975959283328
Sn 12.893978059766603 9.972544826847628 9.978684200782666
Sn 12.726245481796292 7.57766078937293 5.848086360702675
Sn 8.695468080739431 12.531024688044395 11.371562225357705
Sn 8.56089568704377 11.167792686098638 8.525212507935217
Sn 6.0801008424355345 9.650707137438612 7.997557016547414
Sn 11.613846727497064 10.353114333531076 7.05928132348279
Sn 9.95347518642526 9.876687827328857 10.993575122129151
Sn 9.769187803058268 8.26629410655056 6.1367437897579515
Sn 11.364291426592327 12.411464527786997 9.140896801629887
