14
Energy = -48.41778491 eV
Sn 11.088371323306875 11.428353437887425 10.672301275303537
Sn 8.725218773180027 13.137704952387287 9.586145867428582
Sn 11.724927956935979 13.0730058068556 8.363296215699831
Sn 12.9328214397925 9.380834855690278 12.183712795708365
Sn 11.877731956100073 10.084452876416528 7.507985209389001
Sn 11.39902401108729 11.637185678780856 13.756765430419202
Sn 9.449699168622473 11.855920040499797 6.83625675596903
Sn 11.59350488485847 8.83513260682252 14.874923534562205
Sn 8.331555237594793 10.058764898465714 10.215596889948115
Sn 8.902517036022022 8.877403384336432 7.35877618276473
Sn 6.820829114096994 11.225898020704756 7.982423747940105
Sn 9.496650365132233 9.447902513185506 12.876895250920997
Sn 10.884696456183345 8.387456268361055 9.772457167256217
Sn 11.10596386343273 6.9108829973378905 12.461759134612722
