10
Energy = -33.09123356 eV
Sn 12.131378233294951 14.61859568446082 12.168733328001954
Sn 13.965684769237408 12.164426115543701 11.714988274165815
Sn 10.472840593978836 12.336525937411256 13.322070486994333
Sn 13.078868786094441 11.189376166463292 14.35331894026465
Sn 9.166924829938296 14.441539920633442 11.51681469641532
Sn 8.33535853397819 11.647741113287562 11.454031283306199
Sn 14.529235594514818 10.162777835965166 9.729515849042649
Sn 11.503591045547775 9.848865005086136 11.689630390944835
Sn 14.308580332697586 9.107407309575347 12.400645212470899
Sn 11.106377117171876 12.53671678324601 10.090731943002424
