12
Energy = -40.22545439 eV
Sn 9.476739395442843 12.9888446636088 11.990068650338333
Sn 11.89325926573147 14.724063632985487 12.78754386209116
Sn 11.615346505448093 11.692452293679144 10.529175301819887
Sn 14.239915372606701 14.096941382226815 14.613940086911843
Sn 12.774289482841391 9.195129290206964 11.83373287010633
Sn 9.947152090609968 10.20461806904388 12.968380800147774
Sn 14.412706819842018 13.195639928738917 11.602202749790184
Sn 10.517538766960323 7.366966374563026 12.336780986935622
Sn 14.547930705266628 16.191531339891007 12.56631878784842
Sn 13.032534881820805 15.416769281537631 10.13421612875255
Sn 12.593417987333703 11.678646903124267 13.694054194619971
Sn 9.98823057075292 9.182410139330065 10.058627530946474
