15
Energy = -52.29606413 eV
Sn 9.618485728232383 9.576209322500105 7.168168219507087
Sn 12.486605136361717 8.896869682786866 7.533100365762465
Sn 10.380600868135245 7.075818005108176 8.987965758947121
Sn 9.112819651262157 11.960238385457519 9.039244257853706
Sn 11.987512027049148 11.82291387671973 7.762224320693289
Sn 13.285943109627036 7.331357302945085 10.071779342378399
Sn 6.829534574039106 13.219874397979583 10.337025926221783
Sn 11.372312304078005 11.502548180432381 10.931674280411501
Sn 13.85951291928498 10.400512454610228 9.827926964207753
Sn 8.901234974890858 9.263729232608252 10.289662797597428
Sn 6.814518327155918 10.54923297808864 11.867887127185222
Sn 11.34874924536811 8.674080506018013 11.831224481023451
Sn 11.289414811965367 12.25027921181035 13.803277407634145
Sn 8.932914008439658 12.956170224095573 12.336851301703755
Sn 9.272970059822311 10.013293984551478 13.705115194584577
