18
Energy = -62.30659157 eV
Sn 11.888338075153243 11.933922044351329 12.169135404871373
Sn 12.65174655616508 9.066282177780195 10.308396509636777
Sn 10.394447449361861 11.349394838121194 6.433791157587928
Sn 10.215625668072413 14.053930753092713 13.644469257324538
Sn 11.092882471367213 9.006608617410517 12.949118130657423
Sn 10.580049761936486 11.155277023579519 9.367910603124377
Sn 13.606965219966654 7.247140007579825 8.06774760262152
Sn 11.098076959937787 8.410098238590557 7.3199017579678065
Sn 7.591235186507347 11.527547124714975 7.375839673521689
Sn 9.107826678992426 11.487127328249175 13.522996012785546
Sn 9.27494331335532 13.426409366274163 10.865259564891755
Sn 11.362238261197042 5.992912068416309 9.464546418292905
Sn 8.43843900460732 8.899433987552376 6.010980614029295
Sn 8.510083721723044 6.676611532648726 8.183570286438698
Sn 7.629140560240338 10.879123867501898 10.500790725953442
Sn 7.916693667353383 8.888079288003423 12.88254984480097
Sn 6.41232166272945 8.952904370251378 8.39357549191849
Sn 9.466974767425452 8.452337953909492 10.340191030635067
