16
Energy = -54.68400883 eV
Sn 15.88640028462077 9.557339392731818 11.520516832534353
Sn 12.4439217687624 11.41207557564644 8.022697136960245
Sn 12.220051096148351 13.391655626400839 10.365232742722686
Sn 13.392888210324298 10.72322563016177 10.935697772243142
Sn 10.108666885857014 13.532939981480789 8.273668215242107
Sn 11.214871024500507 8.973551108625978 9.497895322398897
Sn 8.94143376589707 11.017598735133493 9.135018943057391
Sn 11.632301585692463 12.149762985937638 13.07807158950926
Sn 9.218146799509999 8.770177774985253 7.136953949535491
Sn 10.604392141026178 7.232526371392566 11.900739310004298
Sn 9.042005655454142 6.727353564587108 9.34840325584407
Sn 9.298298548532967 13.339985711333416 11.372159957550299
Sn 9.76903014079138 10.156526318088545 11.963831408440933
Sn 6.74966820120065 8.912477064330275 9.005237471295004
Sn 7.6146275236337 7.970085103689895 11.906297638653315
Sn 6.807710711402373 10.858139380532512 11.353236698877573
