16
Energy = -55.38476843 eV
Sn 7.720820362474529 6.794929789577643 8.205931570922091
Sn 10.48456165264177 5.899486718006878 9.208029508083259
Sn 8.220929093092593 6.247174032646048 11.220167180255743
Sn 11.102187580253458 7.053004457656682 12.01050902519563
Sn 9.806147341743161 8.890070428335893 8.051397752804045
Sn 7.473213975340943 9.108130226424581 10.131911047716327
Sn 12.487816777443133 8.181103115520356 9.369537026985006
Sn 8.753343024642959 8.907154906019706 12.855471597954145
Sn 12.486422730099074 10.189862876964689 6.9479906054980605
Sn 10.69796553418512 10.014415119761628 10.8388548278231
Sn 9.663605370704245 11.092750139095312 6.074745868928919
Sn 8.710632547921364 12.136336599861687 8.712024404481546
Sn 5.981953514636194 11.636343794141515 9.656782520710328
Sn 8.055444862319861 11.963752193085748 11.811458710273863
Sn 11.54187181237909 12.844380489181784 7.9796480912542265
Sn 10.806089065444912 12.929763216023183 10.926486781247524
