18
Energy = -62.92888833 eV
Sn 12.830434501454837 9.024260739620711 9.41278803231584
Sn 11.399074039250017 10.365163652285354 11.787672872451262
Sn 11.636486031199905 11.833523796006896 9.069408276332778
Sn 10.984018643688957 9.777084326095133 6.63599259961715
Sn 10.532042376509828 7.256044591570283 11.331775545794578
Sn 11.2598471029125 6.876400556689014 8.178016675901205
Sn 8.783235461083592 12.251354602405495 10.793208478837908
Sn 8.7221279293201 9.53811611997663 12.772580936140262
Sn 9.215777753263994 12.39491463147164 7.460203179656187
Sn 9.11373925932549 9.431030591179088 9.313779632949133
Sn 7.101817216624975 7.220891168127347 11.550043169295137
Sn 7.634241919925225 10.227323077141786 5.9680249157189404
Sn 8.644564667802523 7.512982577908783 6.418266553949923
Sn 6.19263524057959 10.126288779208807 11.090475018154084
Sn 8.370336934097965 5.975318327817702 9.217069492864916
Sn 6.4305052345699325 11.522654444675343 8.48619482149082
Sn 9.666145419033104 4.804317861803249 6.850057266311569
Sn 6.169300434599278 8.280366644459543 8.409642858205748
