12
Energy = -40.78366422 eV
Sn 11.639915422510114 15.103995720802407 9.73715422024671
Sn 10.009179830894183 13.481541056002728 11.912516386145569
Sn 14.253848144190835 10.317478759964128 11.302339161601628
Sn 11.519886760955432 11.027389028531294 12.995251861457415
Sn 9.68419923629811 12.97382290239489 9.0266741015686
Sn 12.2349953983511 11.923352212718466 9.819673210745076
Sn 13.499818901096676 9.232782728658949 14.21612425810439
Sn 14.377670176699175 14.475447762508852 14.575833454818405
Sn 11.311500790554966 13.921759521226166 14.640132902676353
Sn 15.114382988341747 11.687031178956333 13.701231346013236
Sn 13.189314396977126 14.031462600432308 11.96088877624974
Sn 12.90658221834958 11.738004438102992 15.837087708170246
