16
Energy = -55.95399388 eV
Sn 15.822686313621952 9.865427393348934 12.434145842792006
Sn 15.430596413344208 12.87339817875989 11.925766240854813
Sn 13.445075677841098 8.19523503022766 11.446352361032226
Sn 14.504272854343515 10.706970708518043 9.858901921523502
Sn 15.032747270028688 11.51398120234577 14.862631042987456
Sn 12.828478126341667 9.5890704722524 14.101246330010438
Sn 12.659067919638483 13.062481378714716 10.807046301145668
Sn 10.255713428702958 12.043413462451804 8.86867047134174
Sn 11.517958566248598 10.342958476882604 11.173498256748877
Sn 10.210116412533802 11.302801083302608 13.759046945154076
Sn 12.737951368110751 12.938150470033698 13.83628818301953
Sn 10.782034821211077 15.041907228670157 9.818676099765023
Sn 8.523682755020367 10.617445977953784 11.058979462274626
Sn 8.142242773972605 13.601547028426682 10.363470231940841
Sn 10.361684622134092 14.595809151803289 12.814278095075077
Sn 7.872683953057907 12.942326822855247 13.29567187502799
