17
Energy = -59.38240111 eV
Sn 7.534515330620444 12.36651807371798 7.771793324828233
Sn 6.925622250319719 7.936710768085796 10.520845440832225
Sn 11.679973779731101 8.229733204467964 12.081272840495865
Sn 6.07069452674697 9.583220673763766 8.022410417389912
Sn 13.107419941423684 11.561522548496505 8.56990301960156
Sn 9.637816481669988 9.046145932376128 10.06190151386318
Sn 8.138154977455404 11.845263550589626 13.264250238332766
Sn 8.53200376486403 10.002432990506993 6.184698357175387
Sn 8.30457134144858 7.304141707661593 7.788628409905536
Sn 11.265240513453994 9.35365803139006 7.382854398634961
Sn 10.146454201843554 11.800324496557687 9.000944266444717
Sn 13.596082354189972 8.636320865354673 9.273844045179217
Sn 7.23791786310991 11.040424549525452 10.54377305243616
Sn 11.304690955360735 6.705041623019274 9.368449512593358
Sn 10.731937241416434 11.382793811538706 11.949059923405706
Sn 8.62325942476289 8.916067916015821 13.082005500568824
Sn 13.566411841270275 10.654317551761796 11.491614299868411
