18
Energy = -61.95276839 eV
Sn 14.917477525627591 11.825549744056365 13.057640221389384
Sn 12.144872135191024 11.303276499717159 14.32279169460642
Sn 13.247837404329076 14.318217092572134 13.87031144542975
Sn 14.454472134205425 13.651923347938501 10.742474606516094
Sn 13.607385307599213 10.576613221933092 10.457233603713412
Sn 10.231262948960456 15.226727915982654 13.662326525187348
Sn 13.457185471742495 8.963219803922643 13.05811838886678
Sn 12.975677835119054 11.400954204140906 7.656938709165841
Sn 11.618819266717864 12.969520816393064 9.760020554468152
Sn 10.964946284134447 13.402476517703404 15.97443500599657
Sn 11.974965858292986 15.574805932900073 11.209745223725985
Sn 10.922068394996623 9.410495223739332 8.336512673596562
Sn 10.69151444729305 6.652586409043578 8.80902001992668
Sn 10.582439747444797 10.875383151577665 11.611241861504308
Sn 9.102271526844687 13.963543492336878 11.168330054823821
Sn 9.069506210765791 12.302380003621758 13.827309256268558
Sn 8.678616184986119 9.058859504684783 10.234411801475497
Sn 11.253889305484105 7.801292761218759 11.33336711556224
