13
Energy = -44.90882314 eV
Sn 11.292420037493356 10.730124362024315 14.176029439246062
Sn 11.91575585414999 8.056591940017723 9.719014926489773
Sn 14.11291965759972 11.290440709557645 13.061466803592383
Sn 12.909821428685943 8.423304830012732 12.716158353740816
Sn 10.247538661393632 9.570449225526978 11.58283004576368
Sn 9.12896263854304 13.043938157911674 13.451164970358207
Sn 14.359031513230702 9.701557928900211 10.363411221584732
Sn 7.296117998656114 13.775517676504949 11.322208402090924
Sn 11.860829523715848 11.015604729783227 8.929627492197705
Sn 9.230850674230386 11.989310064428459 10.134760931168742
Sn 10.013349725483977 14.995208994548117 11.05177450073736
Sn 11.770271817247993 12.81437585836489 11.889403811134425
Sn 14.187961464151078 12.662631221633848 10.177574121581896
