12
Energy = -40.24843948 eV
Sn 12.964882932301087 11.507229299320645 13.513173405432854
Sn 10.015466633256954 12.410638376842693 12.16847107724013
Sn 11.197650382061946 9.4527907411226 12.311348255291119
Sn 10.948922736957115 12.997641155651433 15.262248629335753
Sn 11.85962322456862 15.920863658678043 15.352209047432765
Sn 12.012322996152307 14.511914509529605 12.672676465424873
Sn 12.706211888996469 8.705937795992046 9.899665550128304
Sn 12.248743143426752 11.697460797656328 10.31848663039452
Sn 14.302065511726965 16.188259691391668 13.427835858764926
Sn 14.90816065996019 13.416017835438817 12.232390742435985
Sn 14.031185308316193 13.760244014929317 15.358852691080447
Sn 14.092372707035311 10.661819737780627 8.395502734673622
