15
Energy = -51.50594935 eV
Sn 12.558698768973256 16.253587269681102 13.901258336211205
Sn 11.84341647466146 12.241486282087884 15.803243729985354
Sn 17.51124878753436 16.734994970056448 14.051465557632648
Sn 13.138865707565882 14.268824116615454 11.366706758279228
Sn 16.427093078457503 14.558712923632154 15.727560856505988
Sn 14.336340698961155 11.004919746069739 17.150681143881418
Sn 10.900476067234118 16.331200037950662 11.542475419512813
Sn 13.704220945885183 14.177431987380222 17.26863632042956
Sn 16.50258096017939 11.457637739238177 14.81525251980833
Sn 16.638986772977802 12.683532928644695 17.847258861247735
Sn 13.495190428950258 17.67221663515186 11.228520501391387
Sn 14.10005141752529 13.485473210654652 14.23829352580769
Sn 15.55841193402299 15.705834680938484 12.245455240813085
Sn 14.813660056117115 18.19326294485144 13.963553583901444
Sn 13.692262146530057 10.508730088498456 14.153453021198871
