20
Energy = -68.84975149 eV
Sn 10.755100365791778 13.771289352758128 8.803614164942386
Sn 12.274855078408889 11.987180902425031 7.106372524326028
Sn 10.137864100642632 10.633587446136014 8.654866822412968
Sn 15.636768386066953 13.983950056502342 10.505780384087684
Sn 12.84353263329135 15.051556291664083 10.573657996720305
Sn 11.334346529526991 7.549355371691068 12.385553470766823
Sn 13.693968689034582 12.021913802363876 9.672587913627908
Sn 11.946610177260036 10.086311821471087 11.050965468944533
Sn 8.175496162820153 12.7066266895703 9.623011133811467
Sn 14.501164396425873 13.783899440808135 13.171548785388365
Sn 11.41598217933529 14.426601267167115 13.249491296793847
Sn 10.209010906966839 9.93355968278146 13.847767242078872
Sn 13.382820033192827 9.106473877095558 13.669164212653223
Sn 12.295877629142844 11.918499694761284 14.667406986148553
Sn 9.93354433866813 12.198668890067482 11.85102784466162
Sn 13.305254908394772 16.366132881283892 14.480011584164776
Sn 15.337373149463534 11.321202927584492 14.644443670312807
Sn 11.868839440264301 14.36821203484583 16.50572059231228
Sn 13.846202314275198 12.049580751552218 17.220320534058217
Sn 14.98067743199044 14.61068566843419 16.191976222751112
