24
Energy = -82.74136184 eV
Sn 16.3619843663079 14.512108238183306 13.091068282975627
Sn 18.440779922159074 13.497971946223531 11.310513254564713
Sn 17.0358358849115 11.324875206586077 12.913444001534188
Sn 11.080159702542652 14.177272830567839 17.46828230441677
Sn 13.522721589171129 14.997613657256121 16.163400240760026
Sn 13.46061907244106 15.232477468732025 13.156241671312113
Sn 15.549196956939094 12.85022564714971 15.455650502784271
Sn 14.082994857166122 11.855423190481611 12.90819861520368
Sn 15.700326445336412 12.837536588016961 10.470977640214588
Sn 11.948572568595663 16.135900589895634 10.59475196110591
Sn 11.017091837665642 13.772974035565174 14.498759698689014
Sn 12.88365853896324 11.928369713857704 16.70992029914594
Sn 12.255128720746862 13.159008015958328 10.94320221929766
Sn 9.422164561443214 14.357902995824771 11.388713946614438
Sn 13.555155783652502 14.376078642400351 8.496782871157956
Sn 10.353396892241891 14.757143896641622 8.355344609667428
Sn 11.750018011598483 8.872437091244427 12.040526166689757
Sn 11.303863961988803 10.753902907987833 14.456262103632056
Sn 9.51708391520382 6.982973647858555 12.446286961718958
Sn 11.746408825227917 11.92591973764129 8.101368838133478
Sn 10.058786099332524 11.189372118522142 11.106677646840804
Sn 8.748389264910067 12.356598456699336 8.828871351874369
Sn 8.690332328522773 9.64019600248088 13.322222249731414
Sn 10.79610234725078 7.944821715551128 14.922090441599218
