25
Energy = -87.42747729 eV
Sn 11.859265936526173 11.237174116173295 7.930912614588571
Sn 14.444352537521157 11.804017145996513 6.56830545904461
Sn 14.616028693815132 10.257769618313832 9.160125296560164
Sn 12.463165761527533 14.161593706234756 7.5022226454441805
Sn 14.944199547067328 13.412694763544293 9.076545193823703
Sn 10.756941863681751 12.305378091231088 11.363270069633025
Sn 11.845374450428643 9.701035855232167 10.42744090806058
Sn 12.317065094632806 14.665248414788662 10.410096970348388
Sn 14.719742879920133 15.733236631670387 12.01679766321402
Sn 13.726194189298257 12.064634031574347 11.489606870663945
Sn 17.10798518867002 14.984308180362511 10.457901071604693
Sn 15.025274601599335 10.721939580074835 13.858392683960385
Sn 12.414089418270873 15.072557801242096 15.705206873155028
Sn 17.89531901706727 11.445991446078699 14.362356600589258
Sn 10.835888347080216 12.8154911170101 14.28451249492762
Sn 16.449958010743046 13.422752318770616 12.85642932949611
Sn 15.117358341242081 15.89848900137317 14.914935716420226
Sn 8.446457524429817 13.323736130302866 16.146849022959962
Sn 13.285384427686845 12.131568107782803 15.903307554062485
Sn 9.716401677287001 15.6064603500497 14.592893531159522
Sn 16.167423346326373 13.241084649615006 15.934534900471558
Sn 10.708691622167137 11.006972202410582 16.92923373454781
Sn 10.060507260778751 15.614456393161324 17.64294031609807
Sn 12.44838764050028 13.43312362482123 18.444765166691386
Sn 9.576417187194691 12.886161287647456 18.96829187793734
