22
Energy = -76.90973452 eV
Sn 11.655668263810183 11.952979662840464 12.311239871166896
Sn 8.550672159413498 7.775365146238949 13.673732041418887
Sn 6.288268472216512 9.311299378228062 11.915295648175245
Sn 9.598427114891585 13.049556270926388 10.348399969685063
Sn 11.351807090384609 8.85926072695865 12.785717203049156
Sn 10.380019140004912 6.165043495920225 11.707239486467978
Sn 8.871977150564781 10.74596874159789 12.708350622742822
Sn 12.353253618471536 11.522089670074488 9.50269076472772
Sn 10.32194142236478 8.803263732392562 9.87708156306501
Sn 7.366461600183667 6.488277400885662 11.168445360010068
Sn 8.010958891919723 10.567959435217848 9.60196524171685
Sn 10.446657391707188 12.926796562505858 7.495694605166351
Sn 9.498110109363882 5.903488239391165 8.827998709965316
Sn 13.154704516166941 11.908731666758099 6.610189028067318
Sn 5.479925627500477 8.18674763016984 9.208488086478445
Sn 12.69992937770221 9.017677386396418 7.893026276434738
Sn 8.374096518245878 11.939166105174671 5.686920875530448
Sn 6.483040862804618 5.402137954394244 8.403294718459147
Sn 7.676089525898699 7.698519515612665 6.910348949322777
Sn 10.707774744333959 10.265103051468957 5.858621080770073
Sn 6.316540104177205 10.300280419350424 7.202710438564182
Sn 10.62289247266985 7.33948850320579 6.413923237844505
