26
Energy = -90.28930864 eV
Sn 11.156936542409278 17.797748078174443 13.1305558322838
Sn 9.0222584401424 17.617707672310456 10.999145824916702
Sn 10.226749664398639 16.358732407463428 15.514548889523832
Sn 16.256123075237337 15.876591285895532 11.58748112082965
Sn 11.459000510926519 15.95160755251108 10.383989275892338
Sn 14.951549162140049 13.610627487958002 10.169965540615186
Sn 13.465688790898946 15.995754731727441 12.76078957303228
Sn 11.15804655850582 13.930635061662388 16.915692939135628
Sn 8.92934885232403 15.418737843806042 12.867991439549083
Sn 13.769018494571625 13.991429617914129 15.136203373638983
Sn 9.704144218720922 13.461768579399509 10.42369940102253
Sn 12.483644105429617 13.293269374115235 11.877574626475559
Sn 18.711019221117986 14.705381970837415 13.239864167323363
Sn 8.374900350850108 13.848012793535053 15.447158257164713
Sn 18.783215768516833 11.771668348731284 12.47994168228769
Sn 16.03581015237985 13.28548360033416 13.08089020505727
Sn 8.182128925399141 12.276775827432589 12.73931252604341
Sn 19.330636816344818 10.514117958050358 15.226629364919384
Sn 14.074795298490383 11.01802851467942 13.779262713135255
Sn 10.756835402856444 11.92621046997121 14.649262133246781
Sn 17.894900063076047 13.07015504257825 15.55952016616493
Sn 16.160515956626895 10.882149596926064 11.219392462072646
Sn 10.861549953491703 10.851169418123549 11.88226860322367
Sn 16.916547306925217 9.454532928993457 13.884890732536915
Sn 12.983225735792566 11.386678559306338 16.66065113063052
Sn 16.17995034513965 10.868958023527735 16.441521106811717
