21
Energy = -72.74093882 eV
Sn 9.372474632640698 13.318375151105336 7.739632673749485
Sn 13.608597833059244 13.760191293137632 11.760627173499413
Sn 11.159342116720309 13.38944686387897 10.261618803722635
Sn 8.440351719622019 14.698640691737708 10.39011116634457
Sn 11.777486598519628 11.600255772821322 12.888097960432875
Sn 13.566800830859012 11.170301281936403 10.29211207117553
Sn 11.997280475258846 11.616245574723706 7.735506059522733
Sn 8.938089783802656 12.554364171078564 12.584651136547594
Sn 9.050644471180053 10.279867229998517 8.022730491823005
Sn 7.278521824785886 12.021938469277988 9.943210345120297
Sn 12.3681034127818 8.765747548226132 11.888088735976828
Sn 11.583761604141117 8.688438856182167 8.932410884955726
Sn 10.102985737849082 6.59036724138329 7.118581219515064
Sn 7.366952650680229 7.986892380561698 6.942357962577067
Sn 5.712816857784435 9.623555416445232 8.916583179583688
Sn 9.523643391131532 10.011684881911572 11.020728179052496
Sn 10.16729165789105 6.051071632678393 10.073844193892462
Sn 10.000172790505523 3.7454278985783755 8.401268890575567
Sn 9.22811006758583 7.4758034259641475 12.474895825756978
Sn 7.1933296159207085 7.524456729980856 10.27379881549665
Sn 7.465001110574745 5.257905626939788 8.334653241121806
