25
Energy = -87.85888338 eV
Sn 13.876874866053067 8.11461842951452 11.28426935081013
Sn 11.340411416481972 7.124086256579384 12.672847918246104
Sn 15.702692921917448 11.347472319721163 12.073042912826429
Sn 15.944536076896211 9.886316869563688 9.542645998875162
Sn 15.169497324045393 11.453957442948466 14.970340028062168
Sn 10.311700842094146 9.342673066813525 14.772727370604072
Sn 12.833920152500427 10.85235862287566 10.46426139988284
Sn 9.02008802495616 8.811308517559237 12.026442941480305
Sn 13.105582566093979 9.678076301989632 13.7603612145822
Sn 13.0684719190107 13.378699297773128 14.168341568882317
Sn 10.861165606161036 14.253461463292009 16.123440970591968
Sn 9.67471508585361 11.072970541599663 10.11348453642388
Sn 10.931929230160057 11.757618518892437 12.901758445225319
Sn 8.850558806587609 12.144375754868225 15.166299719215901
Sn 11.118193110392317 8.245124417460387 9.83598788794672
Sn 13.908044508012031 13.734265307372418 11.31635646811046
Sn 11.75187862528737 16.21021640359195 13.926519889723572
Sn 11.773983772357383 13.416954097622167 8.987300925516484
Sn 14.468663617887401 11.987566740078556 7.8624825228492075
Sn 16.600488332154953 13.15885317066693 9.790347730689533
Sn 8.043148438189341 12.81128139371496 12.336490248563434
Sn 8.830105928362181 15.307784618946359 14.261216292818142
Sn 10.573462298368046 14.838755510629449 11.540293425156584
Sn 14.465412508331045 14.913510881278548 8.64360591114392
Sn 7.816807559360314 15.66923608425523 11.479459818839189
