25
Energy = -86.98263184 eV
Sn 15.603333112528667 8.309655744115108 8.27960785225731
Sn 12.510738640644137 8.828031357588136 8.71897096499587
Sn 12.787317416630405 14.424914016206131 8.432985247873725
Sn 15.620197109423758 13.581014350311714 8.92164893570839
Sn 11.24838659540403 12.731693429618558 10.126397493779896
Sn 14.727877793569002 10.829502883462181 9.216642248891802
Sn 13.831714787160012 6.32744750895475 9.509444044420238
Sn 14.255132470935596 14.747702440093567 11.302231625586934
Sn 8.811894457204932 14.196579367330576 11.410681030811876
Sn 8.871563832803897 11.062664905204455 10.754112427047888
Sn 11.32599803807288 15.97433772822409 10.566528047275533
Sn 14.750898100311716 8.555956019465464 11.249047612416476
Sn 12.172553981379428 10.192163479918525 11.466042683833626
Sn 13.145806152178274 16.925451502246872 12.895640340796975
Sn 13.456747253644231 12.434412894298848 13.018628285727443
Sn 9.910834815297624 9.423078705333536 13.226523924187731
Sn 11.014659762150984 14.228741523152602 13.477796817049434
Sn 8.325998450731676 12.051265354835849 13.600577472360294
Sn 14.696039880875713 15.051332376621588 15.137577372730881
Sn 11.768093155457345 16.229073439137363 15.631733373756106
Sn 11.18424318502766 11.472170341929285 14.861395278388429
Sn 14.412628557219296 12.056694833375825 15.829487967489932
Sn 10.06190766375369 13.911709675584618 16.60679140794975
Sn 13.09303853980561 14.352491507077257 17.616282810858195
Sn 11.89858820542229 11.588106573546352 17.629416691438156
