28
Energy = -96.76871985 eV
Sn 12.499218783503034 8.680788660588314 7.407573216587743
Sn 9.566003910303817 11.458495086193407 8.489851510400273
Sn 15.008165755694764 14.833343823588729 10.95384950658625
Sn 9.105629066288754 12.920643289938916 12.239191442540575
Sn 15.283384492139707 9.682445585856243 13.443126720906701
Sn 11.873255704751887 10.165401969383595 4.9018927874906275
Sn 7.407987182355247 10.815878221543516 15.483857195629882
Sn 9.978949114854498 10.18971532590914 11.514479059091178
Sn 12.954709232488495 8.794616026453323 11.648680468143441
Sn 11.212925673867058 14.232378091964263 8.890279322972656
Sn 14.042683899685848 14.213026408524533 8.0897085829421
Sn 9.403765092424008 9.429625908450078 6.407685029447189
Sn 15.555236311374077 12.077267054751617 11.578039242002365
Sn 10.034926991747362 8.289199225147993 9.091137738124806
Sn 8.31640537207721 13.839913060331812 9.53437103922832
Sn 12.482649436297502 11.817675932708813 7.276608183260377
Sn 12.51552037320763 12.339159054175918 10.75631720926088
Sn 8.898120666110374 8.520434224630293 14.083100655049465
Sn 6.997205027480499 10.217649703008066 12.368487231939564
Sn 6.419754175413865 12.871926788811736 13.534652508970828
Sn 14.273909865369518 10.193345667595892 9.378507897043264
Sn 10.538700658576262 7.118839421447602 11.910944844735143
Sn 10.439722134966441 10.53173656643785 15.888250527662256
Sn 12.470651245012592 10.965145780019313 13.730583968091725
Sn 13.061071417169064 14.073179734987628 13.128547821014338
Sn 15.033053145470003 12.218135842307912 14.939392309531778
Sn 12.290692595890407 13.142123438597274 15.939033238771065
Sn 9.173890004082145 13.359920495694464 15.183972431838859
