23
Energy = -79.87133765 eV
Sn 17.633462737794108 12.225005271685776 15.518928128503202
Sn 12.480984325283062 13.538430094426644 13.725976363340099
Sn 14.946744518716498 11.890935858786076 19.346509689871564
Sn 19.445476539219015 14.270492054649687 11.249499752355426
Sn 19.66441590746136 17.28004932497478 11.222856573942204
Sn 14.97502644216974 14.447325931821535 15.220324064356578
Sn 18.70225067783182 16.200972525372148 13.718281413516506
Sn 16.621215086590382 13.991423475644376 17.780016401053082
Sn 9.076433560932852 15.827186990600387 15.838892925288093
Sn 19.90867662672994 13.568654726106255 14.17773226000549
Sn 9.464785688962273 16.378026515499002 12.860143962329893
Sn 11.135169724576077 14.411643095206845 11.248076360940905
Sn 9.245600469673926 13.453746993921229 13.627224361454388
Sn 15.732909488437913 16.89636397973048 13.719520311549147
Sn 16.874042579164687 16.147990932714286 10.956816880834175
Sn 10.809404065443779 13.295952657848538 16.240287415938244
Sn 17.5123414192221 11.042435851595043 18.20667432471521
Sn 16.82354393805024 13.728705009488086 12.739589467758496
Sn 10.748499206885857 18.32259253767865 14.62912547756756
Sn 12.152192790226412 15.982687205847487 15.711545235866478
Sn 14.804166960219696 11.534095145988305 16.41391281164899
Sn 13.360862573002285 14.212133925151617 17.98477685482473
Sn 12.627064072592471 16.632050448259967 12.718775978196406
