23
Energy = -79.32340087 eV
Sn 19.428646601001752 14.839432877051173 12.359145425907343
Sn 18.23329961173873 12.553760482597498 13.802822740608816
Sn 16.996474460498618 13.83194940233775 11.097858329414413
Sn 16.7264360583817 15.603886043549544 13.592000436199614
Sn 15.01089504298483 11.780590239349662 9.87784560768376
Sn 15.6567529155578 13.263307300674569 15.191447750380483
Sn 14.020791326378486 14.565242348934042 8.895956101225075
Sn 16.178540112461686 10.753878451550385 12.481819974933817
Sn 11.94458395887204 12.242188633487697 10.106226854724003
Sn 14.296688248299253 15.689673841506341 11.762497440158729
Sn 11.37046650715775 14.509704286718824 12.485828124413938
Sn 14.226029760875951 15.84480943202541 16.40754729639559
Sn 11.199052843700153 15.059500007839471 9.592168112591082
Sn 13.839470309256031 10.765581721411529 14.865625059401811
Sn 13.691328437392645 12.801944329093011 17.609499906217106
Sn 13.870509529168702 17.571889351422165 18.727371025220656
Sn 11.444981011926988 17.45324515889046 16.985974876619384
Sn 13.913889864956678 12.797581009873442 12.619183939165424
Sn 11.466428781862382 14.679022113335213 16.183180002865285
Sn 12.293455692327742 15.143021063480269 19.053196268007902
Sn 9.47938049471768 13.252648390247593 14.472721489432207
Sn 11.189881844637663 11.510065249955641 16.339571649245087
Sn 11.29076938022016 11.212494975674215 13.076666446603726
