27
Energy = -93.35898237 eV
Sn 15.735051761738895 16.44040266973591 15.439675894175252
Sn 15.018858933075208 11.619984103811182 15.960178004244069
Sn 15.569434996567221 19.29568252856339 15.492395725672825
Sn 12.655377323033358 10.121280793724708 17.053775094574913
Sn 12.84005229733142 17.83634341364154 15.437077900007639
Sn 13.411613503281599 20.112698999170473 13.577677044350457
Sn 14.677847868913226 8.477159363165935 15.359946023870414
Sn 15.699097323473739 13.664390736442417 13.84652508126296
Sn 16.234119687375994 10.25946066152417 13.412816207108369
Sn 11.600989450806363 8.493731637897454 14.703758117284726
Sn 14.909664792588902 17.725056438387963 12.839642239584903
Sn 13.62616851705922 8.859074039708588 12.415282723453462
Sn 14.296532275641193 14.793300729236169 11.19207144044937
Sn 10.766130652318704 13.840524828366803 15.492464138514167
Sn 13.08766482394667 15.195764575891593 14.113721458184262
Sn 12.479486427800603 11.536008096507764 14.286160867131342
Sn 14.94380005763656 11.624241055656173 11.022996146197947
Sn 9.340028713695697 11.135477425023236 14.65505034857149
Sn 12.450340399909429 10.23101667191421 9.491631760203916
Sn 8.195038170236417 13.993832394357128 13.998603325938864
Sn 12.039210550695637 12.623654928118423 11.425071994527592
Sn 10.454387139462513 9.613481497296355 11.993590311743596
Sn 16.000357887086437 13.666920866398868 8.99689949720353
Sn 10.461339572815668 15.16360722408238 12.472100452368911
Sn 15.014213952034664 10.965522043733747 8.105372036644251
Sn 9.021916799570716 12.226028212123408 11.687330462348616
Sn 12.966962817250732 13.330025026565831 8.492325743664667
