22
Energy = -77.36678573 eV
Sn 17.79118900860014 12.745556095227425 14.893084408534781
Sn 18.06746787810599 14.896319553278184 12.674304025790422
Sn 18.588788186322894 13.65261619513625 10.010329435678878
Sn 17.333400033347797 11.906479400432962 11.999274811232171
Sn 16.367876643409687 15.437025223988284 15.166528993720243
Sn 15.561635109819473 16.68182140541703 12.37852477850225
Sn 15.768615034106904 14.386799578974477 10.40963354836244
Sn 14.362390074141974 12.343608025522974 12.035724839697595
Sn 14.832680729962027 12.54628427238168 15.008894045311177
Sn 12.148487435636339 10.441963577982822 12.043872650238491
Sn 10.764306780901112 11.255993279387159 14.521510504516447
Sn 10.535642368876493 11.757751276695156 9.635345827292351
Sn 8.258416435883603 9.906106539267467 13.58888795286564
Sn 9.671753803987745 9.130874105297414 10.890522817736773
Sn 13.505123130517541 14.90291098002577 16.51836573443174
Sn 11.154592170025284 13.337328428447764 12.277864374959732
Sn 13.408012586235387 14.987482059048679 13.508417404321545
Sn 12.457014622819266 12.050800721114715 16.861880562766107
Sn 7.672307038236652 11.374053655004351 10.914519413357802
Sn 10.694388377077756 14.32598123497995 15.317748615970945
Sn 8.176202095533293 12.92223196433106 13.632357493827046
Sn 8.768457500781674 14.151482087974996 10.784537937397072
