25
Energy = -86.87928821 eV
Sn 12.645147628006908 10.993032278121639 7.397879863465884
Sn 10.43365979488052 13.05500536445147 6.650445913285481
Sn 15.235283140451235 12.432273910415175 8.212941154823833
Sn 8.928999643658452 13.377259589241223 9.247987006101152
Sn 7.7017202198942805 8.384696794921096 9.719657155188358
Sn 9.222704536399158 10.562999094372515 8.087683513634698
Sn 12.936289811556255 14.175086022401356 7.8082591294539485
Sn 10.800237764260093 8.204975826258485 9.22518202647672
Sn 16.126862855172604 11.953634099757386 11.038831371719471
Sn 6.934980736554453 11.380624580032377 10.220337822795207
Sn 11.839353404301159 13.438249503534598 10.492045927851882
Sn 9.324501150916328 7.1546761587863505 11.87215186412046
Sn 13.335088860790243 10.826352463912226 10.338721253907348
Sn 13.874252201903358 12.85209860174882 12.842173999849656
Sn 9.910058215625353 10.4732867717125 11.300046328411078
Sn 7.885456521103419 12.039974924325195 13.05353986758392
Sn 12.135434534054784 15.319363296770689 12.98931436731673
Sn 12.52066415353002 8.024121011159721 11.807135407203008
Sn 10.870608707740406 12.75754768932946 13.959097118101273
Sn 9.313664175295626 14.576364470169905 11.989570165564537
Sn 15.07905630668609 9.462944948273856 12.516810529867211
Sn 8.178991394850673 9.133840905485348 13.917979551469028
Sn 10.965655911625465 8.011882333619248 14.438305776385642
Sn 10.288102702026745 10.564500131505772 15.866682099601086
Sn 13.07763926314018 10.409622864117747 14.571634420246347
