22
Energy = -76.07172924 eV
Sn 11.53770816341828 4.652873537479646 8.725006850280042
Sn 8.711750114598258 8.80276773930165 6.1022348753074125
Sn 13.943621192661261 10.755305300715555 6.603720198447175
Sn 10.349190860208267 7.004855801936999 7.657641940960138
Sn 7.165695166963538 6.94912187338729 8.247594993181103
Sn 10.985975028305841 11.191208966272507 6.441352802958011
Sn 8.98577789411443 5.410460329726262 10.102431729905625
Sn 12.520708122897544 9.551628213825655 8.78767619385097
Sn 11.956903159315647 7.094808978666196 10.399077292194184
Sn 7.697767877243323 10.133641629718069 8.518229547244765
Sn 13.264425449247636 12.831844632718157 8.614794569504001
Sn 10.30598677698319 11.620047939850275 9.320500974790878
Sn 9.070901947780628 8.471651391659133 10.54223571054333
Sn 5.5376200786064915 11.665736183290356 9.635190304335065
Sn 8.148382877239081 13.351693889941119 10.558272743141687
Sn 5.951086788232096 8.80174125101857 10.81005039347829
Sn 12.658477191980035 11.057461801657054 11.406514696507866
Sn 9.669276339089057 11.711805641322517 12.674950392724144
Sn 11.031431696285912 8.869954555589404 12.904230367799403
Sn 11.725157171828675 13.905370425114896 10.834957146228279
Sn 7.883877703009255 8.994392152741495 13.309501517044708
Sn 6.535112465744727 11.581630007776331 12.440869422585084
