25
Energy = -87.62684534 eV
Sn 12.85403030341827 13.253901916464498 9.61114754311859
Sn 12.469669043130663 10.930059770971083 11.442136851391817
Sn 15.586998700403436 13.883975572785491 10.737311296878188
Sn 12.868709977227095 14.583312860427887 12.4774380680692
Sn 11.119091696020488 15.765165935080056 10.09795835451697
Sn 10.898428406751394 8.456121918251174 11.537651078578408
Sn 15.390451727746179 16.47977924187915 12.134909348466076
Sn 10.540228655608738 10.448205978567206 13.841992632519634
Sn 9.913525645905853 13.098332473254455 11.062129252947662
Sn 12.61559640449586 17.76479026980944 12.072290279894021
Sn 17.552114416674822 12.274343425957426 12.249372550067907
Sn 15.290419088990028 10.378684184178393 12.283307621732973
Sn 11.96313958944605 16.875757115944257 15.137558770552609
Sn 12.00297918569188 7.611882183169061 14.326310561252125
Sn 13.89879653803471 7.7869561612356595 11.984439618771733
Sn 14.424154971425033 18.418836987406117 14.593092377906157
Sn 9.810575420152464 15.865647062456343 12.868010553852749
Sn 17.041001244856968 16.8468977328194 14.57918167264184
Sn 11.46965284352536 13.889362208140646 15.055120192053934
Sn 13.537319728790575 11.69074536776276 14.35851728403278
Sn 8.88222018940198 13.000044839512922 13.878727045191447
Sn 14.779796717488344 8.798806162790228 14.866278031581643
Sn 15.857537383324543 13.931016387236433 14.009833021357414
Sn 14.662431397754434 15.709284540646577 16.13661149906966
Sn 12.222674849441889 9.909633828960118 16.310218619261878
