29
Energy = -101.48072715 eV
Sn 12.160934550909772 6.9594499289328615 11.619225172668301
Sn 11.567710538135955 7.216417899199475 8.572719156662139
Sn 6.882389241671858 13.297856075067463 13.53755303423154
Sn 10.639107304419458 9.69240272794677 10.272041462390597
Sn 13.4393645516803 12.473745819593963 13.609332326767113
Sn 14.831265536855234 8.449465543438706 12.01225807926985
Sn 9.849913460940378 6.0107147019273555 13.165409164835228
Sn 12.801398024231172 9.967356639821798 8.19325445335072
Sn 9.09956248599307 11.94336189117023 5.7674322187476355
Sn 7.206279236542438 14.421588355951311 10.75390741542215
Sn 9.21482111835687 15.4111631724046 12.931505769873644
Sn 8.346046769798997 10.80495780377806 14.550026127409895
Sn 8.34634163291671 10.060276251030512 8.432789429156403
Sn 10.333920106011858 8.581130677897557 14.756370611416635
Sn 8.919509654009008 7.016909453428562 10.285784189754528
Sn 15.557340499629781 9.31547982520037 9.167809824991865
Sn 12.133099610055305 11.854147113136227 5.929994864898513
Sn 12.217033068679324 9.838294169026366 12.786337968555845
Sn 10.441450898435795 13.004275607714572 14.503389840051172
Sn 10.67797863825297 14.431042484511421 6.792868652745604
Sn 9.50790218974025 12.313219027148094 11.71440662815896
Sn 10.346869867467829 9.228455689113263 6.20062841096004
Sn 7.799925384509701 8.296935005920167 12.813909122337904
Sn 11.746825744358887 12.864481847358975 9.160345943245689
Sn 8.735914741054797 13.11248923648198 8.609318180366246
Sn 14.113518570119613 11.390128869567118 10.842403619402322
Sn 14.387537422705131 6.505417823359846 9.652710585251548
Sn 11.795485928179692 14.31371691472025 11.820462372782183
Sn 6.942030514130342 10.973313979165201 11.381983516587274
