26
Energy = -90.82488983 eV
Sn 11.945697441779773 6.665619689000325 7.018655631428101
Sn 12.222119262666979 9.189298114420767 8.418168799322308
Sn 7.705361948893597 13.40617127611295 13.801088652555638
Sn 10.230549874454779 11.245426301460597 8.167098015296013
Sn 6.92440412367033 13.351943231334534 10.872389523145213
Sn 8.310686772363102 10.497463862349626 14.924057005139533
Sn 10.271517351425187 10.04885309614077 12.445779982517745
Sn 11.618671625884064 13.71336925253558 7.29773404619653
Sn 7.6358489282124875 9.64324612742197 7.344639745638746
Sn 7.6337038586132255 7.495139507588677 9.781180106165468
Sn 13.531815682780843 12.878020717422878 13.295266035584717
Sn 13.470561390711937 10.980488131701517 10.89436237046236
Sn 7.753495570861754 8.460335641140356 12.748871026742878
Sn 8.906264673503687 6.783843361867303 7.215219961687705
Sn 10.651548085685741 12.450389959168861 14.386145901366106
Sn 12.500591248859152 13.743179147959362 10.346756848889934
Sn 15.13626039152164 10.30440960413927 13.192401556472369
Sn 7.914301031083273 10.597077582272641 10.333753296553558
Sn 10.308828051565511 9.100477408412308 5.800360925000257
Sn 12.52004057412886 9.91015364860291 14.637914400526867
Sn 6.009504423401731 11.0250246841675 12.804759161461403
Sn 12.577813065863575 8.305543870187158 11.909478619940002
Sn 10.630246605984631 6.605636627202696 9.849689448533745
Sn 12.338186359119726 11.38214057950346 5.611368246645118
Sn 14.035019946535646 11.727904192065825 8.045093159979656
Sn 9.842204125393357 12.89435189989121 11.385505451291476
