23
Energy = -79.36434799 eV
Sn 7.6969841471073055 8.118952330471998 11.503375669778338
Sn 6.774040822688211 10.511119451660482 9.714588331262938
Sn 15.285894473088858 10.352580585092646 10.179898295426792
Sn 11.1520037683442 7.954537032438291 10.246636931611823
Sn 9.661441979042932 10.42667515350702 11.870404775536633
Sn 13.992759134323018 10.41980258618689 7.297635241959058
Sn 9.2655136766347 12.549488223854558 9.691434494899864
Sn 7.5259260060288735 13.92633356368271 13.817598663628026
Sn 11.161432691705688 8.886481598869441 6.917473393011143
Sn 13.554150257919181 7.5221609187492815 8.574289482487014
Sn 13.588037584767234 11.821067365262598 12.363659924635733
Sn 10.414696028964913 7.694972949621081 13.123664868198043
Sn 8.639761875936662 8.038334099234842 8.54762069689022
Sn 9.066129953449098 11.430782593859483 14.725757967852044
Sn 12.299046729450902 13.799957266349914 10.485835098223264
Sn 6.59908977485125 10.819803637702167 12.845191830906904
Sn 10.104885037873935 13.603715634697926 12.543504594428336
Sn 12.26378865660266 10.620642835653202 9.966369730003002
Sn 11.596450195273336 12.369950756941266 7.60522716914429
Sn 6.754219202173794 13.406457754719176 10.975873579735623
Sn 8.885327301014401 10.937101981282648 7.158955040193212
Sn 11.773710846907605 10.153767448347875 14.192540013770973
Sn 16.227302321374456 8.447866251431972 8.17945857299538
