27
Energy = -94.32350763 eV
Sn 11.916993801037158 15.008122284943731 8.779193836691732
Sn 14.066321203607993 13.214688289299852 7.802658599381484
Sn 11.302033333047232 11.940903010664421 8.272131408750326
Sn 11.90803407282644 16.2677254889908 11.913999367357174
Sn 14.689019846074256 14.948899747471424 10.39553601985669
Sn 9.352683654384746 16.021431021977694 10.193202487875018
Sn 10.986764855465774 13.417592568398392 11.25596440486939
Sn 15.965313820502995 11.983478841681027 9.87988631351078
Sn 8.879724246601992 15.608785716661465 13.199835793828347
Sn 14.168505716732158 12.89783254493959 12.448082693447686
Sn 12.734542523496566 10.692515377975283 11.043412120359728
Sn 17.900480847735015 10.215911983522155 14.599653021990862
Sn 7.748971792818176 13.43059936928312 10.920106886455905
Sn 13.816214515179238 10.204966953480586 8.374350271573256
Sn 9.354979624968925 10.830955111997872 10.391301435504104
Sn 15.92962533598504 12.361122467060296 14.850370832537902
Sn 15.858295318549862 10.128021676093358 12.427067085113949
Sn 11.36071677785406 16.186848497828365 14.781586003562309
Sn 15.242895991706193 9.251328306469407 15.433119581364737
Sn 10.563763227998338 9.459998614751122 12.882930506641957
Sn 9.098071848422178 12.223271639573232 13.3286366774957
Sn 13.628729715407697 8.18270239334554 12.98835857943145
Sn 11.998912684278524 12.341041389946596 14.419380793321862
Sn 12.009411412721567 14.219685251935372 16.828729016375267
Sn 13.880205385535396 11.65785344100639 16.957607385056914
Sn 12.27034478059961 9.369446236013669 15.56674803315091
Sn 9.211361026075712 13.892907164243526 15.786816131502
