28
Energy = -97.12712615 eV
Sn 6.901059457665623 10.473261179584279 10.095559377655169
Sn 13.104921193783934 12.050186730027946 7.904670612176771
Sn 9.627617058808017 10.6286432448248 14.347023255213784
Sn 13.68260636704647 8.918594502929402 7.757064957224559
Sn 8.468334669968545 7.769986923463009 13.596829429143492
Sn 5.522967830927835 8.293485479056827 12.187886771907815
Sn 11.559236560689653 14.622754017468239 9.547766747745534
Sn 13.494889780921229 9.400710482953436 10.664764176732241
Sn 12.343784564505638 14.621509847992636 6.593232991551457
Sn 8.01492762194088 7.729858868235648 10.65283780702307
Sn 13.133634420060924 6.158996977974324 7.103933584216204
Sn 12.25602414002223 6.351733450350276 9.88968875543692
Sn 11.80776177772883 7.740396687409771 12.60151454958515
Sn 6.60357648936361 10.002177439502733 14.440620536043665
Sn 6.84027515176609 14.235520155483005 7.9124600145743536
Sn 15.924877100333868 10.805051906742733 11.75892353755244
Sn 7.820081502229004 11.314941533229177 7.349049196405408
Sn 14.551092575258375 8.893312844040421 13.526187875192303
Sn 10.758395431822773 8.007796046824478 7.5302881689831835
Sn 7.942516391691133 12.3498703288389 12.520099664106523
Sn 13.62208473920496 12.543609996150657 10.724896476484933
Sn 9.57326171954994 14.116889580351554 6.927763683085177
Sn 12.571163788465366 11.135408352258668 13.07171585613919
Sn 9.463173321889618 5.843669577121498 8.927649886401722
Sn 10.517757684209666 10.865306613540744 8.558258055071
Sn 9.800819374923414 10.020626405283902 11.335682958717381
Sn 5.076561365518382 11.390882008313994 12.216551875813563
Sn 8.816009676367157 13.413451451898109 9.856049706842882
