26
Energy = -90.8732419 eV
Sn 13.229966701995808 9.035488042455768 8.131022968146318
Sn 10.145262040801038 8.82878698362716 8.055173789921186
Sn 14.363279864115786 11.193852193796497 9.849900999686337
Sn 11.733550327703774 11.665388283410392 8.412337573309879
Sn 12.911866336516473 14.225881207987353 10.715776309939153
Sn 12.01360300184171 9.07527627646927 10.861187088695656
Sn 8.774658584745303 11.576381707915353 7.760059114804789
Sn 16.81748291517195 16.52499210996311 11.840643501065934
Sn 9.820893574806856 13.5361994036732 9.838863124711468
Sn 15.70167083651745 13.678776488596833 11.937524565039645
Sn 10.543349212081655 11.179946040668348 14.682339119220474
Sn 16.25621919992597 18.268719359754538 14.124138089372318
Sn 10.910339019081267 13.861013134968836 12.925991067842503
Sn 8.41852777098408 12.089380619348375 12.78382628410562
Sn 16.81344178332882 15.244474087274934 14.597041986954054
Sn 13.107230254156214 9.660961543789588 15.278367907644146
Sn 9.367955849953857 10.513980834815492 10.498068572274171
Sn 14.022526620213334 16.394230412402862 13.058557466989358
Sn 11.722682041235181 11.43703611442397 17.435681410114295
Sn 12.88265871065409 11.471452471202234 12.556318810781883
Sn 10.88788231956947 14.074929384341152 15.934617668849556
Sn 15.496921057499106 11.377603382759917 14.0840926664656
Sn 14.627879467707086 16.74362714370134 16.11349874910654
Sn 14.7906509211234 11.598048909819358 17.071748301797495
Sn 13.259039596472249 14.187018504417091 17.844399627044552
Sn 13.901125016342723 13.866772204145736 14.899705585156871
