21
Energy = -72.35353813 eV
Sn 13.189875921593789 16.19227159123751 9.653968071964961
Sn 15.309805134402186 10.042750034373038 11.632543914348298
Sn 14.047698008259054 14.282925682500057 11.771042921735376
Sn 16.6414137155277 12.722138299354796 12.008644000532744
Sn 13.495729476009181 7.505213322726862 11.894384083726877
Sn 15.063958129394443 8.443146796053128 14.32622355315544
Sn 11.606544444421147 13.285940963724533 9.86927861281502
Sn 13.069349757111338 16.99028425674965 12.697791045739097
Sn 15.30820741240799 11.539352855259688 14.400608372361875
Sn 12.831668369902346 10.455919786878017 9.89519667658512
Sn 10.590898916224173 15.61635226340128 8.209781434724487
Sn 11.897613973592989 8.110395878285548 14.410600117392079
Sn 10.674389589007735 17.524587835547088 10.90577887270931
Sn 9.237413604276115 12.754026016600625 11.677908571682325
Sn 12.808627573693217 11.708005714934197 12.771978136437847
Sn 13.174244120950357 10.355803398982813 16.090423758296456
Sn 10.896022354760792 9.294887986440383 11.7688751217589
Sn 8.687526712889827 15.365071836838952 10.519990508627837
Sn 10.945985262819724 14.900540523519627 12.911389912030765
Sn 8.314812623493355 10.178462178935385 12.796428048748973
Sn 10.562394967673447 11.057161509414852 14.59014919034088
