25
Energy = -87.55432106 eV
Sn 12.59080581943654 13.932442480828888 7.681599563023177
Sn 12.970238805417994 15.278189453136756 10.544833616654167
Sn 15.058455906588229 13.038773625868133 9.234804173150188
Sn 7.988580423768427 13.157741377981733 10.214488633676694
Sn 10.238277483298656 15.309905930566986 8.963199728669762
Sn 11.56287909981163 11.918981631975777 14.307148956520987
Sn 16.157650486166336 12.662113953176746 14.233777865292042
Sn 13.56666210047668 14.304653488769606 14.4754060242916
Sn 12.467494331080049 10.956925448046091 8.38740854236998
Sn 10.412598995376223 14.212189420876017 11.887242719881149
Sn 9.880350455046024 12.438820492063648 7.849749272518874
Sn 16.47473839541147 11.331349440808957 11.56702765740077
Sn 12.421143156621277 7.658519031887545 13.031812145974166
Sn 12.421272447511443 9.259559903038403 15.588654582688672
Sn 13.576611199043866 9.76740816689447 11.410175785372909
Sn 7.4813847935426345 10.720900975771315 12.147381319703443
Sn 10.053668165570075 9.483353675930989 13.118417413430857
Sn 8.566416936711368 11.483285556547076 15.08748536633523
Sn 15.263395231381562 9.613623906767806 14.173614737769782
Sn 14.107976366446955 11.636904510403594 16.2394351937172
Sn 15.268790790350286 9.946367127492822 9.019339510709276
Sn 7.394108011793171 13.555678240258956 13.193512253520238
Sn 10.620651268406972 11.425168903799541 10.909418850882368
Sn 13.65567943736687 12.645645439782383 12.021344083730801
Sn 9.908693937618624 14.370021861568832 14.821246046959612
