25
Energy = -87.48592164 eV
Sn 10.45740591744354 11.462000841641586 7.622640208169646
Sn 13.482825520829614 12.365624469392646 7.868756301092814
Sn 12.690335660321745 9.381414187251238 8.254352595793108
Sn 8.878328132604388 13.414677480692218 9.870841464060351
Sn 15.350109298520799 10.274420346761943 9.544577604290113
Sn 11.828462728049443 11.159175803901547 10.740510597857368
Sn 11.095897399144656 14.478090324425311 7.968315033575057
Sn 10.625858268526315 15.879144129385658 10.677697323146893
Sn 8.883364193867447 10.278389080509855 9.909427783251124
Sn 15.794379752967076 13.30718095845371 9.977743577804784
Sn 13.700399265598076 8.784450922487515 11.607709027803432
Sn 12.912505914536315 13.982904543089273 10.552896645277116
Sn 10.89805721485338 8.0337069571536 10.603592009989281
Sn 15.095737484560138 14.303744944136144 12.751361281294182
Sn 10.204736751311987 9.280054079024241 13.269761083127532
Sn 15.485284028748 11.328674663587945 12.563247322924713
Sn 12.045444545061281 15.1885260979732 13.456389323434436
Sn 8.118604236829805 11.56375708300381 12.712641721715938
Sn 13.133419717803283 9.98240690203181 14.422038909943998
Sn 10.833972559325987 12.292805664746684 13.993453701092273
Sn 8.677440177600102 10.75446868255651 15.732830065916794
Sn 8.987984414425553 14.5256188414554 12.891760507516063
Sn 13.665249610664189 12.883828313208776 15.056850448300262
Sn 11.02121574607997 8.646903270982802 16.094848061761546
Sn 11.230515795615924 11.545565747434908 16.953291736149183
