26
Energy = -90.12194451 eV
Sn 14.853674118453947 12.539029451670118 11.779816521849042
Sn 9.608601667915353 7.642799296536932 11.357477202900387
Sn 9.277755706895366 8.217776667513563 7.862655193553275
Sn 13.180286077862753 6.796336527454482 13.329754411454232
Sn 10.139303873237965 10.88154750108573 8.778585430361781
Sn 11.664442494361209 9.49683647037599 12.97797139770051
Sn 12.202551478559357 8.358294278544584 7.2234366342354726
Sn 13.212082261612533 10.666252296570764 9.935701855620726
Sn 8.539511228017858 10.345303071189978 11.505191028895933
Sn 8.452596209109965 13.248558610927246 11.722205800377628
Sn 7.845769789968883 8.591928020472858 13.9647496161104
Sn 10.498039239278762 10.226566049256162 5.644544375212666
Sn 8.36957264849583 13.375552113145591 7.637437740493663
Sn 12.514040989267572 7.808771471059479 10.381628038553012
Sn 12.945592092836813 14.173556435938742 13.450944849025317
Sn 12.978037851249226 11.55497812249317 7.000435440059099
Sn 10.409467299077754 7.147273758185951 14.346892221226192
Sn 7.6386362484072645 10.612924125230949 6.629360187085659
Sn 14.707045478263822 9.363273102353897 12.358937007305467
Sn 8.095966280403738 11.632578528339243 14.354645417036823
Sn 6.623565263217596 14.428360730420728 9.731209532430865
Sn 6.571427419864439 11.471160680081361 9.56023268050842
Sn 14.103240778709662 11.466742082312434 14.548719214100087
Sn 11.498275297277972 12.831227410326333 11.243503107516736
Sn 11.0440868386365 12.030695509093741 14.278330287625034
Sn 11.232994932323665 13.612488330583789 8.302599412155773
