21
Energy = -72.82681183 eV
Sn 14.420750090931028 14.360294167161745 8.826121999837381
Sn 16.445022164897907 12.917887262959757 11.041952228587848
Sn 17.58738553089841 14.095682959823112 8.123376070319564
Sn 15.944043244095809 16.530387855255803 7.64772982248786
Sn 13.80324547278557 11.816334138885502 10.247422621187678
Sn 19.10440089976833 14.050808393983653 10.630144539012464
Sn 11.76501917355302 14.316244539041382 10.323372395620986
Sn 14.282353902014744 14.85577873080482 11.982680993746957
Sn 16.98919096757742 16.10916114092839 10.40114737471601
Sn 12.233866963898338 9.49475971055602 12.683590753431647
Sn 10.461381327134532 11.443096087273458 11.170008438460284
Sn 12.682248752943206 12.473343659041209 13.172484150169693
Sn 9.918981771583725 14.02084397381968 12.987716319751598
Sn 11.41633348243038 10.3211643723614 15.489227049891813
Sn 11.349471132080003 13.553598287713912 15.639082187001387
Sn 9.186897539997195 9.378777104569462 13.342862033450844
Sn 10.84057030160324 8.953906110196234 18.061516953203533
Sn 7.719729052082762 11.887033083612945 12.334783173356842
Sn 8.703731234731721 11.971901179924153 15.129178744158247
Sn 10.143470170736117 11.818790892827137 17.94471379328727
Sn 8.446765619422724 9.25953136828004 16.422032483333794
