22
Energy = -76.69634542 eV
Sn 12.688603620595106 11.442147514505082 10.64406536107275
Sn 17.301500993886194 11.533407433140075 11.913654643990812
Sn 15.628568950503771 11.903238314320873 9.5007656480385
Sn 11.848127970971492 14.34149131798254 9.971271119374148
Sn 15.298709658605677 9.123246628034535 10.902775915073253
Sn 12.419779477046875 8.758924631777484 11.780471037419366
Sn 14.160365830649658 15.978777029438858 11.386434056908707
Sn 11.284210107559755 16.26489914979446 12.454296906011598
Sn 14.684574373155414 13.148305160176971 12.098581311621812
Sn 18.635660670604395 10.885355324356288 14.350064179518666
Sn 10.980170448668494 13.044968200526814 12.688760382577474
Sn 16.619739566848356 8.835975891238826 13.55694004247428
Sn 13.958859623332552 10.140944902922982 13.758466190730587
Sn 10.80557197224158 17.356127512799322 15.188601744488981
Sn 15.92034173615025 12.253911572917048 14.740412756049395
Sn 8.882194079590816 14.66218839863727 11.187717117957135
Sn 8.11176609848783 13.25086717649769 13.892188697030015
Sn 15.030285566110399 15.277353122624627 14.246263888451614
Sn 10.59898571739008 12.164447325194082 15.474925513104173
Sn 8.346132106279924 16.355368926654748 13.65781443108117
Sn 12.232705136103442 14.692048012629316 14.987656949073774
Sn 9.370939310429751 14.843273317559584 16.227128324423067
