21
Energy = -72.98281372 eV
Sn 8.16666749857509 10.057079372755277 6.3981804940412905
Sn 8.942152566274457 10.605010637502811 11.559877169503041
Sn 10.096531262089957 13.836728837248218 12.639253128547143
Sn 11.43759273881077 6.50923112102058 8.683948760779202
Sn 9.783501045399362 11.844924155503403 8.239151712124876
Sn 10.361203733334818 14.421424160276759 9.806565170246351
Sn 12.099484325044724 7.2371154340042825 11.787424148092827
Sn 7.685612214111452 13.068156016093559 10.657373394743022
Sn 13.08487446236144 8.706283447748067 7.028427618100325
Sn 10.200541574277718 7.8022819409216355 6.092757142488175
Sn 12.89382427962504 11.636978889837323 7.96735937842347
Sn 9.011271729391442 8.625236957312403 8.888222096884007
Sn 7.668680534877507 12.566904717731354 13.715527138725376
Sn 11.688412257571875 9.559353476977476 9.729972566959697
Sn 11.09445758600311 10.675982137885557 5.574071579447435
Sn 11.675056143605849 10.17964065807816 12.743891922302915
Sn 7.146444885895044 8.039429110407028 11.141254370261484
Sn 9.366616665155 5.9866171592014705 10.991734738080307
Sn 12.584759610718697 12.55765521137052 10.985005844873433
Sn 9.454334242106885 8.03363945194333 13.37778491895224
Sn 6.8826723607843565 9.737881194248349 13.786612338286192
