27
Energy = -94.33994184 eV
Sn 16.3399256517228 11.691661741782582 11.803586544137765
Sn 14.174417537312882 10.48997677436337 9.47668544635546
Sn 15.325877489757 13.29311798528899 8.802894671256402
Sn 15.02439965732112 10.458411896624062 14.629726933666639
Sn 16.472699911756646 14.776716598703299 11.240940567636676
Sn 13.60938809734935 13.043587420504043 11.449707489722396
Sn 15.162195601584799 8.852227847031639 12.00750066078669
Sn 12.297285055125373 10.127848405824716 16.144559050431557
Sn 11.282876479957913 11.059416604978876 10.551545665803951
Sn 13.638528371012093 15.56773825240565 9.608547669739997
Sn 12.525016473832132 8.107178527497654 10.557353395752493
Sn 15.839278647766506 13.742205973764765 14.119313037343476
Sn 13.135067815106659 12.846317347972057 15.70544262138018
Sn 10.931580155985479 14.190407615359504 9.998888352933621
Sn 14.243600484027693 16.370105613000035 12.595802757950606
Sn 9.780119111550455 12.17540737529816 8.117330455083097
Sn 9.80795784569271 9.008984372126875 14.873877134080804
Sn 12.680688941583707 8.145917747868909 13.730815147225147
Sn 13.950321166311669 15.630762911018639 15.591477873498356
Sn 10.393482794236093 11.624799384082142 13.383263269316972
Sn 9.876797961805446 8.378108187184461 11.894805058590453
Sn 11.935619626937411 14.522862001618375 13.461037050532557
Sn 7.816424029778976 13.983294881441081 9.733692911444415
Sn 9.341100792805445 15.400018291638364 12.165316087872142
Sn 7.525845286227977 9.978096740789985 13.083769414583953
Sn 7.601976171138446 12.974048894921204 12.635611362676622
Sn 8.044456079700472 10.918771978040674 10.234373117141562
