28
Energy = -98.01653661 eV
Sn 7.562132703390638 11.191851038620126 13.782583473001733
Sn 15.338580067457483 12.659141265741743 9.660550452266628
Sn 13.98143570729549 7.400924301369333 7.898315492183116
Sn 10.352260259538278 14.333891648271575 7.609198553290966
Sn 12.227081224980154 9.683708948500582 7.16487543139828
Sn 6.5210893057364085 11.347146769493563 8.636215990217632
Sn 6.975242211119139 6.413382578677569 13.562969241414239
Sn 9.777821523287548 13.16168733987969 13.16022473882525
Sn 14.635202107236998 10.493578780038451 11.789090853921644
Sn 15.165717729610284 9.978126245577375 8.647366762235018
Sn 9.88633334075493 6.248936911019329 12.752690282302105
Sn 10.157441938828558 10.212310249175315 12.431503500609967
Sn 9.089336762591056 9.519389767366524 7.219422800879785
Sn 7.861925731333646 5.993180400858904 10.560789724468911
Sn 12.712767923015212 12.911289412777581 12.293289685929702
Sn 7.299223916251249 12.882131465643818 11.149814602198584
Sn 8.382436123685178 12.342805463277344 6.456954028102839
Sn 11.956311546789205 8.168253925135843 13.581613168718471
Sn 8.955066873640712 8.431715171392144 14.797465465518945
Sn 12.646867790070162 14.494686933565209 9.698898107342831
Sn 12.894269980268199 8.189411197411061 10.5416964154788
Sn 7.113392734880782 8.826741638775607 11.885670205630639
Sn 9.507136641940301 14.907847361534985 10.548760147893493
Sn 9.810788703844722 8.439755090557304 10.06316743394097
Sn 13.354178967652354 12.554354605037334 7.154768483202419
Sn 9.450807821701714 11.897095959718502 9.32126518697197
Sn 12.32268278447235 11.270735831250677 9.825786023053922
Sn 6.805886086094748 8.319247995323831 8.720014287671916
