20
Energy = -69.33524078 eV
Sn 11.237428336402791 10.667158860848375 6.428104176447636
Sn 13.990196470919143 10.036658957846926 7.827981060776595
Sn 12.461437611083765 7.932738679428581 6.314046486655824
Sn 11.04654516612634 11.597651443234719 9.336622705412337
Sn 8.433490936526592 12.306328196054807 10.757455749177966
Sn 13.257434004521308 12.860783906543526 7.672168873907125
Sn 10.80912780342264 8.578102444975872 8.858603377044265
Sn 7.658160767260334 9.366867755384016 10.537141161694887
Sn 13.691398261741966 12.46005325637708 10.677004404519963
Sn 10.686815959211557 14.389541741756593 11.69526223007421
Sn 12.836578377735245 9.545856922289722 11.08130375603785
Sn 9.992717348260346 9.772235730299988 12.385589558515965
Sn 13.70047568584689 7.405918645210664 9.085801264718214
Sn 9.397909524732913 12.42588510716761 13.894254302440588
Sn 13.475887567915372 14.65815742437419 12.74166158136001
Sn 7.502610972571521 8.11168313082758 13.275767559897957
Sn 11.19438650841102 14.531518065669363 14.804806212946739
Sn 6.739975485675927 11.062436550643051 13.171756061313697
Sn 12.56830342958922 11.986786720424037 13.696178740432767
Sn 8.832254369900095 9.81677104849832 15.271625324481358
