29
Energy = -99.76090045 eV
Sn 15.452175366794037 9.535238670409546 9.628634509689547
Sn 14.629529244517997 9.464098174299787 6.713971860066643
Sn 14.211950045251674 12.179961546667354 8.22459650260839
Sn 14.147725316980909 11.785149864512722 11.33791299487108
Sn 12.82980598400736 14.39845450115358 10.327198942846787
Sn 13.438116461017072 8.257865684694638 11.459838542007644
Sn 12.360919566868086 8.370246754839886 8.752890223741485
Sn 12.03576950630117 7.888821743661029 5.7484976355346715
Sn 11.846396507647137 10.888727188416107 6.859632694930546
Sn 11.431488469613761 11.460815412159699 9.880060323800224
Sn 10.454896697931748 14.087140663578783 12.042205403664585
Sn 11.813140294508369 10.81959236681591 12.99246089229877
Sn 11.936812089659204 8.013018065192746 13.883090204951362
Sn 9.963164415336871 13.966127130218963 8.91453822338568
Sn 11.862270752701114 5.595991154738999 7.734290090672616
Sn 8.189516332618151 14.603926460703846 14.00044325290362
Sn 9.287902895892536 6.915676896294867 7.791971222723037
Sn 9.172521278657475 9.417487331361745 9.511838187669442
Sn 9.238169430667867 9.46757691266644 6.2526589602144025
Sn 7.839098420180504 11.710066394711065 7.871834894387055
Sn 9.338331765366624 6.624355001905201 13.61181944972264
Sn 8.832290446078625 11.772152246040562 13.461666129350382
Sn 7.795114598659102 13.097153261815627 10.83323694124582
Sn 7.683290248999723 7.835338143230788 11.573534862737585
Sn 7.865507361084727 9.15372439690791 14.327636478018707
Sn 6.554771128096852 7.047472640862185 9.017190308426022
Sn 5.810276944269051 13.261989408278998 12.84988561702064
Sn 6.079251924075789 9.940793766449842 9.563343330344184
Sn 5.615177973203813 10.116058375256188 12.567666938702112
