28
Energy = -96.98861324 eV
Sn 15.277114475720154 12.191810586050481 9.507965107692277
Sn 15.373502656386806 9.386696041065893 10.508574222236511
Sn 15.636861806703457 14.312321090013523 11.521960965364437
Sn 13.51243444077823 12.884473294227565 7.221127492618808
Sn 11.674213673084198 11.885326009200595 9.32526331282472
Sn 12.884333036350222 8.104649849141959 11.616343493247033
Sn 14.880878832043189 9.992792947601643 13.285386942750346
Sn 13.705340828358342 7.28707441063988 14.557603123179915
Sn 14.054364416719446 15.874015040188738 7.476592475006362
Sn 15.245782840894238 12.893748102209274 14.24086432530509
Sn 13.728015367172851 16.43609152882685 10.368210530005607
Sn 11.442832182523226 15.195352490397488 8.442548488824384
Sn 10.90417613564914 10.206242657137231 12.675423215487529
Sn 13.206115070848448 12.562595838355435 11.775583161049097
Sn 14.236088682903592 9.893770963270844 16.162647307482622
Sn 10.779153076383174 6.998978965790824 13.582930752412029
Sn 10.085785250105047 9.425401510658663 9.82562952919582
Sn 9.903562383090456 13.676894356735444 10.814989993213025
Sn 7.997601570422964 11.802841346897564 9.368100872028416
Sn 12.314890990350147 12.031931607771826 14.785754293343642
Sn 12.762960286951323 15.123926509143493 13.155544792926854
Sn 10.85765915416943 16.82642803512743 10.971347192819506
Sn 9.022760403121449 12.030550698205392 14.213254652462808
Sn 11.389804792033727 9.009779314962458 15.867523218999688
Sn 7.770200857219491 10.139084061319117 11.877729802378568
Sn 7.02705361874284 13.079766226917677 11.940601024291206
Sn 9.667657468446901 15.118174142349636 13.314932211261196
Sn 8.605309440647597 8.966843424645473 14.603346953954379
