24
Energy = -82.63828914 eV
Sn 13.441429732264352 9.594615144484841 11.634950244139157
Sn 14.306742016123334 12.577801290218847 11.738117648225687
Sn 10.837696594723019 13.249771641917421 14.725291031407766
Sn 8.851013655458885 9.591845351029221 9.468613274193146
Sn 9.783331788824327 7.775651605803418 14.603975723451695
Sn 7.059272205745753 12.000521301394825 10.021974680090038
Sn 11.676195748461868 14.38392248125317 11.790941965832575
Sn 12.95329425850287 13.097340291166729 9.041196589140274
Sn 8.835369722336178 7.618453653159147 11.754893522337978
Sn 10.750503608016206 14.08481098714666 6.870052506997769
Sn 10.59485975409644 5.597588969857711 10.501721933339622
Sn 10.609272413897822 10.13010468220873 12.638971163950119
Sn 11.951789256534838 7.122713588950153 12.602295277539502
Sn 9.985172119232244 12.646580638377872 9.479254737929724
Sn 10.721317011702114 10.419981928185273 15.749874824150844
Sn 8.786558886522688 8.60040327688309 6.542845261241704
Sn 9.003059535869419 12.620777126490177 12.385677698454884
Sn 7.881940660044116 13.23565110589222 7.364425490061407
Sn 13.66128860940007 14.060586073539984 14.222361232776766
Sn 11.015476346755046 7.49075540604 8.294538622420125
Sn 12.211552221632138 9.177337002768546 6.1683214650955644
Sn 11.927659652016267 10.237189425947447 9.117159551968438
Sn 13.257186390104891 11.032404508905362 14.375544674845615
Sn 10.125648800530248 11.218035025547692 6.4357407382156655
