29
Energy = -100.60511892 eV
Sn 13.792080244706717 13.098771017565042 8.738090061407666
Sn 11.064860532080539 6.974525924891768 9.58414454810532
Sn 8.47939602455271 11.894428117742816 8.184385053649532
Sn 11.6978045081684 14.330401666244008 10.873407033496433
Sn 9.521827322744384 8.359437532314692 11.837748132340689
Sn 10.907806303032102 9.382588677067712 14.620602297840975
Sn 9.141400429687206 8.857074627983652 8.2052518866021
Sn 12.164961362695125 12.688719827441377 14.278388548249241
Sn 11.179719896905892 15.735462335782264 13.508396034019226
Sn 12.415512369813552 10.387534216072087 10.79757725031596
Sn 15.666770406571423 10.731210456444254 9.97357294654681
Sn 14.311053712022566 10.321540152629522 7.210763909543056
Sn 14.661520810549483 9.88432640251651 12.777604723612647
Sn 11.410180030597392 10.964691127427097 8.10312114796465
Sn 14.2201494199483 12.853303825720023 11.896689180947325
Sn 12.020688793796289 8.250439902356291 6.868767103728066
Sn 13.78797602625503 16.21089740645288 11.732188881291172
Sn 10.739076194518825 11.805269392703623 16.96959799866896
Sn 7.20959777369258 12.504596747124165 13.297870156947246
Sn 12.637898086121238 7.58595492953904 12.075930526130833
Sn 8.381736547985366 10.737506236896516 15.430019261361693
Sn 10.830525768125773 14.069521310379441 8.047923057470085
Sn 13.38818573125013 10.434140207287134 15.757286068948126
Sn 13.227115533481271 17.524345975107963 14.190990460018767
Sn 10.048772599745563 11.489854265606523 12.488794330003397
Sn 8.768585786892064 13.626787615873537 10.677780361139398
Sn 14.097507356084037 7.974999064733846 9.278996597972425
Sn 7.6329866646434255 10.510177794632137 10.88385659053584
Sn 9.38138241519856 13.843374989697816 15.201803942530686
