24
Energy = -83.86032187 eV
Sn 12.724308374900838 13.33821225236079 7.144007883302307
Sn 10.759312457914442 11.503845844306253 8.631193176594758
Sn 12.44776748730826 14.03507045995413 10.066705379781713
Sn 13.536125037186267 10.438086430895478 7.4232645281101695
Sn 14.096312607001448 17.1794296443299 14.23025401525011
Sn 11.408330872954147 17.68754478169351 13.522051454342005
Sn 12.217615474816933 8.967870396842345 9.669541741522238
Sn 11.82191020583122 14.7822054363582 13.38041697543404
Sn 15.301718430551091 12.799336355576049 8.703959788805415
Sn 14.40527818896503 13.667358250352834 14.259721083477086
Sn 16.397572438163824 15.595467797394038 15.263275621970182
Sn 15.481065420900213 9.85780047944234 9.616682870300295
Sn 9.453659390358883 13.421717841289961 14.794959177721097
Sn 14.433575750691585 17.70779326596746 17.23012211987174
Sn 11.532970347326351 11.557580755338828 11.48579367144754
Sn 11.717905563436863 16.5998819282012 16.36600490230332
Sn 14.606379746283254 12.522970265557497 11.53973224858201
Sn 13.776069164434372 9.743379130241587 12.10103884467459
Sn 13.843100853501165 11.33881890930492 15.853470894599658
Sn 10.890000230346198 10.916766844961993 14.371692229598489
Sn 11.488481018160215 13.525316537299771 16.788477053967636
Sn 14.456985198384452 14.890880335839888 17.462383893786395
Sn 12.877759036716872 8.788810168290254 14.792179007425757
Sn 13.469231106294243 12.382586170943819 18.59388409199419
