22
Energy = -76.55915327 eV
Sn 13.192180664334934 12.495139887264344 10.283011890184975
Sn 13.051718959016018 9.902638396129174 12.128129767996828
Sn 13.66472178956638 9.662396059225415 8.997071287854107
Sn 11.571976816992626 14.314104421016442 8.485716584719965
Sn 13.36678300703661 12.10196548923243 7.14751014530551
Sn 12.1861994240241 7.175926292079329 7.759494381800047
Sn 10.599604254704598 10.445361942525887 10.239515511235107
Sn 11.978841312932126 7.246707005186961 10.929721069282355
Sn 10.75220920523481 8.776815425372599 13.805294183833642
Sn 11.138423495701105 10.12803983682345 7.181715077440622
Sn 9.950626420898638 13.388230905888449 10.895608297507692
Sn 9.32493306346631 12.432047622459928 7.836073870647174
Sn 9.795129540205355 5.859888694471201 9.217522461641066
Sn 9.660617804064392 11.508529866722876 13.335423325308687
Sn 9.388870482596104 6.435940655640233 12.353094808991106
Sn 9.357189570377605 7.828433397960909 6.813636087274197
Sn 7.7797502797472955 8.945180367192831 13.242225689276767
Sn 8.506606433186631 8.419447451281707 10.071830624531158
Sn 5.928821798799452 9.835447193673426 10.657906579052167
Sn 7.059081993480196 12.659211723474396 10.030660828318501
Sn 7.024327057699171 10.506779027588196 7.888123110605753
Sn 6.615878512395006 11.767699480326977 12.881614816706696
