28
Energy = -97.8290148 eV
Sn 7.57655458994971 15.050994601300106 12.991646122649266
Sn 15.032159367921293 7.915465657966056 11.842993993854959
Sn 9.857909826161531 13.825802102104731 7.358890500665236
Sn 7.390025738336737 12.137778393778222 13.824241971850272
Sn 12.519751305384107 14.926760859469042 6.510063599879759
Sn 7.306070176500273 12.908386888877677 10.848496525470095
Sn 10.081709195159707 12.160060980530156 9.953045410084577
Sn 12.216424163081875 14.670466570772009 9.507978404407739
Sn 12.36601043603539 10.155406880873558 8.552133245384054
Sn 10.62332971296082 9.338755147802495 11.713854317055334
Sn 8.246976212299547 9.080635121943114 9.840286509152383
Sn 12.968120636983997 12.023028222091325 10.987493090782706
Sn 9.312862506004556 15.345687414917267 10.152370890889564
Sn 15.181361419737243 10.088859406881516 9.701009681810369
Sn 6.277434009341377 10.189432778437206 11.779088661265952
Sn 10.071308998784982 10.928656506424815 14.173124527448337
Sn 12.291781675612377 6.72119924126267 12.367193292997397
Sn 12.193949357480868 11.998719743416352 5.947866728102373
Sn 9.662782910526598 10.717933692852217 7.287559920452265
Sn 13.785773203590747 7.349836386774828 9.096960149626357
Sn 10.43906348446294 7.692336269739053 14.523967971138376
Sn 14.240711171613569 12.700884063144853 8.077465964755929
Sn 10.171111184445385 13.634826856463533 12.709182089792108
Sn 11.971210211316334 9.811012571236272 16.053778830549017
Sn 7.925281476706753 7.795681654626004 12.848563407321953
Sn 10.884142299176974 6.930754864903585 9.819715988498931
Sn 8.104045814353212 6.1546826049775945 10.31756726121806
Sn 13.16331280566347 9.685575112769406 13.343707614452185
