26
Energy = -89.94511886 eV
Sn 12.728814184884635 11.86681066600008 7.75956629379566
Sn 17.52224513406298 11.89572696905065 9.21462694134397
Sn 13.823838080793008 13.595033137002687 9.95456594040207
Sn 12.698829275532963 8.821398214580912 8.853879687624156
Sn 15.179587822023079 10.2996771469517 8.125984100166995
Sn 16.082552493507976 11.092560984629783 11.539303330902536
Sn 16.525412324966894 14.195464151402225 10.85829499742461
Sn 13.100478851751 10.814711407581692 10.952433406318232
Sn 10.394286399525987 10.770886043980667 9.204272515110027
Sn 12.98467298714092 15.364010078799833 13.173801419827514
Sn 16.368361427474053 14.76236859947636 15.895642669940711
Sn 15.174556302854112 13.272409029680075 13.477165101601472
Sn 10.556872946609623 17.147599482292716 12.716401582850532
Sn 8.717843246158996 15.201768223068612 11.228488114440735
Sn 11.666101155464341 15.788913595879443 10.254160247625277
Sn 12.272473184104253 12.211448908990382 13.818994629516942
Sn 14.72222526523446 11.910332017897426 16.36535379518998
Sn 10.71521806428261 13.00863004849475 11.24615738953751
Sn 15.17875282365499 13.899129444242941 18.781559240928388
Sn 17.380062744489045 12.478412551683286 17.59356167152006
Sn 10.072541333188996 14.457269560941562 13.947292979274321
Sn 10.107148743255179 12.366518167589795 16.097267916199744
Sn 12.3140306861408 12.470382848918264 18.314598496855375
Sn 13.35700916131005 14.881339634587965 16.33065501653206
Sn 12.748214458375436 15.2934079025755 19.568282309476846
Sn 10.603084841016345 15.033163240570344 17.5025470999431
