27
Energy = -93.41655817 eV
Sn 11.422639239115522 6.905430458408489 5.794832715010503
Sn 6.789502031825724 12.69886857021204 7.985544241907475
Sn 10.657157459004225 13.569014225947555 12.478713982046099
Sn 5.926823110954714 7.494871649355942 7.487631653711656
Sn 9.265476078554876 14.158778967603855 7.442523854214164
Sn 9.247728869988588 5.924096762273787 11.240539488381575
Sn 10.352091612432824 11.428302387360803 7.583682802829857
Sn 5.725393450474679 13.161323636983873 10.704597362016957
Sn 13.881939815836223 9.051227855421793 10.910467929472668
Sn 8.711190149709154 7.285699767093261 6.859084008426559
Sn 12.787778104373293 7.552831309284583 8.376021427026174
Sn 7.093543128982941 10.597521043899933 10.750771393880424
Sn 8.087874530497736 10.002185192496883 13.550372283683632
Sn 12.29278332604186 9.703272756317002 6.159511095962092
Sn 10.436032737162416 7.903859014722314 13.4669387031169
Sn 10.183456857698763 10.696766884990835 11.158990704948794
Sn 10.703000492303843 11.181945625546351 14.316663517049289
Sn 13.279627461836737 14.14687678495675 11.184971830149363
Sn 6.9254313768415505 7.65258847068864 10.354114109628362
Sn 12.21762476492579 6.551226802425472 11.36150602724886
Sn 10.090699334739199 8.236110712121535 9.501501195430626
Sn 14.643452230892231 9.998569580592802 8.0751383407041
Sn 7.7505770052826195 9.924539911008432 7.708126742779357
Sn 12.726884808978477 11.878238863107807 9.343891551313906
Sn 8.64421589796206 13.718340989328405 10.299762924964119
Sn 13.102945413972225 11.496031384375076 12.409842164637142
Sn 7.612016577660839 7.080529992989432 13.576055993473814
