26
Energy = -90.36414268 eV
Sn 16.140777588241942 9.893190601510325 11.513145540711344
Sn 13.104873084368494 16.746942945668117 15.554307363946275
Sn 13.921851878580773 12.471627074048437 12.17376971702845
Sn 15.127154734913296 8.078539404243102 9.297375066976885
Sn 16.820266477023385 13.010416750088766 12.595205514816316
Sn 14.80603946595664 15.335937348203936 13.344325686046457
Sn 11.14179436725343 15.212342333771005 17.177849454793648
Sn 12.29263216754777 13.559992358591547 15.018172375976974
Sn 14.279824236294727 7.203878418986263 12.050513344874034
Sn 16.75615726689248 15.437990403896608 10.716265892068636
Sn 8.501973840571917 11.077126756460112 15.630870238743183
Sn 10.52334160678551 16.276321137754472 14.209864190274493
Sn 13.196719942097056 10.116679468638003 10.107844493347933
Sn 15.798021685382508 12.631438862062945 9.65212303095814
Sn 13.449605599513335 9.773454845981233 13.354453615726824
Sn 12.643063516616033 13.114502567079612 9.421837512367926
Sn 11.48361116742633 7.932480890964753 11.410010129529198
Sn 13.984176646574364 16.842498346352787 10.944168133717286
Sn 11.993090345416032 14.850717873945694 11.876166555752004
Sn 14.674539985830263 15.259223461627398 8.512976517325393
Sn 10.400150552809047 9.35714214456418 13.99589526027385
Sn 9.74794144595986 10.366877175274102 10.975129719078348
Sn 8.86090335202692 14.219732858765152 15.599164120562557
Sn 7.415862643209089 10.094247922050238 12.99855784449668
Sn 10.112409083199681 12.348253158130854 13.130518834640842
Sn 7.2256183442748565 12.995205177052851 13.279183280171084
