22
Energy = -76.73612048 eV
Sn 17.88312076624044 13.737146294553142 13.618935105773414
Sn 20.02901946822766 11.679264554244552 14.113599303443387
Sn 17.673201395049386 11.197207727307221 12.188790952594386
Sn 14.900018625718081 12.078510161259462 13.43920573797988
Sn 14.83146548286606 14.391317846724192 11.259431065847405
Sn 17.29939845681075 10.80338274003589 15.241107858542666
Sn 10.965675903995518 11.696015454780976 11.127412374379917
Sn 15.767042101488785 16.935518440761843 12.297235576022
Sn 14.398267383052147 15.040014966677719 14.305165342672009
Sn 11.756973949789584 11.103942178677656 14.053388644342975
Sn 11.870638862672472 14.49019643767233 10.61854454431288
Sn 18.99413542652539 13.12565913145672 16.460057679373524
Sn 12.708400380596533 16.75438291658123 12.588746520703337
Sn 17.12165285265503 16.126103629788442 15.09177965818554
Sn 8.018509966350118 11.611714117215392 10.480820014444262
Sn 8.856159360794702 14.362246661426761 11.198893132627791
Sn 15.829680510411754 13.345653909092738 16.344016302547363
Sn 8.92794346433227 10.427904366846624 13.149464377301433
Sn 11.241127924326584 14.012783949216917 13.53347320299271
Sn 6.97145877032009 12.840652123533571 13.218311048360007
Sn 8.559124522356234 15.315923426384423 14.029938263778995
Sn 9.22075082012677 12.608421331677578 15.352417949587108
