28
Energy = -97.41085041 eV
Sn 17.174401324349706 9.94703891649058 13.74300607199648
Sn 16.9503684195275 13.179208709059528 12.666663711468209
Sn 15.238417077505781 14.98473836200809 15.03777647766906
Sn 15.0304684407014 10.669610856054256 11.49657079264422
Sn 14.920540111118104 8.102436099780663 12.973486822752497
Sn 14.678164742765384 12.035595395339824 14.37785665905256
Sn 14.920770779084798 9.485143086142683 15.721829224972959
Sn 16.009481116867537 16.178463587891788 12.287514598163863
Sn 15.408867036594902 11.711407427144506 8.739019718686636
Sn 13.260952895616134 16.92294660480014 13.42302390481778
Sn 14.871802653650441 14.079607130084064 10.390776192419429
Sn 12.394138022299105 8.059679743279563 14.699770005675733
Sn 12.545374669509009 12.199691997335417 12.171405878343501
Sn 10.832450955911339 10.321415519908676 13.642967498860884
Sn 13.65414848545462 16.703203132481267 10.305216768731858
Sn 10.001071317532492 7.783444038376084 12.168445949682381
Sn 12.346915964444854 14.167802602283244 14.516793251681618
Sn 7.797002868401524 9.532072309373808 13.477505423036867
Sn 12.45386206935535 11.772964602114511 8.78003255025764
Sn 11.508820694923777 14.618517133869426 10.64895271638388
Sn 8.91386638021043 12.5831773210072 13.157254893355574
Sn 10.835301993606409 9.921169246835563 10.424934093191835
Sn 10.377967285350875 16.118623732429402 12.976128598692334
Sn 10.343363142346618 13.647572712900729 8.112887147301644
Sn 9.577640530281492 14.429776765697039 15.376910638944087
Sn 6.350334338852377 11.66587388470509 11.91574542172957
Sn 7.665402066179369 9.376962097558446 10.356067953867402
Sn 8.820673045674457 12.186851246383123 10.19385937380449
