26
Energy = -90.82532582 eV
Sn 12.202787405635508 9.208245946413792 8.886349928375148
Sn 11.524846758529812 7.482320199337584 11.439770973095767
Sn 14.619233265538693 8.247633918041801 10.957478607170211
Sn 15.027319268152286 10.304165554647708 8.692998062979306
Sn 16.01062248734338 10.905522012262137 11.51942156440417
Sn 9.312425217708737 9.355084634272163 10.010120916507805
Sn 12.86802541366043 10.735633551371693 11.603712662696818
Sn 14.00193857453372 12.983945185191962 9.93080571236107
Sn 10.900791354954865 12.040315353741555 9.479337574560281
Sn 14.782888506653611 12.542220523283547 13.756651199378267
Sn 10.79197206011307 14.95491986322409 10.946821648149642
Sn 8.07805010156839 13.174378203276648 10.680557210972033
Sn 14.7898398349329 15.114958300443867 12.148574169568764
Sn 12.179309923424466 14.378477869709336 13.61997881656522
Sn 16.293453640595633 17.259603895058255 13.574258332046059
Sn 9.1150659261575 8.447033548684605 12.888372452213554
Sn 8.086202696965094 15.923516124609604 11.53604550026934
Sn 9.05039086973191 14.056557658546888 13.640577796933604
Sn 11.716675004854482 9.501814196628645 14.034543423715357
Sn 17.018890548405302 14.387535105862854 14.422678509043445
Sn 9.740823657815373 11.335328646504852 12.406549852314484
Sn 12.56387661466807 12.249995437836308 15.78396043885082
Sn 13.220847297558757 17.15956294447644 14.153097248591962
Sn 12.653041544228707 15.250871934782001 16.557582559852815
Sn 15.450636984178479 16.404464432973253 16.309717135724025
Sn 15.237077459430344 13.444130533724751 16.84719773329304
