24
Energy = -83.36685134 eV
Sn 12.681827810187123 7.565669704325939 7.504640625410754
Sn 10.502516534468946 9.26185220174761 8.682344831050905
Sn 8.037437644531863 8.874607125826184 7.164001252046354
Sn 9.600911234441385 11.393412713009678 6.388353821962837
Sn 14.138277501545014 10.045896041729913 8.308971264450355
Sn 12.895353716395997 8.045620217310335 10.351048872444041
Sn 11.877344236436373 12.06642843242663 8.231519947892236
Sn 8.951000058816632 13.707181126384949 8.34511080364437
Sn 10.458400737309049 11.056579756413049 11.047730081813347
Sn 11.918095612318169 14.930550776219054 9.166948539143968
Sn 6.8888565198009974 11.524267426490782 7.948834957191478
Sn 14.85505807749127 10.500407337915526 11.145796841792798
Sn 13.19088974381166 13.025221012868037 11.084560115855298
Sn 7.756459529268 9.408401860288457 10.298148693442094
Sn 11.765920535516157 6.732241278194493 12.693956706375419
Sn 7.702208578059641 12.432084825045887 10.867901591633274
Sn 12.50231554471487 10.068092769960272 13.052981823431214
Sn 10.216966397753112 14.195802489488953 11.62253291947428
Sn 8.856482079751775 7.562591622122818 12.715115387116754
Sn 9.181465290757188 10.34282929137685 13.758726634950222
Sn 12.356237665180537 13.539064436558034 13.907980431854083
Sn 11.119650944602611 8.286262605979811 15.123262133045264
Sn 11.461994470766404 11.30633138662567 15.706447469218395
Sn 9.347849949826808 13.275142012521618 14.459322456086896
