23
Energy = -79.90425521 eV
Sn 9.125640464402629 8.851786330567537 13.31687646427739
Sn 6.678269073345752 10.541825561328345 9.10552331187131
Sn 12.871345799556734 11.8407094968436 11.85118043877553
Sn 11.033303870775677 8.594597936077278 5.900744085863138
Sn 10.82554623494391 6.846096295765067 11.336464457156243
Sn 11.745093479358285 10.050119777059859 14.279864509644757
Sn 7.988763140760602 11.080437314338646 11.825526152124718
Sn 9.963570447265576 13.224004549152848 6.161429207714388
Sn 13.643482425541702 9.890706877365087 5.8501503095853025
Sn 8.721194726923569 10.706324591605036 6.725224131993185
Sn 13.132041257169375 8.783228445288648 11.537321483806263
Sn 8.281941061843083 7.734193840318033 6.591276842335482
Sn 11.18697701550018 13.03715312751476 14.009190399913406
Sn 8.214700601132467 13.579147767384406 13.342447851593551
Sn 10.164722127476805 13.0968479924206 10.998374438937168
Sn 8.445249020921533 8.09719244682944 9.695343293242443
Sn 12.934989116499846 8.535033873079307 8.361277646721462
Sn 8.038175884912215 6.438501544751916 12.214717282962802
Sn 10.64226105610633 10.137087428164827 10.309462639670908
Sn 10.641297797445914 6.48800894681659 8.209514610974301
Sn 8.217811821743718 13.121284898856253 8.6510715950626
Sn 8.931941179416006 11.183595035607581 15.166641514685452
Sn 11.70986165572428 11.312120769547215 7.7160536419202295
