23
Energy = -79.36445804 eV
Sn 11.239150100521744 12.537973636528434 13.730002761212512
Sn 8.855209249501117 13.905078826985353 14.559458276216787
Sn 14.847951025328735 11.66898012548637 12.658615898753347
Sn 7.674393829072381 5.785875802470374 8.927129583472684
Sn 12.931873951969086 10.039145680124367 8.878585642692375
Sn 10.707916835573537 9.951851639270625 6.796690218877772
Sn 8.379740684053466 10.985512931513309 13.973314590973363
Sn 8.755149944750148 13.317302592825113 9.353505088968555
Sn 8.157810738784407 10.738305592528736 10.849247499247602
Sn 12.934342259746561 10.182735746501498 14.346242264684417
Sn 11.553108072658532 12.71231834718038 7.907341806499004
Sn 9.374302355812052 6.688969048056858 11.340264174771297
Sn 10.538607860005289 9.367962103156632 12.476076837401946
Sn 15.8110761170651 10.66667012168225 10.019810171036168
Sn 9.419479582691615 8.140768283525544 8.706258570695942
Sn 7.353152394075954 13.389348040192584 12.077071010960976
Sn 6.402940287094528 8.130200432232522 7.676835373194585
Sn 13.872029722354284 13.176314370218934 10.17250889017292
Sn 13.673916461611551 8.900324918136796 11.631873721899463
Sn 11.047035447275814 11.928284108645562 10.867557255611503
Sn 6.735924164495847 8.130476633501056 10.736989909347637
Sn 7.937391902206997 10.825773563544303 7.675306485138019
Sn 14.765142253487612 12.07933549586646 7.587014141096812
