20
Energy = -69.07834522 eV
Sn 9.00676495667582 13.499434857676691 6.235572143429147
Sn 11.387412596092922 12.32801627147741 7.5863749909545195
Sn 9.358449586168943 10.437556762328093 6.2230660860534455
Sn 12.645613250644006 14.106611535886179 9.594958186705648
Sn 8.155295452459828 11.833286575144003 8.71566065222168
Sn 10.475662435478753 9.631253539267517 8.8427356926289
Sn 9.651097495998972 14.641533849882574 9.039263701109695
Sn 13.537540092341121 6.478935506889829 11.125655128996417
Sn 7.9920123848064115 13.383119398580988 11.261097257391459
Sn 10.682529067910608 7.289311925108759 10.941518975450562
Sn 12.57221427235932 11.362529520701722 10.745372093162265
Sn 9.648520902313399 10.915578026226497 11.527953068704445
Sn 12.090806532941862 9.23437837309678 15.545541394525747
Sn 12.784303985514217 8.771070071663543 12.725239588364843
Sn 9.697898799859336 8.814921306827847 13.57477059314502
Sn 13.400152759807039 8.800073079836451 9.381281283804075
Sn 11.014879073563382 13.50827143478204 12.320941036320889
Sn 10.34783703560592 11.799413187132837 14.823212185254727
Sn 12.721885334444247 11.934270666599591 16.57909041548914
Sn 13.40040798306641 11.801718108943042 13.781979524339953
