21
Energy = -73.03109152 eV
Sn 12.586167262339767 9.481002293910269 8.123422151215577
Sn 15.523839566118996 10.242389898273489 8.839890859076506
Sn 14.484825871881274 12.08147035149042 11.113629729240069
Sn 11.794348520193642 15.389477438134048 10.504090667108954
Sn 14.537008754544342 7.378355794892286 9.17313347530002
Sn 13.559309992830475 12.388453307785612 8.148424524559163
Sn 9.936198505304858 9.472453218333246 9.843084337543395
Sn 15.387790789319986 9.118796988722623 11.65698895857918
Sn 11.199659588667823 12.234056658697696 10.031085377492683
Sn 9.140591533008184 14.507254341797342 9.611269419088746
Sn 7.637881593728584 10.09582254868609 11.96128623210963
Sn 12.001298967784905 12.675783777920135 12.867551860219972
Sn 12.315155503905247 8.191789116608005 11.016344672123285
Sn 8.89646659490759 12.775682190495573 12.116122161453692
Sn 12.222449710624545 15.621301119707724 13.406434731782996
Sn 9.27823929597212 15.891136209537333 12.374562124050067
Sn 10.103794406877602 8.951260427295406 13.28467477397371
Sn 13.163845766896042 9.885564114266273 13.560898501779079
Sn 8.259340080088498 11.102030888487985 14.737156650429894
Sn 9.940269173634007 13.877466153690635 14.78388689902902
Sn 11.164723018436064 10.99963485477213 15.509453039276067
