21
Energy = -73.14784766 eV
Sn 13.431199169022078 13.265991663594201 10.584118033320152
Sn 13.203718460701129 10.843719974469488 8.682114546622756
Sn 11.68759737785428 9.53345894033167 6.25094411137421
Sn 11.461254208016625 12.51272917013294 6.155475608691842
Sn 10.850610467231753 12.943191065291618 9.048877479896646
Sn 13.484324623445666 10.621118254587987 12.157159086460688
Sn 12.88087895336339 8.084924324694066 10.327664819818416
Sn 11.085210059810267 12.926573219456829 12.434828164223953
Sn 8.965891060465253 10.95683874908159 5.706720801676726
Sn 10.490371467957717 9.736786442203933 9.581595653667538
Sn 11.437089446987967 10.695042475203701 14.546750069792441
Sn 8.474415592908489 13.47090846485771 10.902410404455992
Sn 12.381613870487778 7.97706170421141 13.325089545438678
Sn 9.128601177381274 8.317297872194873 7.239375260052679
Sn 9.365024636890098 10.393939532894596 12.208438968997037
Sn 9.950764300897507 7.1058796662312504 11.362338798877277
Sn 8.070145265801045 11.270219940558928 8.534967199651147
Sn 9.58046918748364 8.114607476866466 14.32888728009282
Sn 6.511551308863112 11.036209306717762 11.102173755783298
Sn 7.0846709739839815 8.270333213002454 12.561469490687116
Sn 6.994247513398248 8.428164610935578 9.520742786987025
