24
Energy = -83.31758043 eV
Sn 11.161832210788562 6.557676385809469 12.412998055397571
Sn 14.254449842813576 10.06232281014681 9.818666072053487
Sn 8.965439814911187 11.03831796354612 14.223353958203338
Sn 10.031803255766102 11.642114991453884 9.13506654553609
Sn 9.872142608534052 14.573255829013073 9.263471312250207
Sn 8.313196383050624 12.853079012115774 11.487642666626908
Sn 10.352968717614793 13.977539352962264 13.730546966427815
Sn 12.349696684860632 16.23389145186447 8.211403141909143
Sn 9.384483064546513 13.090043894276189 16.39315623496426
Sn 11.772429191324361 11.630855522751814 15.7554857895812
Sn 11.813915000405785 8.2834685193884 9.808369859647208
Sn 13.83641164366284 10.160632652383464 12.803887717457878
Sn 9.822245824779264 17.4841888027064 9.15248184035305
Sn 14.530509114209243 12.248162841329785 14.767130618303653
Sn 11.941977093818366 16.184204158664482 11.185625787569611
Sn 14.104226340911321 7.303393642651766 11.833528983154151
Sn 12.766036630899437 13.369941787723873 9.573099190263395
Sn 8.938473278613557 16.000908907866975 11.844566602182097
Sn 9.372523591049491 8.72993154749296 11.309829343173709
Sn 11.110552403246553 11.296595179576414 11.833124824179487
Sn 13.036540021244438 13.582024101570212 12.619650484125556
Sn 16.471477730882313 7.9864693974923515 10.148771794374468
Sn 11.337698147995129 9.079755037388761 14.036971518698328
Sn 14.17249988780588 6.994240835266451 8.724429625737299
