29
Energy = -102.08901116 eV
Sn 8.866141056989063 8.552147369414719 14.49815305688292
Sn 9.863971666209318 9.678287104651169 9.653383977705753
Sn 14.01908526077248 12.275630700407245 14.268215332966763
Sn 10.544295375964927 15.211772086514149 11.459114738857883
Sn 8.563137171773237 11.518393783318439 14.158322927503965
Sn 10.881383570547102 5.701662290836038 9.95667404181003
Sn 10.13544347321294 12.58268547928868 8.552281503650935
Sn 12.151469536032717 8.70159761167101 5.958536752854176
Sn 12.43855745033081 8.180226848303155 8.979832099553294
Sn 11.124945057196225 12.949104822230055 13.331837891746591
Sn 12.364177090774998 9.653372190198324 12.50668442930236
Sn 14.501834255526056 9.96986338202161 7.746051739619602
Sn 10.242951375771668 7.680999356665396 12.031955295537715
Sn 13.18181454391587 16.902039311721456 12.330761438067755
Sn 8.529717234134965 12.547887726999054 11.207632439664902
Sn 12.206133739643224 17.00826629848426 15.417207664563918
Sn 13.292532855132546 6.811108318453799 11.57556176001571
Sn 10.364595000052933 17.719901683676394 13.162720838897048
Sn 13.450876596977475 13.944805553331834 11.639660716696067
Sn 9.554088370343695 10.315811363030784 6.571930094231562
Sn 12.36464540689352 11.715721659510244 6.604364664926586
Sn 11.354094529238283 10.456651560160303 15.229503211196317
Sn 7.650527246978872 9.656664113313855 11.901128648657341
Sn 12.560626791469119 11.321596673358773 9.883740982569071
Sn 12.066743492001034 13.999158637174357 16.15607469336811
Sn 14.910623870390177 9.244154337453587 10.931958737600096
Sn 9.789375666163048 7.415581578519484 7.402004709240155
Sn 9.643803600391731 15.187657835857339 14.704508225863986
Sn 14.475651537262305 15.221794663599173 14.471362794558901
