29
Energy = -101.88409291 eV
Sn 12.509166472479686 9.22305687967801 12.789933569599691
Sn 11.702275100453281 13.990273878497804 12.249102357231587
Sn 9.820425867991947 14.889544661687744 10.15879580793881
Sn 14.677806931110743 12.037643928732898 8.55935959202473
Sn 8.329014659883317 8.197797617675963 10.667753128244515
Sn 5.3127145067632675 8.89941705282485 10.67148515728371
Sn 4.497816245828711 11.012435166309805 12.689071209022483
Sn 12.546251241607285 14.416520841273458 8.986892827867846
Sn 14.057269864438542 9.061041672918904 8.489186599287132
Sn 8.878284031634623 11.978160050590922 10.102594283918403
Sn 10.922780665082024 8.78564716757831 9.003236884016248
Sn 13.024926600825182 7.100921942676355 10.619938958385974
Sn 6.9425738931085075 14.32201681861724 11.304987596745558
Sn 12.175808932822163 9.070444297136406 6.05622813045549
Sn 7.281334446584516 12.079035044953372 13.109022546035673
Sn 6.8191099517360865 9.055162640116668 13.409924631216333
Sn 13.720779616034713 10.65751336183882 15.023663998849417
Sn 10.399470574776007 5.854362108523925 9.61054613475464
Sn 14.19717810628238 13.476574008964848 14.052320840850733
Sn 7.340875956770616 9.986988808635044 8.423767046327493
Sn 12.520669975725044 11.529504626277173 10.828491923353372
Sn 12.90056661368132 6.362983303710839 7.5015330410590515
Sn 11.107095405484113 12.051735069471917 14.504671331232442
Sn 15.250067865637448 10.955910018816379 12.273177173856357
Sn 5.6715406390867 11.948877662118743 10.023461550177299
Sn 9.620179806650164 10.270676773338328 12.416491769240945
Sn 11.578959463054685 11.566250383814685 7.952338903177647
Sn 10.017873798442354 7.009004314489239 6.741256759850666
Sn 14.828936961659563 13.829205834159836 11.150897208655861
