20
Energy = -69.73310315 eV
Sn 13.630862062950328 12.215634857696685 8.067137400918604
Sn 10.704762577086134 12.213431582049996 8.75666686057302
Sn 12.499245772184647 9.33592898884148 8.5580615694622
Sn 9.957986220368777 11.002746965975795 11.443920635774688
Sn 12.787737641941977 14.478769691970994 9.861737789426224
Sn 14.352519889277868 8.700901137601003 10.939827583820376
Sn 7.866329840500416 12.750226656291153 12.600065892182789
Sn 9.517776794794777 8.853453722955946 9.4645649509677
Sn 11.772029994864369 7.031088771896391 10.342980175457301
Sn 9.524666827035484 14.473441097519567 10.634870352527484
Sn 13.276722190388599 11.522924983025224 10.994401241614904
Sn 11.464501259740377 16.174250990913112 12.096403737342024
Sn 13.505120020935586 13.73758288650833 13.078223126463374
Sn 14.402205687182606 16.140820776507116 11.746477428346719
Sn 9.796045942178889 8.093470307969048 12.588119967367065
Sn 9.427937280725182 11.117926611551386 14.56829712873579
Sn 12.161715543896053 10.076473028292996 13.423672129145665
Sn 12.757437246501361 7.247874125624418 13.171287671610033
Sn 10.137141924510251 14.256746811655736 14.037538196967851
Sn 12.191440272061522 12.310490994277504 15.359931150420884
