29
Energy = -101.14623568 eV
Sn 17.904988902770977 15.268974528167917 16.43634112214754
Sn 16.261304372187087 16.810144405028694 14.445138402561613
Sn 13.799024148488206 17.907834891347164 15.786634670441059
Sn 16.131766831545036 13.345725568913597 15.18393883167553
Sn 15.206544308780254 15.863750263177918 17.496294398967255
Sn 14.068822759148908 17.98280771868267 12.242639717138836
Sn 13.795818382692815 13.231478175248835 17.094338461465668
Sn 13.36103874193906 15.168698727167948 14.612870026014848
Sn 12.228310089817438 20.41185359809971 12.288695051366739
Sn 15.228008637608353 14.868535402108959 12.235427659947465
Sn 11.18700364702852 13.004679636468905 15.28873568670414
Sn 11.288921443953093 17.69662308923551 13.600511741862903
Sn 15.630269122699028 10.617733943161138 16.413214555258914
Sn 11.311073615989553 18.275008058480342 10.340416379478793
Sn 13.78946259695961 16.839227767902077 9.339326881747471
Sn 15.691724582055933 11.613882589370668 12.791237378769418
Sn 10.83251384046159 10.086029757198117 14.409483032282873
Sn 12.600424709348898 10.522930175287081 16.958703886454018
Sn 12.108735404437496 15.457078385973999 11.60300785690811
Sn 13.938037213183145 19.808743590181937 9.861861937667319
Sn 12.671589158508496 12.251916066138605 12.670207946583556
Sn 13.892201283716691 9.685867393888538 14.186227320972874
Sn 11.681519051200695 9.800162433824152 11.244027150681443
Sn 12.374460970033645 7.14930542140139 14.105424890599474
Sn 12.877019463653864 6.908408612238762 11.175377781503274
Sn 9.90555857983753 7.442767240258466 12.341289076417906
Sn 9.255394148622116 9.00138086947272 9.672610196946245
Sn 12.20633934354821 8.538424582822877 8.612316083289434
Sn 10.41736071673102 6.228260690423849 9.544391763421176
