24
Energy = -83.38508695 eV
Sn 10.145875809950642 7.653167220796874 12.061929818592857
Sn 9.29333103413793 12.510536555565512 12.418493954066033
Sn 11.581990288898242 14.451786124192404 12.498218364781156
Sn 9.819981652031561 9.310984569871621 8.539583455372801
Sn 11.974734348634632 6.939116428686738 7.266271608714199
Sn 10.462626900616293 5.655403388791613 9.715963386769026
Sn 6.619283007560028 8.645392316588515 8.811224032152012
Sn 8.65715289765575 6.770326143087778 7.445483252240751
Sn 7.894559488723947 9.512045809509114 11.55238081408123
Sn 12.218221880070958 8.539710527247355 10.068812943608902
Sn 7.315862140231728 8.782037188560697 5.528907182732479
Sn 9.990308135152793 9.940457018619293 14.261912494294636
Sn 7.219120777628925 11.033584908953502 13.967379105710538
Sn 10.402786874361624 8.890097942274261 5.423088094915274
Sn 8.208489391974107 11.767083149831633 9.41327657822025
Sn 14.120304149159168 12.72362818943702 13.302303189262961
Sn 11.427464693910505 12.072858107610672 8.857159356158856
Sn 11.590206355413752 12.51277940872059 14.851218678251275
Sn 13.548354028470987 13.49360436356943 10.43996167113261
Sn 7.637469699832821 6.434707259687634 10.729265214913514
Sn 9.124314471331596 11.388504161522901 6.359187025465812
Sn 6.15622996034932 11.059007282276708 7.2018321832041545
Sn 12.01861473036665 11.158725768660437 11.891843645435008
Sn 13.007563696280409 9.833401945225527 7.45118161085631
