25
Energy = -87.11696513 eV
Sn 8.655914565971583 10.338468930356635 10.830510991153062
Sn 8.348833312302883 9.232662131219351 13.685423552625283
Sn 10.560128960417636 8.15281309647129 11.663487525871247
Sn 8.266985904100544 12.231045792801568 13.363521441263092
Sn 11.73134945762843 10.817994482536374 10.370827805584609
Sn 9.650238139297123 13.252006527142276 10.70599812749791
Sn 10.318562453845193 11.08741351399532 15.370486588228475
Sn 11.03941709051616 8.18875826298361 14.765490084858232
Sn 13.041476983239265 18.945944000266895 10.79918306953445
Sn 11.380449933843119 12.825466532461359 13.158343047842735
Sn 11.476592977808474 16.411497679942794 10.737405384024024
Sn 11.37191905842749 18.010968163331327 13.355448238169886
Sn 12.636398942044812 10.072466959034589 13.142798858325765
Sn 14.805861758695409 16.420917751456418 11.132238093708828
Sn 12.988261589159297 13.786449100011225 10.324936661473874
Sn 12.845141495971918 15.41627400489247 13.455706586532944
Sn 14.547460210799128 9.018736122993035 15.406097943895379
Sn 14.395551944666785 18.51454594570101 13.428358991403268
Sn 14.6460510507912 12.063498799234765 15.107766718411046
Sn 15.774626658502445 10.057985707329367 12.720596752490145
Sn 15.210904373040865 12.933597312843636 12.174542731659496
Sn 15.65529415008478 15.826680493580069 14.27572238964373
Sn 17.254432836484366 10.235830435685202 15.296489768424898
Sn 17.41855603980173 14.862414734102352 11.918035873115914
Sn 17.537818231549174 12.978510145677074 14.311770408771379
