26
Energy = -90.4539529 eV
Sn 11.115946660534194 12.361616361928164 14.763186647322252
Sn 8.107180212798044 11.603052518279119 14.325382091426153
Sn 13.25472235873882 10.440105136615118 13.350246218686332
Sn 6.358489587380031 11.91323097620906 11.874563913971734
Sn 11.682120802865667 14.297101930129541 12.130904226908243
Sn 10.505571574070288 9.366078907731714 14.00458108500626
Sn 12.433229112914672 14.428046719683685 9.073841965433646
Sn 11.185746537940927 10.238521218606065 11.015415681254742
Sn 9.32799754853507 12.441625561851351 11.573652194535011
Sn 13.847887244337773 13.481841682396801 13.941972960802296
Sn 13.777678734618355 12.311614127854417 11.04854999951214
Sn 11.110382095489289 6.888262077339686 11.61682488818241
Sn 9.804566646555843 15.467490992238876 10.054912089482906
Sn 8.862415721102586 5.0075332263467685 10.690382099188215
Sn 14.465193188606515 12.438339071090969 8.19863653571204
Sn 7.447661872758986 13.117692470725114 9.141754485601655
Sn 7.954453674949601 9.24815042511381 12.29563135883339
Sn 7.061973198026681 9.93008574468372 9.503088177998881
Sn 9.98406838151886 13.789651033442357 7.47278655850929
Sn 9.354101666959144 7.5789118260496915 9.11386008744182
Sn 12.489684597162888 7.9659365338983985 9.080439935684046
Sn 11.772082420876346 11.217074295744158 8.164765778926094
Sn 8.890321239018373 10.943836176059083 7.347387979311014
Sn 11.5656096311499 4.959245954464016 9.177333727565196
Sn 11.024557212131718 6.71135060270932 6.692281774380972
Sn 8.861598952392447 4.889249923424126 7.702035581693951
