25
Energy = -85.87063241 eV
Sn 12.634926750735987 8.433911915445963 7.343088361415929
Sn 12.558376263760994 10.692739765689906 9.288221552382465
Sn 15.255654147452178 9.620912751631783 7.866786792681213
Sn 9.27523079557328 10.701663552096143 8.02629458611209
Sn 8.219062700670573 13.614549454938533 7.804177760850391
Sn 10.755608061223194 13.064178032740168 9.428105560221683
Sn 11.201951576048122 7.9936743812332685 9.980981870313906
Sn 6.495644395749238 11.264242562541428 9.226343938748599
Sn 12.048761112462525 15.138811677938884 11.278520389121967
Sn 14.989466995712126 10.088066646304673 10.788422319867454
Sn 7.028440244446621 13.800587275726693 10.502295090223228
Sn 14.32773548356552 7.273128564114505 9.739594732415341
Sn 13.203995046413347 7.980831029803688 12.572985056851056
Sn 8.982158007470476 11.077236934342709 11.016997197100158
Sn 13.76111956654978 13.037091734302514 12.684341450061034
Sn 7.6135033759272295 15.802099146320902 12.374763587073847
Sn 16.47821070546686 11.982238082496565 12.386107488661468
Sn 9.672235652206814 13.75037832774525 12.471074296466975
Sn 9.90297955544134 8.724264931018736 12.756043713466678
Sn 12.123262330917004 14.895280380629007 14.48750124472019
Sn 11.954471255606196 10.800110241653476 12.98466352551208
Sn 14.725632496731428 10.280047610672325 14.216618964633488
Sn 9.675185414420607 13.317969251085065 15.371025771614512
Sn 10.282374172402882 10.393931081050175 15.484822376642837
Sn 12.725348129443551 12.16338890487534 15.811556609238327
