28
Energy = -97.71939215 eV
Sn 11.827226748376754 11.614343094030904 6.683261854104901
Sn 8.925776376639263 9.72134119598336 14.618228696991286
Sn 12.983994861856344 7.423000233166255 10.33038907672378
Sn 10.99215557531032 10.91638263262083 12.592801001229814
Sn 12.429311966007111 10.322943055997003 9.329868722993204
Sn 6.5197180914691115 11.109163972361372 9.161837421449082
Sn 8.708672119712123 12.794873960979318 13.956811271874141
Sn 12.731014601650166 6.497175709165247 13.318745755986322
Sn 10.925821010886377 12.9531672340131 9.405539325116289
Sn 8.824698497072523 9.92781237792981 7.5107600577480556
Sn 8.48728019621878 12.88342780875447 7.531153488144145
Sn 9.572133104800605 9.373658875045878 10.362248079973469
Sn 7.355960984053343 10.606141100703788 12.059279150065613
Sn 6.149479732729839 14.015686991136972 9.00287588231586
Sn 9.926397341190773 6.772821571341525 14.373647286622647
Sn 13.573860942931335 12.010759337447997 14.642277878705581
Sn 14.210017444644413 12.365541697722911 10.782959907137512
Sn 10.319819158313406 6.6745754435765425 11.440291553482629
Sn 12.81254961452948 14.421111134842826 7.375567409411245
Sn 11.547454961724457 13.799218081788975 13.263975140304344
Sn 13.7913207930787 9.387489749959062 12.465031225909856
Sn 11.981031205231886 9.075749075487002 15.003453762008986
Sn 15.92217450862897 11.361227776070185 12.972633609083122
Sn 15.331323848324269 14.486644606105715 9.029620725062
Sn 11.005057659626091 11.807493209123752 16.06111400748633
Sn 12.712257616759956 15.025261222687083 10.617316442649576
Sn 14.772696055785193 11.895758441518122 7.613386889271115
Sn 8.35233106272062 13.309027334370002 10.851825792294086
