28
Energy = -97.74654163 eV
Sn 15.76362467074516 8.850516300842452 12.199818661284223
Sn 14.747236337689516 10.788420681895575 9.936836418551579
Sn 15.630958559322373 12.701039612279388 12.996680657057823
Sn 15.526885180274105 10.403535024482878 15.031039404339687
Sn 14.319294189537343 13.83188306593522 10.216777984079256
Sn 13.496189432491926 6.602793072404072 11.68444585091741
Sn 13.627315473446705 8.087078944447011 14.330072048367793
Sn 13.33214033623272 8.041895728003606 9.032025703243157
Sn 13.9446941052919 13.049211711889528 15.59739954132794
Sn 12.61895461560441 12.950686199652301 12.434520145961905
Sn 11.828942027399727 12.425038168866493 9.179676182125364
Sn 12.692892964661015 9.676244367019635 11.906122040247704
Sn 14.166174200389365 15.468369335344764 13.585436600321358
Sn 13.188275408594821 10.513668526730559 7.291274038906029
Sn 11.75347149100228 17.470873252804026 14.010548324501638
Sn 11.437852112467148 15.714375849662108 11.618240754654146
Sn 10.667220741432278 7.781224295228036 10.738573508247784
Sn 10.540945260170584 9.32784962935335 8.08369672121418
Sn 12.661254305947857 10.343863492167156 16.22545835272934
Sn 10.768198364733282 11.559246775273154 14.148169778218476
Sn 11.274287420481375 14.604195940630845 14.914808236437068
Sn 9.862652173318152 10.950131015252806 10.956954164650504
Sn 7.769412025208063 10.509415698883233 8.800959741189859
Sn 8.53978583549674 15.124876842174091 10.896210102368897
Sn 9.003501356956892 13.278405660253833 8.513179299527799
Sn 8.929549311233668 16.383505900430293 13.610408465475706
Sn 8.292343166146692 13.37813666260199 13.56391356517384
Sn 7.020240755535204 12.525190090304573 10.89737482408189
