21
Energy = -72.28457908 eV
Sn 14.58889307867989 12.839579187356946 12.13339347478164
Sn 14.078685376543614 12.804751905515806 9.150851206522708
Sn 14.266323335060342 10.12150147784153 11.076617087403438
Sn 14.54785624439621 7.882371278294428 9.232554058509221
Sn 12.23977970912112 14.530230781088582 11.014202323013139
Sn 12.046114617978084 11.268654226985772 13.021620487881382
Sn 10.57830553832753 9.779709940593003 15.28311364199162
Sn 11.67805733772404 8.158898008986647 12.978275899092376
Sn 12.765434762969205 10.077073640183368 8.186373568580018
Sn 11.104954702003369 16.063059741943984 8.711191758478993
Sn 12.146107621099413 6.740275584157774 10.340292698657452
Sn 8.244249005134025 11.646929501660452 14.239589432681868
Sn 9.728197085880222 12.859580097034115 12.017171375077554
Sn 10.870140978124308 10.099405089853638 10.422016032671914
Sn 11.2410040529514 13.227854351466467 8.15731853189278
Sn 9.29293825862923 7.4848013744151105 10.944664282836449
Sn 8.49021811170719 8.253536941193852 13.7989790428162
Sn 8.757488671129668 14.837570859510734 10.045868598184134
Sn 8.630806257092864 12.072079704219925 8.984047187780158
Sn 7.657949850353806 10.35336143760283 11.703579634984717
Sn 7.54629648728467 9.300472932147583 9.034911901222323
