27
Energy = -93.86630461 eV
Sn 15.648219343045628 13.852839487888787 11.568367662799986
Sn 14.93586532646027 15.622315047024554 13.78949674734321
Sn 15.212352139795364 12.819042619252748 14.568343012014136
Sn 15.683183229008565 9.642224902171561 10.0055262315246
Sn 16.83529909162977 11.222296326114337 12.412253176986988
Sn 13.079984773072965 13.284444646219177 9.972696599006285
Sn 12.226781447141201 16.074936997788015 9.040663938379423
Sn 13.264870047151804 10.757869451478685 8.405023179441791
Sn 12.361520291582764 14.998112840863385 12.39272861286314
Sn 13.654024103096873 11.321503422204827 12.252414666166583
Sn 11.923912772635369 17.785600190514014 11.399759408702641
Sn 15.046746575428735 6.8196125945157355 10.77411149085283
Sn 12.721116356250594 8.58771762990209 10.517891661594204
Sn 13.517469227980378 10.421130952887316 15.370490449856108
Sn 15.070559994531148 8.71133100029729 13.004934129038535
Sn 11.118004954159707 11.692373136944369 16.975713375079494
Sn 10.32185276157111 11.691021518974301 9.159149670534141
Sn 9.845610961413323 14.57816716305551 8.147630397392465
Sn 10.610366183281274 10.352274113873353 11.969136768392804
Sn 9.706237639154185 13.653019053630821 11.414029560625695
Sn 9.455479465872093 16.459963715689824 10.445580830675453
Sn 10.73625870685645 9.25250916426561 14.972179255394416
Sn 11.107915194206136 12.513367767548099 14.200120635151666
Sn 8.398924891804285 11.010751811295577 15.997776571818731
Sn 7.735262382338696 10.920328392712037 10.726515740187494
Sn 8.026434523783271 9.35945003652263 13.282065696080634
Sn 7.756794343846832 12.473306001617654 13.342816187662114
