24
Energy = -84.28508538 eV
Sn 16.309202441383785 11.615784979537038 10.757181172265899
Sn 15.698797177436143 8.972070369301635 9.44772574176418
Sn 10.392229191445756 8.102405199053837 13.578739259551064
Sn 7.0006668398086305 7.733013562216187 8.696798482912309
Sn 10.827616233747628 11.040558879611096 6.871463177225768
Sn 11.779617194755387 14.62498093963134 10.626550530816342
Sn 5.417551609036871 10.369001561288066 8.968877406417201
Sn 13.808558921303389 10.687651890538119 7.768797079363845
Sn 7.428887598255771 9.406795594888075 13.64183586774369
Sn 11.001569603593556 13.140149198689453 13.179034947465327
Sn 14.224489382958566 13.28827990438499 9.267149665824551
Sn 8.506151140048818 10.42515176487404 8.677175403769416
Sn 12.056418478528645 10.356133895777454 12.628652949168517
Sn 8.772352251112274 8.51509880710355 11.004027105189932
Sn 9.920108278649632 13.422317364647538 8.503578013396453
Sn 8.650674363850017 11.558226170696324 11.884099899045658
Sn 14.882485499866947 9.462154658055224 12.429636353138845
Sn 12.898443919569344 8.606825886573231 10.13657021648849
Sn 10.963772007117877 6.545637816673472 11.057032731473663
Sn 5.685191218626547 8.304080822070517 11.348640616909972
Sn 7.001098051394476 12.869675721154932 9.730345233795292
Sn 11.801009221983735 11.542704081356893 9.870962284982092
Sn 14.121284962021484 12.72708685136593 12.439091571025306
Sn 5.495402698277729 11.341733688974895 11.981758505857957
