27
Energy = -93.81524483 eV
Sn 15.367025380817314 9.901810879000989 10.361321432363239
Sn 15.937534831392218 9.627963193185083 7.321939657688367
Sn 12.42636009841049 13.076098068718245 18.678214116989082
Sn 13.208111073195722 8.721510929858079 8.527281100429786
Sn 10.79100462726357 11.113415903549795 16.919035143939308
Sn 8.412032888517224 12.557618968869665 15.31155136514201
Sn 16.91407316378462 12.050847901274388 8.552818220600644
Sn 15.020647504222643 13.99806687704691 17.577171855818417
Sn 12.02510290229768 9.224263139616378 11.457675133627601
Sn 13.021038882526629 11.85273045225777 12.676350904422
Sn 13.671246899393415 11.635264679319793 15.815055155523002
Sn 12.368181355029959 15.82019357340513 17.184257799152693
Sn 9.74664020397244 14.0966940414518 17.712638001603988
Sn 14.928659731060451 12.946338310721467 10.589230309769448
Sn 14.3004536333869 14.626748101705257 14.873168595732912
Sn 15.879421574784306 15.249494494604349 12.269411820362535
Sn 13.780852214726153 11.695212212383607 8.09122345233196
Sn 14.98638631248919 17.735503607863283 11.05360566851665
Sn 11.291703897490844 14.348549669559684 12.10303511132195
Sn 11.347104129901297 13.714050287700344 15.136984615410833
Sn 13.392514306530929 15.482606842122618 10.088848044164886
Sn 10.27029879754439 10.728276117570628 13.72130776367742
Sn 11.115635818883538 11.915123708795573 10.147574628780704
Sn 8.576084891576473 13.013810573468508 12.243423416248154
Sn 13.030295927326243 16.726851060986206 13.05602520203757
Sn 8.63226122335387 10.111769331491809 11.333273356969453
Sn 10.217007335232152 9.465503214684068 8.831465794807519
