20
Energy = -69.33746205 eV
Sn 12.814948079813217 7.220648213999169 7.988824790087871
Sn 10.755186685421997 6.910872765905962 10.147135026910732
Sn 7.854198693127319 14.064932488554144 12.144947058871878
Sn 9.219960060112461 13.313167747732532 9.269783268191395
Sn 11.412431924488233 9.776479553800172 8.80776388277985
Sn 13.509944413875166 10.870726597866744 10.816258623906148
Sn 9.478130370415451 15.965149293949157 10.551820984954166
Sn 13.763715688484952 7.582028112953464 10.897345413979348
Sn 14.700590351846698 9.408685555169916 8.552621883732941
Sn 14.550968210739265 12.632271482288099 12.988249785735553
Sn 12.184885781523272 13.651878908811256 10.047221108843987
Sn 7.525428129396529 11.444080944929357 10.755064736985759
Sn 11.13486445015359 9.142525604971265 11.996029084185492
Sn 12.303938775531265 16.395337548860603 11.265271978632285
Sn 13.656077731529711 9.739749325338657 13.783368926649084
Sn 10.28622292566825 11.992854103107003 11.85106430604087
Sn 12.741016149834625 12.287692726052025 15.380971229970926
Sn 11.830431196044819 14.341681331115646 13.23962593608287
Sn 10.637935135920431 10.125735126096123 14.814508971280052
Sn 9.550254391517011 13.044631713943144 14.613252147623669
