29
Energy = -101.03528186 eV
Sn 11.633704311200752 12.141107622738907 7.262338894172794
Sn 10.28571788341367 11.202299203933947 12.432519269653401
Sn 9.062312804904941 8.728433422830662 13.99014703019502
Sn 8.707460395303084 12.888011567944183 7.9121430101447485
Sn 12.351393172272596 9.153204202917465 13.060544369727515
Sn 8.714210768642971 10.669735667550405 9.900986734571864
Sn 9.309262605275274 9.686891144413096 6.856775326533189
Sn 10.71717750567808 7.024039011342604 7.934782165914169
Sn 14.409008431855858 10.151218954196345 10.959444771873867
Sn 10.407963158495683 10.70974291703926 16.231653092760254
Sn 13.000867360226534 15.542205747473774 10.293191087702294
Sn 10.537030279503275 13.538787980302732 14.727801188423195
Sn 14.527298712651184 12.357744836199359 8.10018243697892
Sn 10.549281832906079 15.623403907712982 12.542260016393637
Sn 12.292821430301407 9.281560955659911 6.353526932228519
Sn 12.14814924429825 12.895059837909063 17.15893190447391
Sn 15.001624749912954 13.168525932154859 11.052854326067292
Sn 10.067768081260194 7.45135194269637 11.04396877809103
Sn 7.205035140166855 8.728232077803307 11.5534205672913
Sn 13.290022618118444 11.429168793856116 14.823974775762359
Sn 11.447330658564876 7.968681642169526 15.60920014292243
Sn 13.090516995441998 17.014542155498177 12.905641492834462
Sn 11.761687702222748 9.553557836375349 9.386663243121932
Sn 14.774470331878247 9.347080499491476 8.139650397954437
Sn 7.876702910660117 7.7723948122921485 8.729445894997687
Sn 13.4282268376272 14.149470904949315 13.464454612494645
Sn 8.147382572852786 11.704953771079113 14.326687855783216
Sn 12.178876427013542 12.406330746447804 10.36991602760394
Sn 10.195383193157554 14.591427201470992 9.786306117482223
