29
Energy = -101.05241619 eV
Sn 20.519241873850593 14.545864216567658 11.449469974830043
Sn 20.528309490101087 14.5367020423613 14.638071344914406
Sn 19.70199239394941 17.077040349515368 12.941371876744077
Sn 18.007795873541692 12.989176386644687 10.885731151207603
Sn 20.16877063095065 11.90894191276902 12.972290017673524
Sn 18.21456046962601 16.234785565541532 15.598392652786673
Sn 15.676280210636333 14.459767787988264 12.020596641854855
Sn 16.74526714037319 17.1129641461188 12.844078294661713
Sn 13.97897242062174 18.090925860179148 14.130092705888428
Sn 15.406438271442088 11.37033215022134 13.640249651861023
Sn 15.349939997004752 15.456416771023756 15.281630565408454
Sn 16.140177285587473 19.98973353581991 12.920781705048165
Sn 17.648740620853864 13.218148129856925 14.073140761669364
Sn 11.679019721664032 16.002049925973186 15.4214365972078
Sn 17.772109951987034 10.323981356923467 12.132332155225754
Sn 18.50498435676419 19.40896812122353 14.852135015594074
Sn 14.435223595328669 17.592433612716267 17.17677309731808
Sn 13.159158144998015 13.737960540897205 13.575340278458587
Sn 17.442907306226758 18.29761575456193 17.576914212504796
Sn 12.764446763846731 10.858589942070932 14.659038229609079
Sn 14.337087674858727 12.760444506446078 16.506890533611887
Sn 15.618061689614612 20.081565248438608 15.88167906666241
Sn 11.196547955932996 12.93040284192356 16.3439717859831
Sn 12.584425397183963 14.924726116328063 18.19827504514644
Sn 9.972776159794824 12.954825898917498 19.10945473028167
Sn 9.58231449375985 15.696793285108994 17.656143850594486
Sn 9.01824713689368 14.330123813148381 14.776453136508433
Sn 8.758375169684802 11.279266170461607 16.58215505423071
Sn 7.387298256610947 13.711687585597248 17.342799916369454
