25
Energy = -86.74290454 eV
Sn 12.419950457471058 12.501170394236762 9.13103643490095
Sn 9.621435624468722 11.869071404098477 10.243311701841025
Sn 16.52053009024363 13.869877778306488 9.805897506620264
Sn 16.293458206132637 16.110206670470024 12.170089116119275
Sn 7.658868363774947 11.538049340874338 12.793309900969897
Sn 13.998856363838485 10.19133377321763 10.101300064166292
Sn 16.605926378762348 11.129309812297233 11.209458945791473
Sn 12.140727608683752 11.951456645271644 12.087533873852335
Sn 18.723821736732987 15.619953425363901 10.778250900941192
Sn 18.081515120586705 13.442860124955835 12.697811106858348
Sn 13.688463103443567 14.535846232434638 10.936917127086954
Sn 9.343809114128993 14.297243657085266 12.088285904263874
Sn 10.056201407938097 9.450626736781809 12.052422661679635
Sn 11.683747703949415 16.399199648104503 11.992620427186756
Sn 12.783338432975905 8.170816436120505 11.84281454672406
Sn 8.57301015758985 13.50731599887742 15.02627732025468
Sn 7.879717996809402 8.603256699714871 13.931693832046385
Sn 15.132299772164362 13.426666843824176 13.323058989190226
Sn 14.74296237266656 10.04637715343685 13.201646890549544
Sn 13.968753317296143 16.733205364887546 13.985261813907591
Sn 11.460308820138007 14.476090853022999 14.355799020298173
Sn 12.925172002759439 11.73020161367765 15.028776294287338
Sn 7.222985464338923 10.836553896394737 15.843187613249306
Sn 13.969081461552959 14.416521086058562 15.97511190602198
Sn 10.011863025702931 10.653592514635978 14.904930205342678
