26
Energy = -90.46269296 eV
Sn 10.3832078138069 13.959842832197358 14.165387469374943
Sn 6.7530922160819244 13.016590228227981 11.577977253749411
Sn 14.297229814580998 10.160483309042608 13.384702336941844
Sn 10.12546101842793 12.139695283056257 7.579390814453066
Sn 8.558617256771994 14.368492911726854 8.829421855620012
Sn 12.46384388708007 6.370307405282764 10.190073204865243
Sn 14.021705159656234 10.921104832943579 10.569937421749167
Sn 11.132486562063633 12.777823790222149 10.290439385468032
Sn 7.1631718758560545 11.647979906537751 8.684338738157162
Sn 11.807636501576301 8.807729474788552 12.107139552771205
Sn 16.304946976516753 8.927538562807783 11.188798678286217
Sn 11.629827504427718 9.171114358622269 9.205452172653832
Sn 14.199635934166917 7.0732051854437135 12.818430875651543
Sn 8.899160945311053 9.172433601284474 8.054196170166161
Sn 9.555319063806206 15.339654263659673 11.69211411935266
Sn 14.583035568350017 8.483473388627136 8.595979012113764
Sn 5.195897297707939 10.661583623440267 10.618665031635775
Sn 12.457792093663727 14.95890328818447 11.824000736604336
Sn 11.3460815857125 10.910092899872362 14.572677448527632
Sn 9.307086607896368 11.677192984359849 12.241360884212757
Sn 6.845902882423153 15.856842490280812 10.762404938909999
Sn 13.221432814965889 13.350453940685355 14.213610717717605
Sn 13.343740404436332 11.183175495643804 7.768050240942963
Sn 9.14998249814581 8.878297672181601 13.414377609552695
Sn 15.48735064590143 6.151025510239606 10.230846243936107
Sn 7.789591714951808 9.219312327028199 10.76743927204936
