26
Energy = -90.34302769 eV
Sn 9.798403804862327 9.528386389699667 12.938969995031181
Sn 7.716463772183488 14.036760600167463 10.909896652662429
Sn 16.238283271587797 9.245835996351296 8.591822749323544
Sn 8.832182576641271 7.1494252086503565 10.16099033368688
Sn 12.222927460122218 15.905129810242778 11.990717892403092
Sn 12.834677282131693 13.197448372235252 13.119529450069853
Sn 9.135175476816901 10.446661273796927 6.597917967965565
Sn 12.205225954128629 9.930470734868093 6.253982912917519
Sn 7.895360093317106 11.97700101198891 12.997707206047325
Sn 8.452020431176797 13.2160482189159 15.613198449983196
Sn 12.234992067961175 6.381820220360606 10.225905882181978
Sn 10.684807591285123 13.624526148222412 10.588209674047139
Sn 13.763897155482999 7.6949612628005175 7.7092168874901565
Sn 7.3543828502763455 11.605312737593977 8.848463811778704
Sn 12.262717200593306 10.905950081439396 11.215173175145035
Sn 10.363011942794305 6.614474604810373 12.739718844873751
Sn 7.2021666127083455 8.50622123937178 7.8866556241765595
Sn 10.805694293500007 11.695737739314461 14.733714534942326
Sn 7.048341046905467 9.579006153345432 11.021814591938346
Sn 13.749181342428873 10.73655901210428 8.636116214726574
Sn 9.821615850387147 10.070617309875185 9.59796008479099
Sn 12.7354766612792 8.49272224426819 12.976448190258722
Sn 9.354728907422036 16.494672827259397 11.128061906013372
Sn 9.919908257344142 14.744794168654183 13.550618879264496
Sn 14.571140592871851 8.20397079980002 10.705259577870859
Sn 10.446119447547767 7.725946679016863 7.6295132567824595
