27
Energy = -93.33421221 eV
Sn 17.193571880739295 16.824731479401684 15.891868458256447
Sn 18.927149980941333 14.441768008575306 15.275643495589641
Sn 16.620244892054796 14.872683712103198 13.586717408505855
Sn 16.331405312361248 13.69319124204647 16.57631229161442
Sn 15.174310072641086 13.504571523489304 8.903439420616795
Sn 10.168153226778934 14.625427080123174 9.414980043725166
Sn 9.932461295698593 14.874238345643317 13.018960146091759
Sn 15.087098936110442 16.131816315853317 10.248682852561936
Sn 12.372488319714025 12.363715805068665 8.218041446784005
Sn 12.031342988091591 14.205045114968433 14.983560081447143
Sn 9.7060085168758 12.874348369707539 16.67203593112026
Sn 12.760076942030441 15.519919085512493 8.14876405380224
Sn 14.505779535919068 15.876796223252468 15.597280976142434
Sn 14.048414597992934 11.363357632115411 10.79759027452897
Sn 12.722180437398391 8.178607258206345 15.387650329464071
Sn 14.098509537985311 14.110941663377247 12.205028929950597
Sn 14.312358563028095 12.178034185284849 14.73175626851839
Sn 14.198347270655216 10.161015392352406 17.039583773091678
Sn 11.143711017880749 10.387391110974757 16.350800260675832
Sn 12.23403705633547 10.133319157368225 13.186020012585415
Sn 12.792097186783664 12.781725502982086 17.608391758036248
Sn 9.487606109554804 11.92304150804414 13.846747562041173
Sn 11.301871647757814 12.594827921254126 11.364445392205848
Sn 12.162963731976733 16.38993358339395 11.10720540711905
Sn 11.826933826780296 9.58849614678105 9.503536714854503
Sn 9.40509938923758 11.520428283748688 9.152713492131216
Sn 9.520749144084622 9.834201894908123 11.638190574475656
