24
Energy = -83.73537066 eV
Sn 12.167720625095948 7.398055202553716 6.543208962730767
Sn 9.41565032543034 10.103027316831673 14.70911285174002
Sn 6.255286819160357 12.379309572465013 11.327596010345788
Sn 10.30892495934071 11.57064303257803 7.609514451344336
Sn 9.695978775753558 9.046541956139245 6.055491546686772
Sn 5.78375673936508 9.2907402762312 10.055886453832995
Sn 14.509322007118937 10.350964827873153 13.275771475503225
Sn 10.358391206311508 7.300267947084143 8.83349583315357
Sn 14.028383058559848 13.041815744695766 11.869411303633374
Sn 10.6512346418524 14.374354494385527 8.664225984019055
Sn 13.044542089166951 8.28242566041129 11.291266471048889
Sn 14.913044663654375 10.49250544504507 10.287396465986303
Sn 8.475936858490694 14.344911712749315 10.73847317356386
Sn 10.091940997237915 7.731702698542 12.347208218550191
Sn 10.447533403512844 10.0883599974932 10.401602310895115
Sn 12.725664636926458 9.731735698813928 8.302183133800972
Sn 7.7303207046325575 11.322109477937364 8.948837310516199
Sn 12.065566212889049 8.907220861909972 14.317553459836335
Sn 8.574976362043104 12.757646560827078 13.418765595540462
Sn 7.7130283026822255 8.151133124989592 8.068039405584905
Sn 13.268819964857636 12.84079301826522 8.845940634088286
Sn 7.911369222059842 9.850346673333572 12.05418395130475
Sn 11.082170607060515 12.748044775484175 11.300299142809264
Sn 11.911868890478207 12.052000644460861 14.24903754308588
