25
Energy = -86.82433244 eV
Sn 14.421062869035092 13.427924135535624 8.294356325100377
Sn 12.758762771156777 13.77404887978049 10.763693091910177
Sn 13.349382794505802 10.891455401203082 9.813476491682842
Sn 9.59893033682611 12.255715970779246 10.06424887204974
Sn 16.727439783388448 12.11225042267146 9.556488640403153
Sn 10.30353482315589 15.477865457700881 10.657763800327018
Sn 15.745120793340204 15.03906012824719 10.73685673162435
Sn 11.275316915778307 16.380052908258417 13.436187151583383
Sn 11.537447986372776 11.256898124984776 12.246376497367594
Sn 15.60259800429641 10.158818581553524 11.665460384275324
Sn 7.52961030291509 14.50659956340933 10.607811518592252
Sn 12.429596849328657 9.475276160921261 14.578061936095976
Sn 18.546223932059345 10.574707598499655 11.270479335170421
Sn 6.7379351392302596 11.599805218025027 11.150732940631103
Sn 9.516866429345137 10.18511524661863 15.236133123188468
Sn 8.61858401316896 15.104604157538393 13.371017191906251
Sn 8.869030052765668 9.845919468208944 12.215838987073836
Sn 13.984091405552466 14.890656560629886 13.270734825375602
Sn 10.921359252699924 13.335627261645511 14.151780448000745
Sn 14.39359661480397 10.77763791245726 16.47199044731693
Sn 7.7213776972436685 12.22191402973763 14.007733397362019
Sn 17.01936702416299 10.590844832232406 14.304366551670618
Sn 14.353620262836152 12.02180217241177 13.76659202228621
Sn 17.192362262962234 13.023559263198266 12.488481786655289
Sn 11.609639745987486 11.834698606669503 16.63619556526814
