29
Energy = -101.43380718 eV
Sn 12.093790834717685 14.164343589808245 7.194064653436296
Sn 15.556848967752613 10.653086155566433 8.927487472174855
Sn 15.151258466444093 14.80391959742418 11.423898875754762
Sn 14.052480632887677 13.230626632047132 9.161523064683248
Sn 14.431579937967307 11.394751098255238 11.67170738874141
Sn 12.870639193399521 9.644407889786113 8.000555248820573
Sn 12.367409662490596 15.370715147643619 12.23553344465546
Sn 10.749830294219127 11.765159941616032 8.242072925851698
Sn 11.475254146055962 12.30771300736657 11.353589860978754
Sn 14.607566413498239 7.827701580452313 9.919200341306736
Sn 10.826429215131638 14.878340719391415 9.785486138708686
Sn 14.79430919371854 13.26145146737719 13.911198370576596
Sn 8.912574902269936 16.167642553614787 11.942537365701682
Sn 10.452090225306005 15.623077340172603 14.520319265990263
Sn 11.706135524982512 9.102963019523802 10.781467665905044
Sn 11.742193927435542 12.838044342031997 14.250803196034072
Sn 9.36177401247806 8.007565268163004 9.157981822703476
Sn 8.439481551514005 13.548861205558062 13.306942564853816
Sn 13.62853845527564 8.604592621592275 12.992277626846079
Sn 8.050682316032876 13.76472175314834 10.268601500737116
Sn 9.219384301072514 11.518602327460952 15.717700418522442
Sn 12.028646253844464 6.69394271634161 8.504046919274527
Sn 11.689496122185068 9.913192701971402 15.02807682142069
Sn 8.032682838632564 10.577180957926782 8.608584638086036
Sn 8.848675447297548 10.817799848908399 11.437486349991012
Sn 12.71698898652489 6.074954633896789 11.553479320255718
Sn 9.822744018917158 6.843802591970623 11.811874131493193
Sn 9.017601219128949 9.034459122346378 13.853974667501554
Sn 6.8193076425046275 11.087747173988369 13.871886557755072
