20
Energy = -69.64099197 eV
Sn 9.720422216613501 13.468765242312555 9.29815660079023
Sn 13.113980305319307 13.043871558142644 8.7763621164449
Sn 9.690874853477895 15.297627496265465 11.724568172087125
Sn 8.942500715383156 13.703382223007063 14.280183506810687
Sn 13.786759794528782 9.932715150949228 9.244983163431591
Sn 8.640703088687797 10.62884845310777 10.212017745059843
Sn 11.331038618234901 12.078918489583119 13.740822593472977
Sn 15.555227858625548 10.98488305870266 12.022186859902178
Sn 7.558461546796033 13.092334366633334 11.639390112838198
Sn 8.254698598865827 10.697441189980388 13.547182547577247
Sn 14.40196019789715 13.225405206453711 13.774818309970845
Sn 11.516674910121228 11.295425714836583 10.812678269066726
Sn 12.41705555697555 14.141819130103991 11.655701058301368
Sn 9.222515137632884 8.11225864145426 12.209411948899634
Sn 10.887695974061804 9.108574027968453 14.448844920077702
Sn 10.830104503109727 8.500205681725255 9.657001604078124
Sn 13.71205208635698 10.20930629319479 14.511079371650899
Sn 15.326307520360274 14.085854104570258 10.904337875855157
Sn 16.020861608553453 11.875908837344955 9.097012060624513
Sn 12.844284622791891 8.620926374494074 12.02820179236866
