28
Energy = -97.65923058 eV
Sn 15.349344571955221 16.406972257698047 11.354674666547329
Sn 17.453850121136362 14.242268565290864 11.783866649828502
Sn 12.278506577975106 17.201396844823847 12.437612725759212
Sn 16.441758459677914 14.115555566154253 14.688190954191116
Sn 13.644082036350177 17.999218163046358 9.748730006852007
Sn 14.792953118899783 13.219121853306167 10.906256449151906
Sn 10.271411428703601 15.972529651370186 15.090217748033242
Sn 14.00090649631106 15.44314474589167 14.061293973775793
Sn 10.282806309874651 14.849573940979413 11.869533286326316
Sn 15.66374363076677 11.65926467401171 16.11663150775774
Sn 16.30073436639995 11.531820260129033 13.032946949702483
Sn 12.759125799080488 15.192439738982957 9.914781181280159
Sn 10.255342927359605 13.574295235977354 17.20045445618288
Sn 13.575987566953083 10.463086199574276 12.159638225294625
Sn 12.703730428508369 15.417791449466877 16.80908577037368
Sn 10.813575606360196 11.660041807396293 8.201802941363006
Sn 13.646384567317925 11.092819912426569 9.018306435503662
Sn 8.918094812542382 13.454947983143624 14.334539499889935
Sn 11.209508022329677 12.145843254417741 11.072707508791234
Sn 13.186727649994197 12.575312034129453 17.59770178637335
Sn 12.10460110687834 13.146102652728123 14.565591277478612
Sn 9.99137649789751 10.827564307092036 15.720907969156524
Sn 9.320172948905782 9.78821517740814 10.185942274424894
Sn 11.636520124404337 8.665999586743096 8.48994898154419
Sn 14.231683290177243 8.390306613155321 10.19799296719844
Sn 10.58830427697724 9.829851192522296 12.94308312004056
Sn 13.075332210005303 10.219279911020392 15.26013828217232
Sn 11.418189020107079 7.520530458651391 11.277197944390853
