35
Energy = -121.20701086 eV
Sn 11.136075999491926 15.0739817632747 11.006824315190832
Sn 10.957689223117592 16.700776977756075 16.836104513874183
Sn 12.879170371701239 8.569682179053107 18.533536203147715
Sn 15.56389147173202 13.081703850689772 13.153103527307588
Sn 13.899718426305858 18.78694250451358 12.631484181559838
Sn 15.248970916328838 12.501580010905174 16.342639530878138
Sn 11.971947556687597 12.221449218609834 10.784978973825345
Sn 17.391067469298623 15.278841075245664 14.523039475691034
Sn 20.331459760718896 15.82117240576041 10.581804528745497
Sn 13.441210092689447 18.37509261639631 15.848349801121234
Sn 11.34571125329612 10.881100040365899 15.175721247742787
Sn 13.177851179035084 10.781018002873548 20.57625763820513
Sn 17.440935761335364 16.035617911220786 10.71680215695815
Sn 15.509793266944412 15.92201633366607 8.443639916534776
Sn 15.314664885253759 19.058174801386812 18.299911597603813
Sn 15.825006207095555 18.524998953601862 10.125747168472458
Sn 18.58780609535074 13.613709055001133 12.006784331923589
Sn 15.454188495517396 10.214095183067212 18.58765063130115
Sn 13.079862861958402 17.184716699892014 9.887331475391653
Sn 13.793497946705852 16.37718505557813 19.341552946480324
Sn 17.443477610352137 14.183043152125634 17.681755879369245
Sn 12.001066150088967 13.4935262801892 13.632973864094039
Sn 11.540576468070656 16.5652347228693 13.783671017772248
Sn 12.414221288861404 11.542789678564054 17.84805950545288
Sn 14.237451491203638 14.236783419667567 10.5765331571476
Sn 13.592189982510245 10.852565769649093 13.042166271477472
Sn 14.737460487513463 13.328286264319692 19.390990252223837
Sn 21.38613331546945 13.530413229925104 11.850783399225557
Sn 15.567461465864149 16.408407108933346 16.70588454992543
Sn 12.25086512933576 18.814180009245554 18.65093261754151
Sn 13.103149782911155 14.565955817868167 16.785954162707657
Sn 16.887327827424613 18.00965568189808 13.090932245651729
Sn 16.783535964024217 16.563012815224084 19.52850387169676
Sn 14.506478617788266 15.909473836213285 13.209256635148282
Sn 14.101394438579453 9.45761247450902 15.859230762786602
