39
Energy = -137.24383504 eV
Sn 15.393708627532135 6.652253656617508 8.56992427868309
Sn 14.472610462417018 7.2772949419489885 11.456490297899563
Sn 15.966255795582102 9.402797186677446 9.6981455769107
Sn 16.054287205166546 10.714507779476206 12.459398250814
Sn 16.20766733605176 13.611433648901547 11.053171107966929
Sn 16.68640005272313 13.211407785578201 14.210862550288171
Sn 16.216007995932248 16.088842616853324 13.092758014060019
Sn 14.035914396748952 9.004667329162798 7.116865368277231
Sn 12.43963515926231 6.858606382976597 8.992885089081781
Sn 14.242229295005911 11.733115669057277 8.868230044431954
Sn 13.819256673082903 9.622377550021255 14.200074632214632
Sn 13.156905877409892 10.349625831635834 11.265975565254573
Sn 14.952279593139567 15.290079549380843 15.783309372868997
Sn 14.190259842429773 15.91011132452476 10.641785046303658
Sn 14.17939247397903 12.261662181728935 15.770933995750571
Sn 13.707724581192302 13.51041160224876 12.852276382994589
Sn 11.532912266649863 7.8663061852482405 11.91141764409384
Sn 12.282994603238857 11.659727092683005 6.534692346703168
Sn 11.450021824881846 9.709213869534334 8.522429135551695
Sn 13.131956300556412 16.71547842715547 13.549031696631056
Sn 10.811243705147579 13.120356181208587 11.044583334823866
Sn 9.357035774383748 8.051894003330828 9.759630206576215
Sn 12.110438756576894 14.382291649110645 8.625978781710085
Sn 9.961148583432978 10.691166177097914 12.836173597758195
Sn 11.960411501237354 14.43074785635242 15.262976781913054
Sn 9.379342685807636 15.761036929238376 8.613425727947224
Sn 8.032889215731364 10.772902933042038 10.12809818011824
Sn 11.27453431650265 10.549829754502191 15.541614862719946
Sn 11.131836718272394 16.390481435338703 11.020081672055017
Sn 9.505686437105322 12.662182336200997 8.219080914492087
Sn 9.763011501331684 8.012710751544713 14.54146060521132
Sn 7.6353891438608965 8.443717877050304 12.553629793692119
Sn 9.391275599252845 14.875794082413735 13.064587709012867
Sn 7.734561419699652 14.174078760331739 10.566154523900535
Sn 9.137659594585433 12.730409917261767 15.34808478217892
Sn 7.140084414945382 12.080026328046184 13.232574258151407
Sn 5.472790559076117 12.070037832043997 10.787467907133463
Sn 5.095616724404731 9.780112694128084 13.21714076465794
Sn 7.238306524092392 9.833756279280108 15.329771374168898
