30
Energy = -104.83441811 eV
Sn 14.382250858102772 15.453234200832545 7.850543463212502
Sn 11.819539434773617 13.859294361208468 6.97368084862083
Sn 10.0661427066345 9.65933585474925 10.065657217124311
Sn 13.302479336544708 10.22354023756294 9.547102011098616
Sn 13.506333902719758 13.383351570939682 9.717642532381257
Sn 10.648605351390943 12.479372936029222 9.419118202775232
Sn 9.32677718214832 15.09703174677172 8.561732755479044
Sn 13.432078280239157 16.49941974104219 10.546533572409523
Sn 12.172644256898248 8.686655608566282 12.101211973527468
Sn 11.669770629120363 16.83000680354743 7.705876294752254
Sn 12.758991311966179 11.729073813870736 12.810912563579803
Sn 10.79487859900955 14.609145924909694 11.455548513465937
Sn 10.494146997922341 17.318624382602778 10.513841517821952
Sn 16.076815491145943 11.866702990091333 10.425203458169701
Sn 9.769975803550375 10.576381169474283 12.939780675472798
Sn 9.416475019090518 14.255080416395318 16.291507534352053
Sn 17.3074752796128 13.92794842933543 12.278711903783373
Sn 17.479135285914268 11.23471290508217 13.370025185511963
Sn 11.603886619601683 15.226009059943806 14.42030983417565
Sn 15.050360006780338 9.521350707253507 12.203955815681347
Sn 14.302883903589326 14.444874492850555 12.738594720277137
Sn 8.975979394216653 13.377861552071716 13.506583661649609
Sn 12.30461011577313 12.771442682709516 15.873893178972189
Sn 11.389845819725712 9.88442673058712 15.379216274007078
Sn 14.7621098369878 10.92973321312276 15.105328467044682
Sn 16.20350149451369 13.55710744495001 15.065818826023865
Sn 10.211482423606682 11.58560848589013 17.647095806580012
Sn 13.91061512716316 8.644852017388176 16.751509348575137
Sn 13.42550835287422 11.371515439362337 18.32848358837038
Sn 11.460042922444359 9.021646824919744 18.429921999165565
