35
Energy = -122.48467332 eV
Sn 17.657595601833194 12.93832117975733 18.126510359657757
Sn 14.566613913519697 16.474772418654595 9.022458227628869
Sn 19.17473460797473 13.170216011711538 12.804607371187197
Sn 15.50383751661454 17.28568586998063 11.75841164805856
Sn 17.901260331478863 15.519487952506378 11.337155405265257
Sn 11.914245351615191 14.761425327944838 11.996128937244338
Sn 11.196590143749038 15.701896723321884 9.294555727334602
Sn 10.173096248661471 13.870404592452383 16.661503495148715
Sn 12.526127811976831 13.588401767388902 18.730344731318144
Sn 16.271565736062275 13.034398288581915 13.622304691703398
Sn 14.930206948122045 11.695658211881325 17.53803593216236
Sn 7.500618142966065 12.804716659085273 11.500410344992375
Sn 12.103487501317899 16.306888274829316 16.67492208288087
Sn 8.991301506871379 13.63261889789572 8.978958887361465
Sn 8.789819074635417 15.623907150096057 11.397968287385547
Sn 15.395862351930397 14.946098801320028 17.777351806283015
Sn 12.453702187484902 10.682426705274285 19.021734452875158
Sn 13.412526084771143 16.29375698178017 19.41080054963591
Sn 13.317086525466838 13.722203970781393 15.584314220042124
Sn 17.93186932931751 11.325089017122494 15.497555636783433
Sn 13.295591289553688 16.6956146758447 13.860066708542234
Sn 9.637006767974597 10.881294528002414 10.156771486568013
Sn 20.721033867177837 12.433995889488214 15.135626317064524
Sn 13.956077812321285 11.192268345845394 14.239047299875908
Sn 15.14457769716236 14.265199912629653 11.0181823919018
Sn 9.087450441144101 10.793947976756433 13.287312064074444
Sn 15.885126087749397 15.696453183506001 14.980420403867045
Sn 17.330093538195495 17.67523778498127 9.22791207821996
Sn 17.017444739783333 14.641639500982258 8.590930017652324
Sn 13.334974297481073 9.273473748859047 16.45357263458654
Sn 9.599520768815374 13.781053246951888 13.652039108453858
Sn 11.042653522169623 11.076723631721878 15.958228674870787
Sn 12.080401753109934 12.718466622631533 9.492326208633328
Sn 18.63040149611404 14.472978347750978 15.687427566585907
Sn 11.72162003069256 11.748578616346748 12.317463197274256
