32
Energy = -111.77228389 eV
Sn 18.319489215499544 11.004869434772774 12.836537130920194
Sn 16.35462414956027 11.794669686629065 15.118376508944811
Sn 14.626092308415414 9.589975544265126 16.5018123013697
Sn 16.717143869234206 9.81606618072862 10.316048167866608
Sn 17.82692247692423 12.544778980332849 10.329749796720735
Sn 17.878648119217672 8.064951078706509 12.47396873933134
Sn 14.673167889247752 14.448113561912939 14.783982943963501
Sn 15.025797839160374 16.095036047554544 12.003207075739267
Sn 15.46927171792321 9.470387048044696 13.353161379679706
Sn 15.470015515100513 14.542057426682327 9.40618302762915
Sn 15.519972576947316 13.014737616227182 12.278674287931247
Sn 13.973539360245777 11.144485854101921 10.725497991233457
Sn 12.8728704110105 11.938444035164308 15.533133220101893
Sn 12.75583014946601 15.833358018029129 9.664223269411194
Sn 12.978712005009694 12.948358896392374 8.453028328556684
Sn 10.821722331967669 14.136500386815005 15.238279653322389
Sn 11.612300338146952 9.088102561284737 16.6168485699785
Sn 10.99927099289156 12.944885215606998 10.983769374402236
Sn 10.263622846067676 16.433265271757634 16.923969245964976
Sn 8.465469943082152 13.49765916868628 13.415980981570312
Sn 13.197635639620229 7.722949302146816 14.299529305845661
Sn 9.604898023370069 11.054338300177353 15.319205554245196
Sn 10.13268530531127 17.236763523905456 9.306560406489734
Sn 12.242684358433802 10.502305813832134 13.047417210940969
Sn 8.307597313978315 16.328980842795083 14.670204299799865
Sn 12.336790983805958 14.903960042105005 12.723957034256912
Sn 10.2075162218129 8.336493644537782 13.891914627073902
Sn 10.153328905543932 14.330392844474606 8.221322392835878
Sn 11.589369407287442 17.37461530892011 14.429666063787396
Sn 9.193835834968588 10.729783934784788 12.21940900720368
Sn 9.781640291904575 16.945746708157028 12.198468167800984
Sn 8.467221654772219 14.741967285008347 10.630847960168564
