32
Energy = -111.08431311 eV
Sn 9.88101328454833 16.29725258506321 11.09114275098809
Sn 15.595572205826702 8.326024544153581 13.467611651258798
Sn 8.122544631621023 13.86328903560864 12.387804885008329
Sn 13.681657698404807 14.145339143856726 16.386990976700027
Sn 12.150043021562626 9.681282976387275 14.55706405510522
Sn 14.616562913491334 19.827429382987873 11.25074123118636
Sn 9.255720298474236 18.595691438747124 12.751774181776915
Sn 10.525217897959344 12.142792824278912 13.86711004403389
Sn 15.722066773395495 18.34591782319026 13.565045522838174
Sn 17.266008774314244 10.240673069095513 16.298155704738917
Sn 13.078293255608779 10.574449316066609 9.862646898390913
Sn 17.132714923139034 7.640424393997602 17.90182633331781
Sn 15.917501349179378 9.841877535285201 10.968830730146662
Sn 14.750682163664615 8.092704644416933 16.335558751177786
Sn 16.914635720641368 11.404686862713337 13.43573085083404
Sn 8.454122642776094 13.69687218996027 15.282697532012595
Sn 17.768719531827816 7.370072328648516 15.098164189710653
Sn 11.990858790387481 14.507855549554586 9.788100541294195
Sn 12.84356273606678 16.800329468810123 14.8039350328201
Sn 14.449288618945634 11.274652634914355 15.617726840038477
Sn 13.448230388906055 16.908374124790928 10.909892140919613
Sn 10.417771413701079 11.931156874441186 10.875007416953355
Sn 15.318485627669741 15.098244920675564 13.085478206455008
Sn 12.211810800504601 18.844935290498555 12.710113188896976
Sn 16.621043121621067 13.671216219990741 15.651207302555163
Sn 15.67459052600748 16.555551787414135 15.925512833675866
Sn 9.890337665624594 16.03470201876744 14.156477343435672
Sn 13.04276171190453 8.426863467850726 11.922946073906584
Sn 8.73456349728415 13.994024605474134 9.540373069710892
Sn 16.345607929263693 17.147471859176083 10.918668861082791
Sn 13.829205284558318 11.53782460413049 12.603302187716576
Sn 12.227985851037245 14.319599375658342 12.805780848218587
