35
Energy = -122.34640057 eV
Sn 13.761442422369282 17.163582366032728 16.416873384712595
Sn 12.77770280144279 11.663842487131006 16.81682713823417
Sn 13.91180888363316 9.94015027698856 14.428630750867033
Sn 9.61144719926225 13.798500898215817 10.040139594182596
Sn 14.740701698021576 15.119446139907213 9.014477068418167
Sn 12.088326206492832 15.792749540718992 10.618858917506161
Sn 12.221164037064787 15.754517441325127 20.533202798337744
Sn 16.173206447418007 12.677448516165873 9.924899965781535
Sn 10.542338872394987 16.734847456190835 16.131978849322152
Sn 17.23184738849596 15.58691886273937 13.120928097329159
Sn 18.170366313190957 12.634487155653503 12.345071318234872
Sn 14.367702937985559 14.958602768427205 18.377945953291967
Sn 17.47044862512219 15.643498300179976 10.136279347571946
Sn 16.980672003387316 15.073643118483565 16.128394973884358
Sn 18.053158416216903 17.536289063706814 17.280342968496146
Sn 19.54396132461903 17.089660452860514 14.715897800538876
Sn 9.507639536785005 16.323727148211823 19.056365230759848
Sn 10.348600245796362 11.09017222360594 11.202381993854939
Sn 12.643848143766688 14.632728930183521 15.13954780350875
Sn 14.444881095125945 14.303224278840984 12.079497806367513
Sn 12.496702459812024 12.880399451579871 9.461772077042635
Sn 18.071049986155998 12.134898073134714 16.62403769488694
Sn 13.18003289128286 11.513149366322516 12.079917064264281
Sn 16.566432297810632 18.081928620323666 14.595294767513032
Sn 19.110834339295337 13.284994313926413 9.641735236640987
Sn 15.46912188982136 12.212548992898922 18.176027541148088
Sn 17.14583224865208 10.610784987797064 14.176685440498986
Sn 11.730382583425625 18.243723297390154 18.648989355069293
Sn 10.913686872953516 11.366052032690778 14.303408657117464
Sn 15.254082787937355 12.780037377410158 15.06529155668666
Sn 19.56281721762359 14.075934163669093 14.670302326889116
Sn 14.547933644012678 17.66546641548931 19.499637668738533
Sn 10.807600097122915 13.88378676155019 12.745180044492006
Sn 15.682686125589344 19.42244244801106 17.140986083467833
Sn 11.353453257191092 14.296022735027353 17.89278290437583
