32
Energy = -110.70205857 eV
Sn 10.47886773786845 14.854579707600347 14.18524024734835
Sn 19.31303314082045 16.438313006534017 15.545094047778218
Sn 17.115100170239497 18.592724243689744 15.19123529677071
Sn 14.294929554369793 11.254180423199392 17.99623652521812
Sn 12.761372663599596 16.568924171286465 13.367960363502071
Sn 16.206989290720916 17.38023420420042 12.342997269128297
Sn 11.703515897938544 12.710564492061831 12.471702322733133
Sn 16.346649854039434 15.657366133434719 15.897117013356208
Sn 13.505020184297216 10.87015548292989 14.341266596587673
Sn 12.036871988542861 10.058723663947937 9.810098462565643
Sn 11.304673017425683 8.83356555616061 14.745756933966597
Sn 14.096896364720502 15.185229841848399 18.34330811982086
Sn 16.232215513754518 11.016149875866892 15.619982850109757
Sn 16.757577025854484 13.253185546363001 17.517391745598555
Sn 11.81649622559802 16.44576307781092 16.49615265761036
Sn 10.126295659871573 13.896005500581824 16.98461874584849
Sn 12.40919468000081 13.190085377100514 9.710089636001245
Sn 13.153726228860076 8.609351227412832 12.28482852573781
Sn 14.845508032145457 18.313665831965434 9.816732033007222
Sn 13.035753403073358 13.496488414435445 15.894937226518545
Sn 18.02097409698036 15.103640654718973 13.22602205689972
Sn 14.367187791735377 11.469140867011534 11.425521570521365
Sn 11.491259245673705 11.047072754020226 17.023663016299988
Sn 14.935090797963776 14.425926299463994 13.583753839693113
Sn 13.841687099890356 19.239477083435652 12.585181775488651
Sn 11.98517885035599 17.651343623928106 10.640997480984312
Sn 14.530290463726994 17.825100195487718 16.900967259915422
Sn 15.201740980899737 13.117891283112185 20.08820712787904
Sn 16.938421186910507 12.25027244389151 12.891877583990162
Sn 19.042170540108366 18.08211875193395 12.896052741092861
Sn 10.329236476539501 10.100685450887443 12.230594747521634
Sn 14.026953289545464 15.477084415002436 10.66591520834457
