31
Energy = -108.71669726 eV
Sn 10.842670811962064 12.503092982024425 10.715776852705684
Sn 12.19230681679801 9.935231711854762 11.903552263674706
Sn 8.164090016105575 9.68240614495628 13.947813199332236
Sn 7.784671690870595 12.984778921136495 9.993535307012914
Sn 6.354915381725554 11.715215472922722 12.463777417665089
Sn 11.563551511620608 13.093435465431726 5.852142147073169
Sn 13.982366619686118 11.884959329632583 7.442154473057403
Sn 14.105524245443892 14.559623388151792 6.020167964303805
Sn 12.031244361314785 8.251291435956208 9.214367511002285
Sn 11.869777780299827 14.463877813533392 8.442847780596527
Sn 14.361512000714988 13.439376767523477 13.456570407949828
Sn 11.373935660900909 10.257312035903547 6.814612498948807
Sn 9.713859162208202 15.54509639978188 14.048372355106023
Sn 11.816482648539603 13.62969341087015 15.192714315166084
Sn 12.204729150369289 14.940401005638945 12.194004067543128
Sn 11.076325261774308 8.196947157604269 14.399735242558654
Sn 9.45381685772304 12.466640306478567 13.29696372304538
Sn 13.908669509858854 12.260574472434937 10.590586649544633
Sn 9.417740189763625 10.546092336787495 9.00153472277792
Sn 11.64172573142692 5.563442919568156 13.02040674047508
Sn 9.695954430712712 8.229625873317756 11.594004252198788
Sn 7.183294724489082 9.528581344972633 10.556304391230691
Sn 7.258014874133236 14.649110790739632 12.715118820896599
Sn 14.640006443641893 8.8461768832225 10.614190242527407
Sn 10.532386246311601 5.789434322126729 10.157904099265
Sn 13.185363315017465 10.783639163063775 14.558749157950446
Sn 10.458531469673515 10.786156493080297 15.901837949265806
Sn 13.601555442439958 5.91769593344736 10.802444640479917
Sn 14.760293029674765 14.70252214757172 8.9256063263919
Sn 9.550745028293216 15.59387590702448 10.788839821795264
Sn 14.066342521892226 7.578977410223156 13.384821731631492
