36
Energy = -125.940205 eV
Sn 17.50579656565728 13.274936832684078 17.493754258508684
Sn 16.411250599510907 15.861594587607403 16.265600237282086
Sn 16.22644667379904 13.331903094645833 11.82401640213262
Sn 15.245750538569132 15.882295457775923 13.401329529622815
Sn 16.345594359972655 14.356315612509702 8.956551005082106
Sn 16.144367072288336 12.751277839226448 14.947098374734193
Sn 14.535799840811718 13.952103934179814 17.9336231246003
Sn 14.18138336645696 16.10526221788503 10.329116873529154
Sn 13.972224941440409 18.54415405170359 12.445292631828313
Sn 16.454270178930358 10.097768263053851 12.126216278057228
Sn 14.328257702012904 16.987631419705313 18.27477598519858
Sn 15.609884725714892 10.895438323523178 17.683687454638786
Sn 15.872583144494305 11.348983184775875 9.378532391806038
Sn 14.648778176030195 7.849313536742925 11.20029998467567
Sn 13.50008046727253 13.362679079667911 8.691714657816625
Sn 13.991163005692249 18.435913356303534 15.59915938211767
Sn 13.185374496810802 12.925716999165404 15.403097982689626
Sn 16.150747864723634 9.474225828045691 15.10696315482122
Sn 13.063139278108647 10.036310420248093 16.286009768125837
Sn 13.231267886283508 13.431727934198339 12.36787290672916
Sn 13.547018752941785 10.195386354073598 13.178258890993934
Sn 13.963233784518183 7.498557889270386 14.946874255255883
Sn 11.659250140134498 16.747356753983702 17.001023694737174
Sn 12.357292179219133 16.148371900781633 14.046759140658367
Sn 11.349646604525468 14.819385654702673 10.598136418608807
Sn 13.22440286290093 10.108904466706155 8.663903598759797
Sn 11.966856651788936 7.326258058117867 12.722040481222379
Sn 11.061857712523647 19.204005005100893 15.070518214093662
Sn 11.05884474320403 18.01179243453617 11.86049675050713
Sn 12.21282452096983 7.4664738395412655 9.573483915133975
Sn 10.851856231130734 12.035424715082355 9.390002513507746
Sn 11.144824141463067 9.810379647820298 11.253122917101994
Sn 10.41923086712031 14.291989670646355 15.760495856854991
Sn 8.593069935341676 18.5195085299314 13.499106162361889
Sn 9.465227323428298 15.539526098043263 13.13606479778392
Sn 8.810382460815374 17.103497263714807 16.155380196843204
