38
Energy = -129.07434035 eV
Sn -2.9182572464338703 0.17047611793043413 7.628625389801092
Sn -0.04710749040196182 18.376314381306063 9.095184063992573
Sn 20.200462962985032 20.74756351283438 9.68477372497178
Sn 16.214098069679338 -2.275492162844007 2.254287871449587
Sn 19.988760421106853 -2.3271541026320035 5.813978241862989
Sn 18.717257930746367 18.6695799765959 2.857328916719645
Sn 21.466552332985273 -1.2309733922572466 12.513381014537373
Sn 0.6374146508773758 10.522132107486835 22.789266313353917
Sn 20.91124558040915 0.4504935270609091 4.782469241647182
Sn 16.12633859458956 20.443287673241333 14.897400178303142
Sn 17.778829091368767 18.859796003890544 16.948737791095564
Sn 3.344245912744899 11.162045477285446 0.20907471471977446
Sn 18.968977297346758 -0.9239498359534593 3.11831968718022
Sn 21.766741804999395 15.982486610022756 11.08042148353162
Sn 18.440356655196396 21.848882122967026 11.81496032613213
Sn -1.2968739554863555 16.05140541438889 8.075903035647478
Sn 18.892021601796895 20.519350563486956 0.42988188654023074
Sn 14.921666305624477 17.566711682778493 19.967414710363414
Sn 15.113902236574573 15.759816414880232 22.355134659982777
Sn 16.293338343786203 17.333862901012605 14.424839885019896
Sn 18.914506147301367 17.010606035923573 12.490437963552138
Sn 17.046638734628626 20.061712824542212 5.1838016170246055
Sn 17.977611934910442 18.59731944590674 20.646705983531
Sn 15.902824026346872 20.585653268544814 22.139502255648033
Sn 16.40985757388044 15.855436742628468 17.199514074086444
Sn -1.2235385330166682 18.78988458597446 11.901484626927479
Sn 14.536341643205617 18.33790408147117 16.681539983753993
Sn -5.086002629343591 0.10364428125097219 5.672383631950598
Sn 16.03187063038948 13.252240283718905 21.250339976822335
Sn 15.814160750126925 20.21899335864412 18.973380562946907
Sn 0.22098095372930757 21.219509714731615 9.903929392549793
Sn 14.440595974061695 14.722191339520043 19.18559214284832
Sn 17.451451873086256 15.583864660667839 20.089272159712056
Sn 16.773618854037935 18.025945435284452 0.6258793898405101
Sn 19.25522441416047 -3.187348424478027 14.06691429979093
Sn 19.060152371799777 16.457456180282232 15.634092441692747
Sn 16.892063451231817 19.28225606171766 12.083959948125171
Sn -3.3099780755822517 17.765540762881248 9.461347754461974
