39
Energy = -136.49933269 eV
Sn 8.210668542514874 17.20530396106756 12.315416256701731
Sn 13.601473153612133 16.53453096986638 10.903368115253814
Sn 11.99088422933465 16.0280276980094 8.360484766641312
Sn 11.203564834149695 16.910545926071165 13.244608557029363
Sn 10.084739474152947 15.500728807973763 10.587724078724232
Sn 16.499775262159865 14.65591246303083 11.558583363668475
Sn 8.752696051410446 15.74363569781119 14.93572528751757
Sn 14.162665363597775 15.416479064112705 13.74224744673164
Sn 14.787671972918853 14.505614159650772 8.885871366924192
Sn 7.648598284047816 14.287325405792922 12.109728323459118
Sn 13.521176115308796 13.388544207285527 11.609434478367355
Sn 11.579539749942224 14.854208011331798 15.505409247425284
Sn 11.850548237614296 13.02736413550766 9.131798197763187
Sn 10.530490191923134 13.250558712996604 12.971731576593392
Sn 18.530193451391714 11.953977262032287 11.83752843565204
Sn 16.409543880768858 12.496632878110525 13.96576577047252
Sn 6.161139952811857 12.289304675741697 10.567704135129151
Sn 14.42215270707275 13.121845200817344 16.13076045218468
Sn 17.3125601945696 12.81067970324854 9.222540170181942
Sn 16.161646305461552 10.341754751123599 16.26394326973204
Sn 8.6753489074299 13.05755484006855 9.056867506648146
Sn 13.287542779525578 11.157256379465247 13.851526892337116
Sn 9.384065311726427 12.83293605708016 16.0070611647521
Sn 18.23806392528504 9.898033408620556 14.183488372760028
Sn 7.465778818616454 11.597232479797078 13.600357237806532
Sn 15.519444913275954 11.189827200333488 11.13078777480886
Sn 12.02730523847197 11.141471146818178 16.591460393461723
Sn 12.605777776390948 10.07112378416003 8.30884456427652
Sn 11.460972925410957 10.461905096962125 11.270717985896367
Sn 13.730173246612472 8.598299562326043 15.947109942370423
Sn 9.567379485675024 10.291030139126113 8.012350769251087
Sn 15.437585367474927 8.97105081456007 13.412843024673185
Sn 10.113134332557676 10.107305058668992 14.367455095310264
Sn 8.420658697294801 10.32557348059908 10.920828783108458
Sn 12.057429014109042 7.955881476076577 13.264001884405236
Sn 12.888467051610458 7.758361596108327 10.332723370061123
Sn 10.696109060477069 7.383350953744644 8.270153657924267
Sn 9.834211216055394 7.49171683957982 11.248762774082751
Sn 7.801256378200574 8.017801420008725 9.012810104541556
