34
Energy = -119.42625744 eV
Sn 10.331651732366446 10.252196228210886 12.901655447087133
Sn 14.294171272448931 13.65608745552413 15.950062770944307
Sn 8.024691575748738 9.574556016296423 10.678949436039957
Sn 7.36274655354482 15.335698944365568 10.28364120333126
Sn 8.844971256306955 7.455032232984368 12.860299035888508
Sn 7.6416906107350915 14.999414711026276 7.290692337430584
Sn 12.899032923227216 15.380481477055687 13.9618916698602
Sn 13.222443556214614 12.918671699857722 9.164293185575431
Sn 8.289030358597966 12.435991278457175 8.819312921536305
Sn 13.36126594455435 6.082920177440455 11.824299899113262
Sn 14.562931996496905 9.650214888676745 9.554995611226339
Sn 10.428852535392569 14.758214350061488 8.565926421567
Sn 11.678071031726953 7.44751299105309 14.104235292892291
Sn 6.708955850745672 12.454795275148562 11.500437112165226
Sn 15.43975663367385 12.19659206980062 13.679420773803853
Sn 13.598131506162563 9.434852187024338 12.352116397016037
Sn 8.933066901322913 17.42729565185348 8.516912983252784
Sn 13.233077795715715 15.745309548933031 11.023797762623504
Sn 16.766919536145718 9.396966415176797 14.235782101906729
Sn 9.785365659302382 13.50483959205791 11.450431740387977
Sn 16.156768495476477 12.173620825169976 8.947470731651492
Sn 7.264885930352119 9.936480110342648 13.587476303069039
Sn 17.058251238310252 10.667262944663527 11.373263797438689
Sn 10.162551368197017 16.580968733098384 11.148929881502507
Sn 15.67543463374343 13.974751876233453 11.307787534690108
Sn 11.668730852984387 12.60526125019587 14.814928371425157
Sn 10.901963051859813 10.66556430677029 9.887625643896584
Sn 11.039745840050685 7.721427471426334 10.788490995330209
Sn 13.750642873385251 9.731521398304526 15.32505591863441
Sn 16.209225525633993 7.6587224358954735 11.45481107042435
Sn 8.514447986099022 12.811374800113358 14.129726447786766
Sn 9.850606476964234 15.584802137495249 14.031401238792224
Sn 12.835803682637124 12.791196839650546 12.074162513176335
Sn 14.962731319755076 6.9957944930317595 14.203716737733403
