39
Energy = -137.29028814 eV
Sn 6.335556935658859 11.017562784296704 6.260710602480107
Sn 9.296066591280013 11.175713958296214 5.409614773028669
Sn 7.735322212580395 8.416747830744502 6.133251648518507
Sn 8.246809374732019 13.36713853766668 7.2866061781991025
Sn 11.609310135729356 12.940347637503873 7.296584166043455
Sn 13.176050870130563 10.347574788252533 7.404814141755116
Sn 6.0364567057532525 9.066699338961373 8.766824329003947
Sn 10.698689751156127 8.347653930897982 6.93457561718975
Sn 14.965987156831211 13.064090544584165 7.708272246748744
Sn 8.852592545291122 10.466135900229366 8.426286314106104
Sn 8.324725127371787 6.573586201282499 8.766750342814575
Sn 10.23067036773524 14.729732118599253 9.4381682423269
Sn 13.200263084381337 15.057854703071687 9.077229235713379
Sn 6.247775932716618 12.106896181876143 9.37608526185375
Sn 13.42742053835605 8.274471575928086 9.767762728364401
Sn 11.356406497116673 5.961148476319533 8.992674990864748
Sn 11.77966486462856 11.210026991317633 10.010314275471487
Sn 15.030219610486663 10.942333932799379 10.005337394681904
Sn 15.6844649273327 13.93007135927789 10.62695579046308
Sn 9.27439102002633 5.264760616843391 11.417343013701164
Sn 15.650338031846324 11.76982460689877 13.046483579044002
Sn 7.593938093667346 7.963164842805276 11.502510788697252
Sn 9.112034027158577 12.579359399745538 11.531124622811333
Sn 6.406727803340063 14.339894954539085 11.510050436797343
Sn 12.89825030650955 13.383471092210975 11.789384013337875
Sn 12.17470991900932 6.266465265433915 12.061575030408177
Sn 9.11669540441649 15.694935439877122 12.227344396591693
Sn 10.415573784197942 8.484867785864507 10.773352913939027
Sn 12.578499650939824 10.463465019267502 13.357389576042792
Sn 14.958078893946832 8.641470541522905 12.635265247704773
Sn 10.75756434567296 13.812248116632844 14.088707525914439
Sn 9.84591963699995 7.429718269606392 13.652028592725706
Sn 13.755220097768753 12.79992176881895 15.208081594305257
Sn 6.478269577867875 11.420652548178898 12.689076381094477
Sn 7.665454789259023 13.806070102868492 14.20878894853383
Sn 9.289880375650002 11.050011617493526 14.172478246800441
Sn 12.950992287501467 7.860675515847872 14.993438004370097
Sn 12.239708668238459 10.500901533477188 16.395991729274574
Sn 15.133532447276497 10.002566560723363 15.580999468838979
