36
Energy = -125.53888901 eV
Sn 9.554716499814845 14.869857794592697 17.550166709492476
Sn 8.120106730223936 15.861780117214352 14.801347485964495
Sn 8.471552292756014 13.772988833383563 12.72447934599629
Sn 10.447874284036663 9.547387454766703 10.3693139023789
Sn 13.32958609857908 8.598480544408567 10.472899382819072
Sn 11.011618379669134 16.782767698372066 15.33973621167539
Sn 16.52262620872535 18.858640443748875 12.808390865144897
Sn 18.811379273259064 9.769383828790858 14.56077245052556
Sn 15.168713956480419 16.647835983235254 11.409267744212746
Sn 16.30044464704397 13.703214198254498 11.718295612573053
Sn 10.728484985218847 12.060635545320764 16.973060721724917
Sn 6.663851286203914 14.945575607895798 17.204519709609897
Sn 13.254574241103446 12.986102320615734 12.29140710410006
Sn 16.948357476300423 12.094388738708325 14.506688255889765
Sn 14.891041436663116 14.273389904136415 14.476779713613542
Sn 10.131260223792015 15.47740686464809 10.45846712052027
Sn 18.06476891611785 11.038294015074522 11.772029837764041
Sn 13.00985607577221 15.962099595289265 9.142436545812206
Sn 17.50474717365967 16.12406032215035 13.646858514514715
Sn 13.481058669964138 18.822664455872452 12.930043482480807
Sn 12.040503349265984 11.093574300486841 8.136656276044521
Sn 12.524830977437537 14.646326303150554 16.82561989055599
Sn 11.082765735658201 13.967693212985798 7.877904142410508
Sn 13.24255380064527 11.06699745019694 14.764116498006146
Sn 14.279532499027699 7.752784797533771 13.671908503196727
Sn 15.864575382481249 9.383958556501945 15.58061987008349
Sn 15.084941321339116 10.43173801529052 12.04801817732333
Sn 17.1462385205628 8.148772389247892 12.715457617958538
Sn 10.7975885121616 12.490534245844772 10.593966082797415
Sn 13.926956403324056 13.094100497358324 9.25672177928164
Sn 8.0198306699901 12.742345111882257 15.652156095686557
Sn 15.051619342847115 17.270732361780546 15.013801169617338
Sn 12.256853610049209 6.374423412848758 12.16782949633187
Sn 10.897953535863453 13.754029098340531 14.454509410425912
Sn 11.476214290870363 9.11296749709436 13.124819017732538
Sn 12.354001592230954 15.98156607068512 12.45392377133222
