30
Energy = -104.46863064 eV
Sn 12.752028365554107 9.885309642198633 8.605495797514951
Sn 9.778843292614953 13.754630273980377 8.841322061629304
Sn 17.884862738681445 15.059854885958233 8.87537036354973
Sn 14.834417560258968 15.638787339760217 8.376879651946558
Sn 11.75144913259014 15.987505225449901 8.451872087146908
Sn 16.062626732154857 12.813127121733533 8.961606846982647
Sn 12.97407974799866 12.97021632523419 8.48785603546636
Sn 10.303078403535554 15.89495913645272 11.134644371094963
Sn 10.000572283288122 10.72741468185531 10.111328018899743
Sn 12.096588615622343 12.67923885831982 11.273900219482474
Sn 15.606790743802566 10.018163722957826 9.806941617890837
Sn 16.16048240004174 15.162239751297355 11.165812193300166
Sn 8.967798533086853 13.09558219512617 11.699315875075769
Sn 12.901142534435186 9.662944848629976 11.546005119409738
Sn 13.470558785368926 16.75278581542198 11.020879859859397
Sn 9.381823793802507 10.386828552211172 13.55336377289042
Sn 15.06521997282343 11.99494925655776 11.983989726708828
Sn 14.322241588630034 8.845845525208823 14.043427546662436
Sn 11.116450337393024 14.649453560356996 15.906216037690042
Sn 8.738933118894483 13.319551077634294 14.687627146228074
Sn 12.360069437022963 14.914293613113273 13.22597537981709
Sn 11.281203062533924 8.058884047592109 13.897759690083868
Sn 15.27664145927333 14.29820369370129 13.86874296807773
Sn 12.036476096011954 11.7124074734501 14.380917078934598
Sn 12.399161826240409 9.31370171434754 16.664770317165587
Sn 15.041340969162105 11.471447394572785 15.181892908239426
Sn 12.834155088997917 12.486526400005491 17.290249911455913
Sn 7.400855039528733 10.819743726688792 15.807258792443438
Sn 9.41955939956584 8.465641802160862 16.258897439829095
Sn 10.020477063726398 11.399690460664667 17.129609287166534
