32
Energy = -111.69749468 eV
Sn 16.762214451992847 16.869625052667587 10.813991098684701
Sn 12.466901840243723 7.713517221977811 14.416424668979886
Sn 18.22494662905809 14.613368343024334 9.653569170217102
Sn 10.23655629669059 13.80042710837922 13.549188216942305
Sn 11.832456614860384 11.238999813120776 13.189849077550011
Sn 14.80888135782176 19.500352056265832 16.627422353380915
Sn 14.790485185445977 19.108150866907614 10.811750651229072
Sn 17.144985267945646 12.085123828213211 11.327895437871629
Sn 12.523781687318472 18.058968968550875 15.556740325085798
Sn 9.576006732910063 10.514092108861691 15.24532970928034
Sn 16.28963362479127 10.449870335920906 14.093934748332742
Sn 7.448529708340131 8.928087368922688 13.672388574933807
Sn 13.728708400184917 10.1976761498483 15.591817856407518
Sn 10.0930587842229 7.999344425275646 12.46125544468998
Sn 11.919327261041774 12.65740328554878 16.018677128461825
Sn 15.159132720990607 14.148568075169338 10.075841639786074
Sn 9.624234133012479 7.6154473418666 15.532174286370449
Sn 18.952588198871368 16.28738823098798 12.621340520218585
Sn 11.165751977443659 16.662820422688945 13.211626586053693
Sn 9.138200553734174 10.886807238672562 11.84511275336508
Sn 17.32461419512714 18.03685649811152 15.49207427374604
Sn 17.689854210286928 13.282257265889442 14.291679406520759
Sn 13.23829053857148 15.107941203863648 14.90523236176767
Sn 15.036047149247679 18.834936906425604 13.683301326221342
Sn 7.354304173392049 12.145811994852226 13.974340728767313
Sn 9.019217989270842 13.380922374025564 16.280054574135306
Sn 13.804348934897314 16.40805795843912 11.811716943842567
Sn 13.973042135729976 9.406814710569897 12.448859493205797
Sn 19.728403091367813 13.462247615649563 12.104137869266273
Sn 15.043433253330308 16.441953565125893 16.992958962724558
Sn 14.757108531951623 13.03949275442154 13.003483956458782
Sn 16.167914765978427 15.829770285476515 13.852502136311953
