30
Energy = -104.4621191 eV
Sn 13.063163808914332 11.490639025080123 8.731412442876358
Sn 12.07428330656942 14.335206768524538 8.279844920946644
Sn 15.920590092819337 12.223925544653895 8.592892426808097
Sn 11.57660504175862 8.849234872225122 8.537213453119925
Sn 12.606413469918262 10.399094607148491 11.549311525494089
Sn 9.548939537123344 13.680757616700847 9.684818759761487
Sn 15.560658004935075 10.019260035024274 10.47243833320722
Sn 9.629386359837307 11.43724898859387 11.655222156445559
Sn 13.67123612011694 7.666637298801862 10.252006573152153
Sn 12.308561912709807 16.24443341804161 10.539426896420235
Sn 15.003495160452978 16.73296010407572 11.645969865335582
Sn 7.032193561158316 12.275658411462896 10.069837210771514
Sn 14.55261719801067 14.045763589991067 10.486440045013547
Sn 13.750875641131861 12.997409109002438 13.082516708038849
Sn 10.352414035201528 8.33304601566492 11.17570749568997
Sn 6.983136425016266 11.816010573808583 13.029399850229648
Sn 10.932465057599003 14.337023660445224 12.42564809755131
Sn 13.794931239604628 15.76045804071989 14.171230700941907
Sn 7.8479272917035745 14.561546859547551 12.123985052685695
Sn 9.528327717395289 12.716386681326439 14.650147571413537
Sn 12.612753452767539 7.647597913202984 13.017099153564494
Sn 10.94430757277123 15.573732889610376 15.371283210329336
Sn 15.585178194176116 10.525654507976341 13.39792804668978
Sn 16.25814552868048 15.559350849895521 15.949168263002825
Sn 14.077631153644212 8.860438368972192 15.31732438830479
Sn 12.25820036209468 11.172495513501415 14.917360664813561
Sn 11.727645984220432 13.238008477336288 17.14992583976717
Sn 16.77409188911489 13.135345919909192 14.24442519523911
Sn 14.632497651108224 12.850065988469863 16.405096027594336
Sn 13.563357909380391 15.686639030220402 17.24694980472585
