39
Energy = -137.48459302 eV
Sn 8.763979768894396 10.050244813626389 4.308401914616563
Sn 5.79712140123696 9.15848117372155 4.993547869887619
Sn 8.241441718132993 7.495426570275592 6.1321005633085575
Sn 6.4415992974449825 12.076541901450302 4.729580085402336
Sn 12.193109795525306 10.72820688720462 6.3184873337349226
Sn 9.46001303786394 12.696627279226739 5.937826979478252
Sn 7.985791896920345 10.435270452058056 7.347102997110563
Sn 13.348848414581694 6.834962000907897 8.423836123292126
Sn 15.008007377433215 9.29098729922005 7.16244764920906
Sn 5.98392010169285 8.176913607400959 8.11078112447973
Sn 14.727597487207863 12.497384842426195 7.310960231240596
Sn 9.548707487270388 5.7975321165122535 9.529496059908434
Sn 4.913607941290666 11.055779625282348 7.31043950413951
Sn 10.744543858192788 8.28311323052996 7.658235245117505
Sn 6.918952065210327 13.459448635213255 7.508597859124979
Sn 11.840478569164535 13.204334931599389 8.405006910563051
Sn 12.310073392093631 4.695839133860413 10.486292864566446
Sn 13.135275949779619 10.38143958060659 9.203235817290821
Sn 14.467968033525038 7.300993168595565 11.255159273906957
Sn 7.239681944808577 12.293065913299522 10.434517450881435
Sn 8.700736273627804 14.127447000744183 12.529984776694167
Sn 16.201376776311445 10.93360302904377 9.567303750854915
Sn 11.436584471655557 7.9572116369361785 10.72105575695235
Sn 5.739661728953402 13.125415702586375 13.088470154162236
Sn 11.492787217652527 12.13071658541182 11.331760472940154
Sn 13.295963922083462 5.346696018357386 13.270107576272206
Sn 14.12826744960884 10.509742757744444 11.974390139156895
Sn 14.36671247555539 13.32906867191139 10.258752140272076
Sn 9.582518601300347 10.192984931727135 9.969989075033192
Sn 5.507675795819471 10.1296410583446 11.839430757971224
Sn 8.458313340357705 10.964099572649861 12.895563764591248
Sn 7.750382258581178 7.982516591524889 10.649881643893352
Sn 10.766270817606529 12.432532433489033 14.410659265903242
Sn 7.856143351297654 13.017286635615642 15.332155060680773
Sn 10.132078187421127 5.853365652295027 12.595790478374438
Sn 12.22994844937051 8.0849864116089 13.594518077599613
Sn 5.970323215084866 10.552689489195785 14.903835665627032
Sn 7.574783106597893 8.091180109613317 13.71213543634861
Sn 9.989136808258781 9.576606333597748 15.038545934827948
