38
Energy = -134.19397128 eV
Sn 16.622790333176475 10.542983370315598 10.282451189834623
Sn 11.651031444139901 7.221265362606618 13.39821973430979
Sn 14.078480157591546 7.8465192806906305 11.47146366066827
Sn 17.41992538139998 13.633257246292633 10.306916702988891
Sn 14.335602180013375 7.524278314109283 14.977984008081455
Sn 14.1653941087136 9.579120746242134 8.714361431413353
Sn 16.095433711178927 9.370802234294391 13.181190020445783
Sn 15.315178655244724 12.792263628748815 8.276094496921129
Sn 15.869971732779444 12.524555871956467 12.698890981108338
Sn 10.727017755907456 7.325499870207127 9.787527879783987
Sn 10.071478899193487 9.055630216447238 7.23710035829927
Sn 9.119079200286933 8.781829458952831 14.438362665841243
Sn 11.957978863086622 9.11670379714919 16.000169809119864
Sn 12.406675716462578 11.695203553886918 7.321973752963517
Sn 12.932218681952332 10.02593102966858 13.181350752863219
Sn 14.810263490814375 15.125048385048363 10.60417780255975
Sn 13.560845151260924 11.766412833435533 10.681403382236786
Sn 14.73284350499728 10.553136613166878 15.681000306989594
Sn 7.89987055172942 7.26958662345265 8.55972682741711
Sn 10.690992754015081 10.267542501671217 10.04018240667378
Sn 14.210881527682124 14.984883421169252 13.640502318511476
Sn 12.472295164610042 14.240579807942956 8.971205567227678
Sn 5.713151003394206 8.892934223497786 9.952171864279205
Sn 9.685054347793068 11.506438660922807 15.982226115527563
Sn 8.364880428007583 8.43528786704405 11.465768909477282
Sn 7.1056953304354415 10.038808088586501 7.4354413643316555
Sn 11.650520335681279 13.967853146606036 12.086924152025624
Sn 12.362236525316025 12.584014117435425 14.907798658253483
Sn 12.241854421956875 17.144782352634802 12.20654460086957
Sn 9.744343078975502 11.341521879085189 12.743113267769871
Sn 9.282424134009993 12.06617944581759 8.073718310695906
Sn 11.559191294727192 15.91153811752072 15.180266202257146
Sn 9.150933359064922 14.175881674858246 14.642243750356322
Sn 7.496450932789941 11.227835905995109 10.397522500193286
Sn 10.156169559775797 16.037605993533443 10.3072661527641
Sn 8.349470211750804 13.973553757516534 11.716934541790847
Sn 11.038341694866068 18.72111801652346 14.467435232589915
Sn 9.138795409050617 16.928741126797497 13.20072173531679
