32
Energy = -112.47976777 eV
Sn 13.387946340215255 14.3357006353728 10.707256125840914
Sn 15.779357778516099 11.549101605055156 17.066557732771354
Sn 17.663172081499216 16.627428782219802 11.131243469255015
Sn 14.993399139778496 20.051012172312905 14.008923604652834
Sn 8.730563466765686 12.44582088982565 16.54013418273291
Sn 15.094069292660784 16.092614128011476 12.51917504372858
Sn 17.836729986379854 15.120394064230672 16.221891478290942
Sn 18.115032589609616 19.946082872149432 14.34645069350468
Sn 9.045866042038789 12.841787152586154 13.37512061355997
Sn 15.590518530639507 10.667037386542482 13.85587292273426
Sn 18.874608771003587 18.190236635474392 16.87841347450111
Sn 18.265919544870403 11.666791953398285 15.459917584264563
Sn 16.46367234694035 13.784212933360525 11.232618376549318
Sn 9.448840083559006 10.116695920955479 14.735138341840628
Sn 16.257690718620715 17.457189125596546 14.896307470082045
Sn 12.673997853619284 16.31862566079403 14.33603932962189
Sn 12.343288580365005 10.54297966232094 14.122072252986381
Sn 12.629843585857017 17.28142835386826 11.41635477390406
Sn 10.253163852387127 14.838500445431752 15.31511303511783
Sn 13.737123377737545 18.45021523720739 16.307221890280985
Sn 19.15005832803363 16.948028679210175 13.909953487401223
Sn 15.229284870336516 18.7894875988713 11.16001995609004
Sn 14.151435470628382 9.133577906209982 16.290360227009582
Sn 16.506902142092006 20.126775379845785 16.946006855097828
Sn 11.241273713484485 10.675785761421986 17.1498427874817
Sn 11.944349473528906 13.323185079487455 13.082062230185182
Sn 16.106928426237214 17.19981239475714 17.9814239312798
Sn 17.106077856246866 8.917861901716655 15.687288386713428
Sn 13.086232670066888 12.985663919424939 15.897482845378546
Sn 18.80773448644868 13.948285380717849 13.26744383850271
Sn 15.840932611433479 13.65303263204089 14.462825472051016
Sn 11.13509736168332 13.663360681844097 18.004679790454205
