34
Energy = -118.66371987 eV
Sn 17.864279529318292 16.127943084506597 17.49775169724565
Sn 18.82680011845234 15.725978471067057 11.08596475568493
Sn 16.056400577592402 17.233061433274553 10.923138961447266
Sn 15.737890006992252 12.97033137197255 17.02667311197636
Sn 15.290728155605073 14.116544763322313 14.308595600765058
Sn 12.981206541813409 18.87024486054831 17.075115591731205
Sn 14.679086603739073 19.81068331629152 21.228929881226307
Sn 14.036875212743634 16.54608083967941 13.072861744590199
Sn 20.432523868190884 14.816874851433298 16.59267025001311
Sn 13.578649700039348 15.559006591168732 10.179018262486244
Sn 15.510407586803556 11.861565360645892 11.863206004325097
Sn 17.96466816717451 19.259523746636987 17.533907986175944
Sn 18.891423563121748 16.128710038829908 14.424709059822005
Sn 17.281929819038336 10.087466964031448 16.3633115559023
Sn 14.37391795231884 16.128598861262088 16.914112672778277
Sn 11.745345853968114 14.518343336256837 16.765362874158416
Sn 10.871466548786815 16.877789502744097 18.543179507797475
Sn 11.756162643318001 16.865240088089358 15.034100991359596
Sn 10.132508797120316 18.920014563630314 16.461788462890063
Sn 16.38606026432073 14.30329142737048 10.009012732838103
Sn 16.846821314643748 18.101051806876818 20.055684243606386
Sn 14.982371475118795 10.893603278652762 14.71522894909511
Sn 18.058262594289584 10.729311866877849 13.380812360935531
Sn 13.641819569711647 17.409452208769277 19.795826058775294
Sn 18.583992750813252 12.652116015040631 16.010713058736336
Sn 13.019823147121805 13.534196148704638 12.315612541588001
Sn 17.842618468230075 13.666318189411424 12.994909024544564
Sn 15.813182160833207 15.278918947691931 19.578290833000167
Sn 15.29749409764903 20.229585188413832 18.358586761870892
Sn 18.05368133591324 18.408729020222378 12.849444851996624
Sn 16.34261518882539 17.844908454233835 15.345476611897206
Sn 11.349200150222977 12.551840047516578 14.56814908730697
Sn 12.293684629660667 9.895361134294427 15.294073463978814
Sn 12.945066203204833 11.882975856607164 17.426165013319128
