31
Energy = -108.40625668 eV
Sn 14.59169221154494 8.465450210823 12.499628887532209
Sn 11.071835323435629 6.4287385090680065 13.109684167808716
Sn 10.929301475184745 11.750023807050189 13.029239639077293
Sn 9.747578657987994 7.317797452344818 7.909398918527716
Sn 8.330035206305851 10.409485307071224 5.563001877331339
Sn 11.730677476861427 6.581106221037723 9.914956034046224
Sn 7.205372818727639 9.525801168345197 8.251450732809205
Sn 9.48060167032002 13.058319719012335 6.679827985775684
Sn 12.065442270471928 9.115600793722026 13.866241346998624
Sn 10.16836238211102 12.886212816392918 15.785784072957629
Sn 14.36450620234209 14.902531023101433 11.066602508477015
Sn 13.516699966988586 12.684602269321134 9.274868792862586
Sn 6.415814534721147 12.386739856847646 7.093833251711325
Sn 13.706394220410433 10.221124803121072 7.644467571769037
Sn 7.786294158597526 14.110979789514776 9.122823322858101
Sn 7.126850228046902 6.78126950530315 9.28711859043236
Sn 13.96703850906838 12.44076580091508 12.657467570205013
Sn 5.985767401718592 11.621305999951442 10.064042926842868
Sn 14.451800913414854 7.792762034233575 9.474033188316668
Sn 12.974678208344338 11.550142022018342 15.410793793198149
Sn 8.577700063016508 10.639909228574641 11.213460604427281
Sn 11.483305456137073 14.301182776290618 11.331213336269773
Sn 15.47390439394429 10.672106730526972 10.689740446625134
Sn 10.662152193470606 10.102840888034514 7.446793180671594
Sn 9.15430514034371 7.732056000875587 11.177960595296657
Sn 10.23591889238703 12.305260988656666 9.495790139530692
Sn 12.246831703397984 9.764978629968285 10.646060408995835
Sn 7.948576387989767 11.860470208404687 13.95785851656549
Sn 6.866407017286298 14.02753280381225 12.143736106958352
Sn 9.445456289914343 14.646622578416071 13.500169452854621
Sn 13.746660883346758 5.5819357520229795 11.807343316988687
