32
Energy = -111.71592867 eV
Sn 15.174978779234635 11.604687642151257 16.76775162595276
Sn 8.733620193643644 9.14211332598132 9.84085836680903
Sn 11.166542651305555 10.85280130883024 10.661548858829383
Sn 9.732557986031226 9.202853717311685 15.169055103843503
Sn 7.234034261565839 10.982849282341567 15.053712469594476
Sn 12.441077366091871 12.442425982760044 7.992660589023088
Sn 7.697873135851216 13.436738003318089 12.856646463794737
Sn 9.454730780457188 11.758258017780367 8.311863430294672
Sn 7.55450041374625 10.441482168973785 12.23412204795723
Sn 16.362092226339925 13.889871049518431 9.754988524187537
Sn 12.396752505760931 10.230054649932118 16.666343493182598
Sn 14.610632213204482 15.93766950772882 11.78317082984459
Sn 17.12640517692315 14.45801552694913 12.58890498557955
Sn 9.36370455447026 13.80086557835922 10.440573133488266
Sn 10.199718968894212 11.691270676588674 13.456732322007648
Sn 15.332225833406849 16.546618272536218 8.912688259618907
Sn 13.577418266750557 9.586087954633797 9.099558366925224
Sn 14.864726649771878 14.29370010778823 14.813930430317198
Sn 15.366862375811403 11.646544011844517 7.861530395731607
Sn 9.80576416359765 12.052396447926423 16.6690393090499
Sn 14.719354937907358 9.260242980610245 14.633663841071083
Sn 12.571970329903637 13.416097649232258 16.69728696005905
Sn 12.71607738614211 15.256938934680782 8.931045854297013
Sn 13.21555541857222 8.835952027657095 11.98607546981089
Sn 10.002901639580193 14.464502748759495 14.735078209546844
Sn 16.52693744081469 11.758523959628384 14.039586202964236
Sn 13.26540168323992 11.823905568216412 13.994156467852486
Sn 10.338303219480611 16.4906709679728 10.092190463683595
Sn 15.798455780382886 11.116826921251544 10.975129694960321
Sn 10.249682038339305 8.16577425884595 12.287752491684783
Sn 13.444971574552477 12.931825711331307 11.037251367179557
Sn 11.732345085106102 15.12345010892189 12.319425653480316
