33
Energy = -113.88281607 eV
Sn 10.029049217801672 12.522641716567723 17.42750258058023
Sn 15.309946635329176 9.903365216518688 10.716731321785387
Sn 15.742306480067265 14.33219676157043 18.648581199984292
Sn 17.02007662251094 18.379116754526176 12.382408812401874
Sn 15.856978058609945 16.584362171500867 16.69697509050126
Sn 14.460442969043365 11.889649809917088 12.978296047295384
Sn 10.018471663770223 13.824765195535885 14.46079936259981
Sn 17.269421942558623 16.752226057596747 19.729983648968883
Sn 15.760030377790105 12.827341580561933 10.250785957895326
Sn 18.316241380426575 16.652032325021803 14.828388954078068
Sn 12.551138581243276 9.822252365164399 12.06844343445369
Sn 14.438379265300743 18.25122864761232 14.398927808809697
Sn 10.846607829905414 10.585568383299814 14.684446403870632
Sn 11.55575922051907 12.679733602770405 12.091013096625668
Sn 18.674555785901937 13.564187582777782 14.160869548584387
Sn 12.762509115729335 13.38102704850365 18.83165593629458
Sn 16.749139266496528 15.388342825787769 12.396256538355484
Sn 16.052964680310584 19.13374239399297 18.17382098198677
Sn 18.980886037387656 18.034115233684325 17.569104968994633
Sn 14.17652047679846 17.952800196755025 11.328117292148232
Sn 11.739504549307554 19.05539611386009 10.345295912954377
Sn 15.158723948232389 11.5306191024187 17.755764030871557
Sn 17.431142541625697 11.166481404737018 12.42617947707231
Sn 11.841532337172115 18.723546783834752 13.1742864702226
Sn 17.147554069198765 19.548393766877048 15.317724740343333
Sn 13.754401539868383 15.24415715835129 14.684969456858681
Sn 18.62855783403126 14.944901238825377 17.561699571818146
Sn 8.180211608557594 11.668477307752244 15.259629152170286
Sn 12.754106370275892 12.420882222658493 15.984097205405822
Sn 15.897457002519246 13.116855931221304 15.312024370123817
Sn 11.554747053792356 15.290905197950584 16.72393806166593
Sn 13.78810259266385 14.727965962755555 11.727856052859243
Sn 18.659442459521724 13.586626440818716 11.061007624350715
