32
Energy = -111.68979905 eV
Sn 15.286843161120315 12.8772534240437 9.990801035157588
Sn 18.9048279357328 13.843703309737254 16.202458329906637
Sn 18.412354783642186 12.304182600897981 10.588180714953232
Sn 11.996637351513877 14.84275713288346 17.52146464960432
Sn 13.900051602914978 14.069101989151395 15.179423993961358
Sn 9.011428805946965 14.080298756327721 17.097171070340984
Sn 15.127668047038018 15.913134416558115 18.7293708963487
Sn 13.188047639298343 12.939577925213566 11.979489177244918
Sn 12.00950893614853 11.706658805362196 14.317040942797828
Sn 17.147889297164486 15.027642623953104 11.152135693917002
Sn 17.707421876216817 17.792630651155566 18.617286734876533
Sn 14.350459046165454 15.751153818973563 12.393231620111536
Sn 16.46051469413527 9.924895794452025 11.699998807193525
Sn 9.817576318417506 16.12234720155608 19.163546781586003
Sn 10.584923661122513 14.406806385020905 14.51079039307491
Sn 18.10850078896854 14.897765100401902 19.0148176092974
Sn 14.565885565188161 15.741697832312468 9.003158886621412
Sn 10.859039164445997 16.81285510686575 12.568333187552744
Sn 11.948812452946065 15.070579165861783 10.30350041189333
Sn 15.219858759832587 18.31151069276216 16.27979169032974
Sn 11.870852596163232 17.95901222112945 17.996989845209658
Sn 16.74994419485568 12.986133578666553 13.346890609971226
Sn 14.93785273930997 10.746813250193988 14.135214287423286
Sn 13.20832389226216 17.853449407906773 10.74590202411531
Sn 16.630191519028024 10.51295616624707 8.865154398389265
Sn 18.93230113155295 10.672234219245686 13.080049956142641
Sn 12.633149015395087 16.99637165156696 15.085490401660756
Sn 14.805294925258195 18.762060569362937 19.207674555445625
Sn 17.092547684265245 16.072692188143034 16.181022874136477
Sn 15.948333035777745 13.253600454939626 17.449032963939104
Sn 17.578390234375718 11.135605822708836 15.74462191976798
Sn 9.601040436109713 16.94827110293815 16.18048538820738
