35
Energy = -122.49081413 eV
Sn 9.410492243970495 6.555359829551777 10.12275720721918
Sn 5.753485137230859 13.092573131053499 11.745876235401559
Sn 16.297286578500152 12.648475747193457 9.54352417287204
Sn 8.687914749922824 11.142366570379092 8.54929605676903
Sn 7.638039992079134 15.66323147711369 13.401944916233454
Sn 10.480324550930405 15.402896779380328 12.435658981470581
Sn 13.987922151049771 9.756845110208301 14.943758012160261
Sn 12.672611905139473 14.348953458877807 14.356528653953806
Sn 15.39179444943147 10.705504470873608 12.434439865698275
Sn 15.817267431976221 10.955031052504648 6.917127958104374
Sn 12.268431027764668 11.722577575783237 12.619307454728116
Sn 12.989844953393627 9.528973455575526 10.730117913790197
Sn 7.472234644316161 8.287255981766393 8.416346323733666
Sn 15.890578069554026 9.4726016049256 9.667833693913177
Sn 9.595336308359085 13.820403619917652 15.100178471034639
Sn 13.051548320648106 6.913784186772998 15.120574422946893
Sn 6.793336081713287 7.633383457687301 11.39728584988642
Sn 11.724905687330484 11.626310719571608 15.624975660418071
Sn 10.734484504999957 8.914829068496859 8.646537968241976
Sn 10.814148920635681 8.962641507103404 14.336829984080184
Sn 11.912355882754259 7.012700246534573 12.2287559704038
Sn 15.26984538464106 13.93852913145185 7.027207787157964
Sn 9.389216421528728 9.330669402380588 11.475795312406913
Sn 10.915525384017977 15.700517919588831 9.356763311752376
Sn 8.773851498221864 14.043180137574451 7.779869710796173
Sn 13.730157435745479 14.452249825250671 9.560488893143635
Sn 14.170177596695227 6.824666017705228 10.112028047704221
Sn 14.851235470814922 13.731268614097981 12.252669489014052
Sn 6.691051773987874 12.953704906717787 14.576958572823406
Sn 8.75728705921747 12.471895211154482 12.394739600201133
Sn 15.014892220190061 7.511597668869028 12.920217076911797
Sn 6.586649596094773 10.427192375256471 10.51723112149739
Sn 13.331837999268096 11.643334619937281 8.290598680114277
Sn 7.819310654336087 14.773135885102732 10.470710406422691
Sn 10.837632570960919 12.795777580801365 10.001587001049932
