38
Energy = -133.40770723 eV
Sn 11.13191681253805 18.071203050830274 10.246868060970561
Sn 10.040551948089321 16.28152312666718 12.620834677457474
Sn 10.137088493310188 13.268103286331772 13.334509824250553
Sn 12.547182211885673 14.770105962870167 14.516775115470534
Sn 7.710545733727838 11.372090166641382 14.46970492466567
Sn 13.0829470479253 16.65639843256701 11.955978056482536
Sn 11.274316881567044 10.600979766997511 14.856452316066031
Sn 5.863396893775421 11.045121333819472 12.099878841056785
Sn 13.953098611759957 12.050408559322689 16.07012713120566
Sn 7.996840991324177 13.164053212637397 11.117317035548844
Sn 9.445411277515287 15.580542969916047 9.601322348766624
Sn 15.208431259549856 14.756034862320105 13.10900437941755
Sn 12.404026917630329 16.02896195497588 8.33718900106629
Sn 11.648627529785065 13.733726014935327 10.658394876943468
Sn 9.225708254186577 10.37971067530259 11.748681178188432
Sn 5.718094027911141 8.675686747693202 13.89211879722428
Sn 16.181205039065734 10.111273802200046 16.54795742518491
Sn 13.368773724879034 8.990303540700484 16.754974287681673
Sn 8.670957652360716 8.525504125371654 14.225569056370457
Sn 7.21525163384179 10.57756555245448 9.327012457872213
Sn 10.705419946294072 13.617826212955253 7.6167049430610465
Sn 6.976426580613527 8.108384969884607 11.164248898537465
Sn 13.387195366771348 12.170579272335605 12.94735286659175
Sn 11.465132563439445 7.5023948927027515 14.391179861675717
Sn 14.534204385249268 14.654632328485262 10.055332202042134
Sn 14.686156876525539 9.160317850503018 14.034012008270818
Sn 11.512568295310826 11.020829302213206 9.202352610851262
Sn 10.008062654224926 7.253176635583991 11.447846111884337
Sn 16.451749821736865 11.735743348829557 14.033357199113574
Sn 13.812967973930133 11.749743004633892 7.366024629861716
Sn 9.561581185615195 9.078407276247136 8.182505327430777
Sn 11.187858860726047 10.71238158264536 6.037895457209505
Sn 15.522356200117937 11.918733115845704 10.898843516579367
Sn 12.242117157634599 9.391311494605498 12.007271307459003
Sn 14.192184793066613 9.497015827023777 9.472825251466212
Sn 12.044831547729544 7.370372011586887 9.06455735383202
Sn 13.71111288817803 8.865452955647834 6.336165347649921
Sn 11.105196428113588 7.491592006904791 6.186037198530829
