32
Energy = -113.22870459 eV
Sn 17.725349747130803 12.622691383433859 19.259741676924662
Sn 11.362368603365978 16.09574922007132 14.201340379871933
Sn 17.246758965598918 15.554604570770254 19.118992491479112
Sn 14.793617004095227 13.646524151572779 18.4390705664045
Sn 19.372340393578913 14.135646241457716 17.165462220650177
Sn 16.52572593929229 15.062123780941079 16.329313848274
Sn 13.077296451966898 14.124084513884704 15.844352022992105
Sn 14.138295722120679 17.063842158810854 15.582424309184729
Sn 15.544098608302708 10.763301903401562 18.057877312699166
Sn 8.032093329148923 11.308900390974651 16.32935085332875
Sn 18.328216149352258 11.1471830126048 16.74019868473676
Sn 15.3699986252923 12.22758925133618 15.507966973794348
Sn 18.05188805226623 13.228030584766117 14.499356032003499
Sn 11.168402174542074 13.364521065196438 12.925203099494293
Sn 15.750862512133379 19.008005579572206 13.45963307145158
Sn 16.167116460587305 15.9617334568829 13.366166096399734
Sn 11.840551163221921 11.333227229360752 10.871643201065238
Sn 14.987660541077798 14.710503702548083 10.721790118981332
Sn 13.480059906522419 16.891109971291687 12.297368550201849
Sn 13.691182223417902 19.69432755406601 11.2660113814327
Sn 16.552573438544606 19.441326567160278 10.360745746320902
Sn 14.310692034531304 17.380408023714914 9.27409045432914
Sn 18.11772408891945 14.723043887033912 11.456544559850805
Sn 8.327963405160945 13.501328654944114 14.047158311687905
Sn 12.532516942285623 10.611924489326936 13.836907551457768
Sn 8.790423346447128 12.147339240116539 11.307430795064713
Sn 18.341324349269513 17.829988170558437 12.209706746190491
Sn 10.743340438531158 12.277826383092505 15.66822506880096
Sn 7.593663238852906 10.45259490679809 13.520387204146148
Sn 17.16988436429491 16.6525218966728 9.377760995921937
Sn 10.123779780667999 9.237621671453352 15.223981735858748
Sn 10.100639564938358 9.329830891726475 12.197448098811384
