31
Energy = -108.98548325 eV
Sn 14.002268470756666 14.489629315937847 10.856310216167556
Sn 13.40664181594698 8.70648399113296 14.148096835392797
Sn 18.720709181783413 15.64886762798179 16.34080360261471
Sn 10.848485893686082 10.19307850066633 14.879789498894462
Sn 14.347689706472007 9.204539982516186 11.213236645823692
Sn 9.188428837954154 16.90183772997227 17.186704336512722
Sn 9.59728362823729 17.504615232661667 14.189098858172363
Sn 15.951577786217722 14.44303463675786 16.223337115022023
Sn 18.83668595319823 13.07284681789505 14.959583355903561
Sn 9.356963832193443 15.059579684622923 12.394454019427014
Sn 12.178142443573975 15.772994122949207 13.306905622916595
Sn 16.592547085395353 11.478291642775943 16.34794107525534
Sn 18.705623681479192 15.636070245852832 12.746978720807261
Sn 13.659586541831596 11.502356902796278 15.612952106677108
Sn 19.060270635255424 17.964347129224556 14.550646320683475
Sn 17.116418908989356 14.542415752760661 9.836437085243011
Sn 13.144167488241115 11.851371138434384 12.613295276510287
Sn 7.957502543089703 14.98674486442586 15.188164269473138
Sn 11.414685508857378 9.466124024862463 11.95746206781393
Sn 18.536526768632704 12.699784543626635 11.972665867744494
Sn 13.884463714523237 18.268454817805043 13.336714191711946
Sn 12.099077198876728 17.49786818166068 15.901243866097383
Sn 11.837867034661976 15.906846836146453 18.46411945362885
Sn 15.873504204017445 14.053247872211518 13.179251982056341
Sn 15.84205096235437 11.886604321039938 10.51675468398445
Sn 16.266049017487187 17.103691666094683 14.654756067784351
Sn 15.954618378842094 16.79483319103777 11.479101264821988
Sn 15.974416624284977 10.431598533931767 13.50445340360938
Sn 9.862978099448636 13.823774430984832 17.340577484776528
Sn 10.429509977673055 13.166847759620325 14.451188761352775
Sn 12.72662321386641 14.431830587329554 16.009662128165385
