34
Energy = -118.56737251 eV
Sn 4.987995330373519 9.074402974554548 10.122092621536734
Sn 13.688453857168444 10.72876743104886 7.203695294054988
Sn 7.93157568506821 6.754747086897566 13.924242889481901
Sn 10.502733866264885 11.923442042424858 12.390543324374088
Sn 12.294578207533055 16.120887789564335 10.178300364663741
Sn 12.5954470515773 7.778728919363901 6.4478740857045125
Sn 9.807498722515612 12.051473128273944 15.351061960117995
Sn 12.75050714214805 11.421057980430781 10.226705799829775
Sn 5.463074810874995 6.810909066656678 12.164095656922779
Sn 10.990059143094484 9.25241173600938 8.943608903861131
Sn 8.901170798467295 7.789193662845763 7.227806996144296
Sn 13.216710966639367 6.336615550064142 12.234899390707534
Sn 8.126710738436914 12.994075367279894 10.991672013839759
Sn 12.35129459399132 12.959445370336327 5.674297065604399
Sn 14.32110256579548 8.919559471264344 11.082221051976653
Sn 6.059098573279827 8.564028965710854 7.382253334510786
Sn 10.798257442695785 10.340687195730363 6.011752689191136
Sn 7.945245829969764 10.21851468065331 9.216595490530235
Sn 10.565183195494864 12.600633623437261 8.375390511639512
Sn 10.399341974553714 15.103924548461977 12.334408392209701
Sn 12.703012756958401 6.782790365847248 9.301917218196808
Sn 11.372782862602564 15.463392034094051 7.278636717632706
Sn 12.716353456223057 11.742668757236952 14.607831540154907
Sn 13.657641719961955 13.750815249045731 8.521431877786661
Sn 15.156582728572804 8.3136077299131 8.158964039992638
Sn 8.134389942284816 14.034951772660607 13.863662149011333
Sn 13.125546891733599 13.73739067967326 12.213936150621794
Sn 10.939594922757616 6.220120965286664 14.14748550333514
Sn 12.16427774339637 9.02410052859886 13.392265145306833
Sn 7.328131105472375 6.963195887173436 9.816383835063567
Sn 9.261738358365797 15.31518081619642 9.435217200241327
Sn 7.097529078358765 9.488766262421912 12.271136902974778
Sn 9.91780338353419 7.898378527156047 11.581959125724289
Sn 9.254567736764983 9.310948092951415 14.419439493655695
