30
Energy = -105.48535264 eV
Sn 16.670771028523294 17.0031033816322 17.171096753347655
Sn 18.516957991730784 16.63487025809305 14.752529590352227
Sn 14.083626447107394 14.707229724743847 16.642370883222704
Sn 15.34613704050793 16.46191471085342 14.422690079469998
Sn 16.82319602253414 13.729744924890854 15.062137978460385
Sn 18.876339904987308 14.724879021003007 16.99503140022171
Sn 14.221624936531772 14.423594268803035 12.013315593774877
Sn 15.656212662138287 17.680185294682683 11.592595152771546
Sn 13.190102221276094 16.574927020405646 10.128423700658757
Sn 17.3195477699984 15.092941292045337 12.22490624548208
Sn 11.110179373861293 14.11266594393641 16.35304507485419
Sn 12.357432430488917 11.684803911870192 17.529661368329727
Sn 16.330654663846325 14.063911893417151 18.45661291735512
Sn 15.333013512743454 11.692245566550678 16.71563309401612
Sn 12.611552618783824 16.84808349976442 13.072966542431967
Sn 13.183562302980082 12.506194301036532 14.391988000190429
Sn 13.796814605398103 10.55908645207889 10.07129921793046
Sn 12.77387313590912 9.575396615962617 14.940481386190426
Sn 11.792423032127836 12.590460311117189 10.983841984280556
Sn 11.769767231455315 9.631621544800858 12.08639926419187
Sn 15.869233501069237 15.30195732686538 9.612311343115133
Sn 10.736379942440452 14.263957332930616 13.325930161640253
Sn 11.622802579247411 11.498379325239943 8.093324935530156
Sn 11.588607326790566 8.56948167064323 9.160236397201698
Sn 10.34341017306149 11.140979247822177 15.297868920057393
Sn 9.068397143513245 11.138994863765841 11.779123715663717
Sn 9.306590331815345 8.184007767485582 11.22917508906753
Sn 8.242764598084312 12.799042601630019 14.117655580945444
Sn 9.28381890995122 13.04573676725355 9.401865861946751
Sn 8.910061031196499 10.067322805347382 8.843438481060815
