37
Energy = -127.23702025 eV
Sn 16.777928289349052 20.8786009521015 18.4513973605945
Sn 12.467942694657822 15.244405472788614 20.691097781987793
Sn 20.294464570996148 13.987954449450891 18.82404328462934
Sn 1.8346221987023321 12.416753066115232 16.244212131932855
Sn -1.1539263373362434 15.936488140276094 20.930372904493336
Sn -1.5011563674007626 19.063915774233283 1.8486881960884696
Sn 19.995953914660177 1.8501821294089795 16.1495465576593
Sn 20.437426840642082 -0.006079467610492664 11.310775358550421
Sn 17.540808456758405 17.88672183321753 18.9089749224587
Sn 16.170710211375958 1.3310173266938101 12.370527631967262
Sn 17.356797814354838 0.35329042566614877 15.558967507381952
Sn 0.3651692184598024 21.491942499629488 1.3137226653008616
Sn -0.13771906198493852 14.386086562862099 16.547716387328702
Sn -0.1342795561672064 16.454350311058676 1.4823992343642562
Sn 17.52847571569958 21.388538538831078 10.220763389402727
Sn 20.522241461035875 21.480635918566044 14.577193684578033
Sn 19.49266428464477 -0.05351420235228482 18.6598428693369
Sn 13.69325106918384 18.233147441604057 21.94158820831725
Sn 18.36847149639268 2.128751399033246 10.416411483806478
Sn 19.494324467203338 21.716368347749135 1.877145418344602
Sn 13.954981743624728 13.13242747980346 21.957884290630176
Sn 17.76395721951484 -0.01793838328536612 -0.8575707624955043
Sn 18.751468109319845 18.212235774565357 -0.32537502357446546
Sn 0.9043979917775713 18.805891454530506 -0.29343386451843284
Sn 16.249818467072846 19.603414357960972 -0.9985191843176376
Sn 14.707699924815861 16.881795333225973 19.114233699793264
Sn 18.719336285215963 15.480537049159407 0.8647337365211166
Sn 20.79687050071543 -1.0018887676543653 21.22790406054477
Sn 19.387280881146022 -2.701484515377373 17.131879496465057
Sn 20.816611942562087 18.59550719987555 -2.5395286702962125
Sn 15.134129691785555 13.944176600692533 19.27900912026249
Sn 19.067389967532865 1.9646701665741793 13.351521663841044
Sn 17.837688864750422 15.015397260151236 20.175898762499557
Sn 18.038480961552942 21.12495828935014 13.043220671028932
Sn 15.361742578755546 15.724640187946465 22.10046929218622
Sn 11.999986162584268 17.908699067734474 19.475487906949557
Sn 0.26663154222558133 12.062013532949 18.549526312131736
