39
Energy = -136.10854253 eV
Sn 12.676746619886394 21.0437048573933 19.349947833827514
Sn 14.814257069318563 23.06778936639723 20.337108723486143
Sn 18.86205757344313 17.784912584763628 20.03277655318907
Sn -2.4929076865079978 14.62910569606164 17.603603930850912
Sn 19.439131823501103 16.47629104225231 17.1413994626672
Sn 0.035985857622753414 16.313377145179228 17.628478807294474
Sn -0.9799314316168154 15.051934326296251 14.911412113283058
Sn 15.302108233674987 20.981625234460026 17.93585456005088
Sn 19.53048552127361 -0.7573632221235826 20.821451011031726
Sn 17.31765593133962 12.845024462806638 20.67115108722665
Sn 21.97352398786041 20.879452299275048 19.65446065998289
Sn 21.4255506397925 16.98666174428772 13.400221268581365
Sn 17.566393850043895 20.299924003585623 15.83634428793134
Sn 21.091942709596342 -0.9228172201876437 17.995133156743968
Sn 21.885843790818335 18.012810979868274 18.19844330627439
Sn 21.56763437237286 -0.029977082032085527 0.8176720505534102
Sn 17.123964316847246 14.909171103442903 18.669320397422773
Sn 17.481305737390826 23.234864720896052 18.62350898158566
Sn 21.29131827349199 21.04349980048141 0.1027048785909676
Sn 19.043212611728592 -1.0784058021104876 -0.4527457448219426
Sn 18.801644846639515 14.037329398160633 22.94209441230786
Sn 19.45434686234547 22.26974526438831 2.274364498252034
Sn 22.094203950309026 23.117805382367496 22.285994134468694
Sn 20.70106717229387 19.13786769082165 15.602858145676981
Sn 19.759721754848865 14.853197851392645 20.29840587809953
Sn -4.022609634241408 14.56176281132606 14.854346405180532
Sn 22.433650784005152 22.049703019680983 2.611086604161541
Sn 16.69888901301332 17.879479080639165 17.76910721255945
Sn -0.6502894568308573 18.16524864207807 15.358859185844477
Sn 22.602284837959246 -0.5399409369702245 15.443890564330546
Sn 16.765100690141896 20.68938439462868 20.739638457188452
Sn 14.615179360573977 18.620829393639625 19.87700140962538
Sn 13.99233657348634 20.606147347142105 22.05553236653626
Sn 19.663523694584136 20.470759138952676 21.740043372293332
Sn 19.20511726222469 20.773239711500675 18.273690830750414
Sn 23.15786694495799 -3.094646023461283 16.72598112326955
Sn 16.914930840757528 15.942131976473936 21.507743363474336
Sn 20.164997677498818 22.07439502482232 15.248773788826123
Sn 18.431070663715484 17.420380128537836 14.478762097105019
