35
Energy = -123.22552745 eV
Sn 11.445504593392432 8.961494824997164 17.44363442527693
Sn 11.375971500576789 11.880780439427589 7.565462668131928
Sn 16.48405693959542 11.591080762939953 14.392032264448313
Sn 15.40654255657632 12.228351311586843 11.575122082676344
Sn 12.498753802571159 14.560295254887965 15.072941404529464
Sn 9.86855916078755 11.566579580843465 10.44797914138899
Sn 9.594171900400482 8.752568081018593 11.558964278704297
Sn 10.6125158246933 8.414352980409305 14.591109148407138
Sn 11.92959259338505 14.38734372087657 5.741431308355359
Sn 15.389505301451448 10.690728556970603 8.927907880895866
Sn 9.480351297320288 11.310048296606684 17.851859691865716
Sn 14.955611145692131 15.9662410669288 16.6367166712323
Sn 16.177697299527097 13.666858365261582 8.545230144520826
Sn 9.37096310823606 13.30000116975849 15.514193830901085
Sn 12.785832031272184 10.64522919175433 10.459574981771556
Sn 14.953677887148274 15.22855941436186 11.195489450996753
Sn 9.709380696674787 14.43804544087858 11.399826386667653
Sn 13.191836123135882 13.937331057642318 8.787747693052465
Sn 15.719812826866567 14.660053775156245 14.105823413018232
Sn 14.846841873738597 15.275894874911808 6.3202700558635145
Sn 12.6041151696803 8.08906580844201 12.232822880324054
Sn 17.56814702647048 14.044726583370537 16.361261511656366
Sn 14.578864468717597 12.805814215873623 16.50964456937177
Sn 14.232843475535587 12.167818418128718 6.329215027679313
Sn 13.763860054553447 10.36840458217793 13.65601077898741
Sn 7.153704061749311 11.127338143081728 15.761827923194408
Sn 15.886481387187956 14.252537379643552 18.78892705337575
Sn 12.437827903002285 16.817355564404977 7.621076746370636
Sn 12.032460920923521 16.269870338682743 10.641027396906738
Sn 8.414036163189701 8.556639046076308 17.061431339755526
Sn 7.602958091406151 8.584419027987938 14.063914587418052
Sn 10.203754442691865 14.736189002623334 8.347490862003617
Sn 12.545582202439777 13.38711920299929 12.218680479173594
Sn 11.627499180237034 11.249087045618024 15.516186726351464
Sn 9.315565469646106 11.099247117426923 13.490089478966844
