34
Energy = -118.8215943 eV
Sn 15.188357883236812 9.875026529963675 9.60021326935213
Sn 12.749262651690282 10.434254968403048 7.23564247646978
Sn 12.059085623255397 9.021483620763778 12.704694023804766
Sn 12.418878703275938 8.652706512932593 9.736743940935227
Sn 17.61130574242954 8.73356164347794 14.977132988262584
Sn 9.86203825040579 9.9361180230089 14.386611353786671
Sn 15.358310675973028 13.01855046207951 10.350321149809522
Sn 14.687437259741701 8.846021212048955 14.207736371135475
Sn 12.321998219731084 9.409901463277027 16.083334713288988
Sn 15.288250505248884 12.079786436716248 7.542398995335659
Sn 10.336382695111958 12.452022008932017 12.626515870169552
Sn 16.48628313161727 11.052263814984547 16.398670174095663
Sn 13.031125179312754 11.502610499028151 11.318829516587165
Sn 10.627658060929898 11.11606670500626 9.487896576957034
Sn 16.50088735122215 10.67311917190651 12.5137462067273
Sn 14.066927374678917 11.851732636808245 14.459884826444055
Sn 12.602343632348557 13.277625667436867 8.676409388677712
Sn 15.16202129161287 13.803929289747451 16.645776215032644
Sn 18.173477853710946 13.673785860129462 16.39289315646388
Sn 14.167580510964951 15.582388805706334 13.588476060651594
Sn 16.567583481419362 13.618593366215377 13.785506821257476
Sn 18.87757572079351 11.447237516976031 14.351669638113817
Sn 8.553065857948273 15.513118547105563 15.502683196202677
Sn 9.24331116319202 15.484573382912785 12.556297630399854
Sn 11.432333601152001 12.216433591421172 15.839179773031933
Sn 11.435001321016319 15.013368215591248 14.72539608562367
Sn 12.185038973739822 14.779334723794415 11.455298349208729
Sn 9.235658162386375 18.293727090382028 14.245520166647973
Sn 10.671113743047767 17.091980520054634 17.000306685441327
Sn 11.618531717682131 17.74497291088331 12.205616266790123
Sn 11.83979111917141 19.241100477181625 15.208004774159422
Sn 13.80960528159107 16.97769334037991 16.416424687845332
Sn 14.372640729238109 18.531173370006833 13.479348992304846
Sn 14.540135541085215 19.831028420741927 16.13820450369095
