34
Energy = -118.57708417 eV
Sn 16.919526025730732 13.00100331369118 20.383197406068422
Sn 11.79211462809265 20.50018301345238 16.439825962382507
Sn 16.999714554331405 16.788856411469556 16.2970471375062
Sn 15.010383513611343 11.467756728202795 18.40055801376267
Sn 18.574880915367114 19.198329941511965 17.65261652820649
Sn 17.87289062933163 12.2294268987775 17.231106426862006
Sn 19.549483847191407 16.773961111082308 13.167351715085182
Sn 10.08853502635574 20.236464445602284 13.967874469515666
Sn 17.65466315090016 19.345590375284058 14.507655164718463
Sn 13.898937158517368 15.496329433729082 13.140249437172947
Sn 20.212915310380072 15.705013703961257 16.241088551811387
Sn 13.661366167413478 17.10651666735419 16.074506039205783
Sn 15.302131184333582 14.519270451479517 18.167009821700383
Sn 16.78175709512771 15.720253945448423 13.2281872699642
Sn 20.689199027258596 18.489468249324457 15.402381408371458
Sn 17.13112365120133 17.529950333868854 19.54654466425486
Sn 16.85624085167326 9.48874228032406 16.72052357477102
Sn 12.674051335542115 21.800823012068474 13.909631038774489
Sn 16.07513957237163 10.822290607960634 13.791616260973745
Sn 12.04211528192117 18.363618446898975 18.421299754014107
Sn 17.754110200620588 10.262408528603567 19.669351945757374
Sn 15.58854445203035 13.66946406378806 15.237456249394135
Sn 10.623549865134974 17.70546838317469 15.60382783139469
Sn 13.602712900018071 12.47894646270258 13.37227867089579
Sn 20.79686880491651 14.165090426907664 13.792700975679761
Sn 18.09692949896558 12.931164608061327 13.71823289176147
Sn 18.443504734070753 14.997294867189986 18.58349811380812
Sn 12.65052386350446 18.66152871338897 13.355374674242869
Sn 15.224902673782935 8.698605080556705 19.115534132413746
Sn 14.95463680928713 19.104250279473547 18.23860834339541
Sn 14.721206751462564 19.9388148501744 15.170305168999002
Sn 16.590599714075683 21.487670736242773 16.95281170053238
Sn 19.542892834220986 21.303343948225752 15.860942917981975
Sn 15.901993006328569 13.342300012916226 11.517765623856393
