31
Energy = -108.26314182 eV
Sn 15.992384850955323 12.172629755095896 18.58733766851721
Sn 17.62546712594256 10.952599576089655 16.42029456987127
Sn 7.77844868984873 12.823707159119943 10.774186469428114
Sn 11.991162256479821 12.172880251825251 13.38027950466803
Sn 17.044923792913604 12.862383039139372 14.111619877337619
Sn 9.578076228013426 14.01698350698847 12.924309780117659
Sn 9.42512590774792 11.302326189649595 8.579858305788377
Sn 15.041109118785826 9.557417678610582 17.591666871319507
Sn 11.419464790009496 17.751618261339733 15.685478045169747
Sn 16.181608007891416 8.810625794702078 14.915707157350242
Sn 9.60018452326406 10.595534727043361 11.857483227703561
Sn 11.961507880324707 8.623066620526695 12.447727219309604
Sn 14.505325039518086 11.686699581084003 15.662025778920944
Sn 15.415158008454078 14.513337483479717 16.63591893267172
Sn 9.609475649657266 15.35829491901115 15.729733273764666
Sn 14.524234187149181 10.166122371210319 12.766427832948471
Sn 12.600785916561337 14.977478233329022 14.895949216129372
Sn 9.945679147516383 14.544220504071992 9.516652128321832
Sn 12.092388408586624 15.09692733228828 11.548906969632629
Sn 13.844632514100876 9.15287225793805 9.874720317539328
Sn 12.981333713671077 17.698518732393993 13.022047891360192
Sn 11.698189666083843 13.065913693812899 7.578823145579326
Sn 9.794913935362848 17.066008577784967 13.128108178279145
Sn 17.75605890712459 15.596243857748892 15.193127105409722
Sn 14.497451864543457 17.39010814437201 16.076838311676084
Sn 14.574247600044734 12.868446445000146 11.550044689801842
Sn 11.93112642217528 11.635889223049547 10.261246143763335
Sn 10.871089962741424 8.615863449595265 9.624500367855804
Sn 16.30825141038924 17.964302912568012 13.7476306389987
Sn 15.2860775416901 15.287051601033406 13.338872704944562
Sn 14.412019266859586 11.929739957794517 8.646593480908058
