32
Energy = -112.28423673 eV
Sn 13.29863840718358 12.188579376246768 19.05278665516804
Sn 15.445274709440286 11.301178776753819 17.154460041830728
Sn 12.611550621795914 11.17304491532152 15.856155583671823
Sn 10.573608722703696 9.256038404718662 13.201012029289748
Sn 11.9086493725383 7.980464542940395 10.672041216887314
Sn 13.272548864351277 10.383830148001426 12.118337651550096
Sn 18.226349906221348 14.067094356910106 10.559534697967507
Sn 8.49767312918105 11.291229677958075 12.221958978771825
Sn 15.574164158873106 14.26922444526203 17.991994367071744
Sn 11.90778485370966 13.902352013056092 14.629675115087105
Sn 8.850201676536217 8.405978845611635 10.759037787792568
Sn 15.285590994643929 10.554131823927573 9.848960876403156
Sn 12.802407112010966 15.196928677332158 18.994400663021423
Sn 15.387760794423132 13.330418407919911 10.748794377223383
Sn 10.874761824307832 13.079095285210306 17.478136780330654
Sn 14.920759000024352 13.313078732509128 15.011793605910844
Sn 10.337448083320512 8.628302815210098 8.106562697233594
Sn 12.503677006032703 10.50468594351042 8.896557286733769
Sn 17.483102227574705 13.511915531341444 13.480283768077852
Sn 18.102321694512185 16.507034161364203 12.217847624621669
Sn 9.109654108222083 11.179744382128094 9.30820400488458
Sn 11.270012102524605 12.326675909488603 11.237454640716004
Sn 15.99304817246672 16.265313023477432 9.837126782034977
Sn 11.028692247396364 13.12974799603869 8.190664742467673
Sn 9.484670796598875 14.201282079945015 12.813800401908441
Sn 10.792679414335629 15.928128935969465 16.6870603698302
Sn 13.775029147723878 15.944119745344775 16.14295513085106
Sn 10.8792367905058 15.24079422771012 10.327747724969779
Sn 17.112974271948985 16.147874281664226 15.032106202958529
Sn 13.398506930445299 15.06867072252875 11.836611532523985
Sn 15.202815748274736 18.40279537353419 15.223102889354179
Sn 15.164430030999185 17.247240609496682 12.572302297697812
