38
Energy = -133.16925013 eV
Sn 14.810698840370716 12.745838139303498 18.503284431487312
Sn 16.330458263750373 15.472998791687065 18.091648204536774
Sn -2.141918812775446 13.303427588670472 19.32158621244624
Sn 13.534767744733259 18.484293102465738 16.433685370336395
Sn 17.741493504859456 12.88809366574156 17.098691355877424
Sn 1.130906656097812 -2.794102700816968 16.39511348394931
Sn 14.982000030245914 16.15227979935844 15.199411452622194
Sn -3.7870470979840056 15.799133636504449 20.51886009039841
Sn 13.87281986763106 0.3032620400311239 18.929036456504235
Sn 15.594726102063621 -0.6385854610698382 -0.7982036325237125
Sn -2.3383031215302 17.056874369359075 13.4116767001581
Sn 18.472558571570264 0.5773084716006867 15.331637204785302
Sn -1.765702207122089 18.437978904923 16.056881923721107
Sn 16.33904340134347 -0.17531084776207898 17.334837643848182
Sn 13.366901565730856 13.542477094593313 15.597457195897242
Sn 15.097559803011178 -2.5781243318053924 18.83187015501364
Sn 0.08937176347038506 18.599842219822076 -2.4119574989658625
Sn 16.44721561587678 1.8742756449453133 -2.4631389690295498
Sn -4.169558527794166 15.418144470816546 15.394983554897909
Sn 18.561222959655876 13.24603085680549 0.09826647120673217
Sn 20.925922538504853 16.630436090477797 -0.40476907391981787
Sn 15.693147572656464 14.180373623885213 -0.956527308741558
Sn 15.513428655755932 11.33563151363569 15.899353990882316
Sn 16.437480580611613 19.30441955084251 15.788331647794596
Sn 19.73279580016211 20.21740052213564 19.199852099319628
Sn -0.0400684810201673 19.53642180355019 13.22338604034496
Sn 17.630896691022482 -3.196377980445772 -0.8909420104193284
Sn 0.44478190498525544 16.898097037522916 14.606947670536867
Sn -0.8528950761248096 -0.7287617787068627 15.528463088420395
Sn 20.46573637240464 19.61063243856035 0.08238068879810065
Sn 17.919250210430796 18.0860043520746 18.086552092766677
Sn 13.365132372742961 15.632575930624062 17.873119162239774
Sn 18.56959847421972 0.17400539669053652 -0.702890109868496
Sn 15.901272180767142 13.613096774297807 13.874667824450725
Sn -1.4895826672374275 16.19925481247125 18.45971429092857
Sn 18.98070733142043 -2.0775115606109558 13.718729534557252
Sn 17.26579749243028 11.659171541356493 -2.0010959126984
Sn 19.156780803051827 0.9590029487604286 18.365712873019948
