34
Energy = -118.75090694 eV
Sn 19.006622347788056 15.38630794695343 15.413939072129628
Sn 19.24512715246417 13.422488760627928 13.021400926820318
Sn 17.555463661668135 10.737569839426326 13.507331618396485
Sn 13.042120868588306 13.244228536321073 11.990907770050121
Sn 19.113567672735936 16.67217884686318 12.767346565368992
Sn 15.257069867655845 13.065302969669087 9.847529347022116
Sn 17.81106504458589 12.723693860053608 15.87886862688114
Sn 14.987878333669407 10.700366987118613 11.75838562799813
Sn 17.314871026992577 14.949235490192262 11.149671755128155
Sn 15.244531727298162 9.984732718687491 15.334611201216271
Sn 15.618414018742914 19.746184041853592 14.925046967940878
Sn 16.17815155298084 16.87641437055671 13.780936569609535
Sn 14.3814012546619 15.972151800330742 11.149883476909398
Sn 15.856197427865139 13.312333851865628 13.22573170768726
Sn 15.756803787502145 14.939255452745389 15.981186347175917
Sn 12.559860667607959 10.649803886242536 13.790265143560253
Sn 14.866414201114516 18.702578300625003 17.656706537896387
Sn 12.733097498135606 18.53234364492245 15.754628674216207
Sn 13.7149861851524 18.856743559948743 12.64900416136071
Sn 13.038081949936371 8.02389241504304 15.587196030643266
Sn 12.943601807660984 18.33256745665822 9.829404568041777
Sn 12.513872789954984 16.062607165115775 13.662636747245367
Sn 11.295930374966835 20.49133026692075 11.618572286222097
Sn 14.855517629434514 15.809643533881976 18.543103159938312
Sn 10.668490056058802 17.38797174808542 11.603169979311549
Sn 12.473520526442124 15.265757978381718 16.60721587420087
Sn 15.60855999405473 11.506781136792936 18.014993805618133
Sn 13.340511282811619 12.494675728723639 15.952776331041985
Sn 12.69144163710484 21.232622570336932 14.292703436905567
Sn 10.272800933212892 19.177053886769738 14.177662894573452
Sn 13.225689856116793 13.07986497243391 19.00313318200039
Sn 14.92311367771536 8.485600784788248 18.107025248294626
Sn 13.643378540140729 10.286753991166545 20.23975790204957
Sn 12.29033876186536 10.040852830438055 17.63607402851238
