30
Energy = -104.39860278 eV
Sn 10.49130041905679 15.7296644087484 10.70879403909296
Sn 12.273419354062362 13.86969304536067 9.21283990674941
Sn 17.029109131490646 13.805224089466826 11.932129014016171
Sn 13.157838398082934 17.36474503893248 10.668476064575778
Sn 11.215275065788797 10.942024402357596 10.452508195743441
Sn 13.896257944070463 9.289393113716923 9.583765014613283
Sn 15.014601559979189 15.168005495784744 9.61842816155936
Sn 17.250416872714123 12.885898387557292 9.169601936845611
Sn 9.858737989461371 8.490153990874994 11.76298103354507
Sn 14.803874016386938 11.822783004114752 10.872050994716414
Sn 9.197920928924477 12.948030315259327 11.798391801837873
Sn 13.042938807596755 14.339703040208375 12.043585669236206
Sn 16.814603809010745 9.874609600572057 9.418267615717607
Sn 12.794786910265481 9.058068135041355 12.554323188618023
Sn 15.909047276973995 9.044410131907464 12.168310269344893
Sn 7.557231696892276 10.55076565183421 11.390225561579886
Sn 11.757764159012075 16.968248442872884 13.427940082463483
Sn 12.035053827304901 9.839950163938962 15.584811229386663
Sn 8.839853597770674 17.12325385458691 12.747240427739392
Sn 15.990131273068464 11.634140575899115 13.710900181323316
Sn 9.225450588412988 10.165458028750354 14.139406629662771
Sn 15.239396959631106 16.064346440481593 12.798232804266828
Sn 11.723666914498404 11.841750879068668 13.307607940678182
Sn 7.057845331967119 12.171387251581958 13.953260204589643
Sn 8.894003632562706 14.59686879218991 14.272936678728286
Sn 14.826508208269365 13.883882651298482 15.542620351599059
Sn 14.801460120719446 10.746206953725485 16.38079923369679
Sn 11.782767473099701 14.291720907138746 15.011203157215807
Sn 12.335562215399714 12.410278840611364 17.29803537595121
Sn 15.041702234446538 12.937861083038237 18.32885395182697
