38
Energy = -129.90907344 eV
Sn 20.26207681019555 23.52697847282663 14.37413664798569
Sn 14.663332224640666 -0.27679509875016634 20.964785329618717
Sn -0.37513589524867297 21.979553088071455 17.412411263834876
Sn 15.325999862925284 21.397807315547343 19.333762889121957
Sn 15.96008834341263 14.565063841582731 0.34182925992760094
Sn 16.909301637691886 11.72930341257775 0.9866486940781111
Sn 18.22295840122726 18.909668711742125 15.63259908599829
Sn 16.54626258215407 20.119830577887672 13.342838709481216
Sn -4.050520447927381 20.918162219562102 21.12856522013438
Sn 18.98454150748173 16.14627419060188 14.490583362461875
Sn 16.881269953292502 22.365797803431064 16.957344750003283
Sn 0.5093105128363519 17.793001174732197 20.918872670809165
Sn -0.37425674229490574 19.14671668387878 18.36090769919745
Sn 1.4409672748342315 16.34575119598033 18.544377568794673
Sn -2.4002980953309128 18.38240293905728 20.595268018791373
Sn 21.037921111495862 21.476736996814534 16.490939231512844
Sn 21.77251994404064 22.66502115205995 19.454218499575138
Sn 16.713986219910392 12.841909020536471 22.452735890546823
Sn 16.033897129382236 15.490171734995048 5.120163063922102
Sn 17.26673257672056 23.01220953695043 14.157514889342684
Sn -1.4830253696520945 15.645082118323845 19.41711147326257
Sn 19.597089932948567 20.75836648478006 13.483112828136667
Sn 18.600392876509066 18.094522423803348 12.156855781392235
Sn 20.847917383420604 17.992184954452487 17.800376195339922
Sn 21.18122867616024 0.4661930969938188 17.25790078185353
Sn 18.6941004782361 -0.14698106027602026 18.616939994552908
Sn 16.168976673382854 17.292541594775596 13.959339578579105
Sn 14.668351225439302 15.919779050472584 2.600067511193044
Sn 17.510938044869285 22.614537205931605 21.137193275740415
Sn -0.631073646538645 16.688862921665446 16.51925180730703
Sn 17.15235438114596 1.6219310550382684 20.509157942210873
Sn 22.18000688649762 15.448721809216067 14.23550002703102
Sn 18.865649194258644 20.498099504528128 18.32832761565898
Sn 16.777085683879143 13.76424819942996 3.0978775690611187
Sn 20.76300427987516 15.097653190496493 16.941674588985034
Sn 15.373907631514733 0.5505759143882031 18.19032800934819
Sn 16.54125099748478 0.32451789990943697 -0.966131097638482
Sn 21.156669988985136 18.357195872876883 14.51723135776319
