33
Energy = -115.48405861 eV
Sn 16.10471363413357 14.261740410880735 7.078774816760479
Sn 16.73743972224708 15.32932188480917 9.83002432409497
Sn 13.839480185118003 15.930545344023935 8.167782677002808
Sn 15.650558632552478 12.081458640648005 9.130905542708549
Sn 16.658445267941772 13.552182113130199 12.488790778068047
Sn 13.821650896183275 15.616094013422497 11.136672620238212
Sn 13.396434622468583 13.044981624906328 6.786509016740106
Sn 16.363277408113298 16.57333741352629 12.590845466438388
Sn 11.024189858161513 14.273094404225459 8.318344051013117
Sn 14.857811031913378 14.977587771901584 14.854036460631725
Sn 9.109692957509665 11.677865248922554 8.813563353646483
Sn 15.797563928870845 9.840183102630434 14.741648525031055
Sn 13.960560049799204 12.604611542779766 11.590055026331383
Sn 11.103528782943474 13.67957203479062 11.25421269435279
Sn 13.285981547057272 17.228822118844878 13.63119655419379
Sn 12.420116693512364 11.576831560869557 9.197617587763368
Sn 16.64793206813312 12.642437339239507 15.425667914668034
Sn 11.322890181767434 14.980285642139238 13.94524292151874
Sn 13.305520080449215 10.12628314482228 13.036610456000627
Sn 12.897077977834718 12.52846200977497 15.042063291397497
Sn 10.770199887479881 9.16758873402112 9.363076861391717
Sn 8.194466255834408 12.834786071296202 11.602729000928974
Sn 10.700117552893326 14.265871481726705 16.85636792560165
Sn 10.284999469194487 11.302295219407506 13.225051745904295
Sn 15.197061418346319 8.397849836284102 17.21786581673648
Sn 14.84333772921576 11.299931680309218 17.46707035056233
Sn 10.990209347001063 8.394099739027158 12.317021512373042
Sn 8.398646732469896 9.785577549330965 11.263123064371252
Sn 12.691413744955934 9.293863457661724 15.931763264496109
Sn 8.43480972426217 14.103412409425449 14.402571888832796
Sn 11.742908663834369 11.607101215482013 17.806044647799567
Sn 7.8208537051263285 13.518317196213253 17.177544285113434
Sn 9.304993666593754 11.289941081147674 15.992861104301845
