33
Energy = -114.80761957 eV
Sn 9.156684640849981 11.505879308684179 15.044597421371844
Sn 9.845021891189129 8.313397510519607 12.580547559346327
Sn 11.412965802837395 14.118490460169907 8.207252769893456
Sn 14.256022198673335 7.087127159123213 8.170635755462254
Sn 14.538712333140774 14.072076423662347 11.465149226260055
Sn 5.740965105278742 8.220236808044445 12.629369950023124
Sn 8.149936091046387 9.456335441517721 7.976541329876339
Sn 9.06666106411648 7.39075969792 9.892159994823663
Sn 12.022173714753176 15.616318378884584 10.862247500767051
Sn 5.218589596373995 9.431570741392976 7.8575011829319426
Sn 10.33500351843831 10.070892395139394 5.973160851249812
Sn 12.27532325431696 11.248825629668424 14.419468837372804
Sn 14.340290166415317 8.121999986132241 5.515253404915649
Sn 5.337825514814049 10.326991719142958 10.640526788393744
Sn 10.7070392701709 12.83796020961228 12.464959521925998
Sn 8.966605079274833 14.25059512544362 10.344128687714788
Sn 14.521609023616888 10.75999024029814 11.831369631531679
Sn 9.959421068137216 10.948794286923365 10.08124966038354
Sn 7.865472460698533 8.730105852321753 14.703499733357015
Sn 12.776826715669218 8.466279692823639 12.702351425632527
Sn 9.845665333837815 15.795488627324744 12.981039681399615
Sn 6.051588843454783 7.304076937055898 9.808358171350159
Sn 7.750907161905603 13.543997303208654 13.371047801723039
Sn 11.117442303541957 5.5732991219868016 8.741210042759356
Sn 13.044342346451913 10.100651110234688 7.378422834496995
Sn 8.785260412559602 12.628347622493628 7.811493411066752
Sn 11.941021470216912 8.531553522704124 9.73945788361829
Sn 14.926264868883242 12.754938092164583 14.134008167266641
Sn 12.770442038898706 12.10296869898573 9.850940012647097
Sn 7.843210293422794 10.716640371498803 12.23245330306194
Sn 13.408716508221719 6.010438594007828 10.769662629445042
Sn 12.613927297890882 14.736452419900074 13.945324462917933
Sn 11.555757459173497 7.412418504967386 6.369501799717252
