38
Energy = -125.74936056 eV
Sn 17.993564328308974 15.052760060675432 22.589612831415646
Sn 21.00343555701303 17.036123983386325 19.873902589089333
Sn 20.15467247657912 19.032061912304844 17.595375502140804
Sn 21.218025577538565 15.850298739821476 17.01334848047498
Sn 18.579772679428412 17.180028656084797 15.30270472084088
Sn 23.317434692768582 22.296332892403544 15.879794577103283
Sn 20.08101958275791 0.7732686563385135 19.126613972893626
Sn -1.2114136492828014 15.677015240599353 -2.7996849670274373
Sn 8.101771515106396 0.8470172379658164 18.875024066078165
Sn 0.4163397438158954 -1.33664543797486 18.44247293457312
Sn 23.391366595015 18.882386605596253 20.17457957046839
Sn 18.57986174503742 24.259111440640865 2.9030771734604053
Sn 15.295840364355014 13.342446346062085 22.721900360744872
Sn 18.051996563171624 16.6439211058731 19.975371360449028
Sn 20.65792801893408 22.802892133327013 4.087039194460532
Sn 17.659495306537128 20.76983417382591 16.993463541154945
Sn 19.94629536543761 14.179775267051957 19.290417242378993
Sn -0.5273048213607767 15.749198237396593 18.736161653726885
Sn 1.30264205283366 17.963426466709752 18.047871750207992
Sn 23.272328805293405 19.449387332018304 17.024348138544745
Sn 21.666873037565253 18.085808993895935 14.909743054892385
Sn 15.361932837473054 16.42009135251516 -0.39939220533390946
Sn 22.734840598127427 0.4639495417091335 17.81808207281823
Sn 18.05866597870178 -0.16785740475560992 17.09441959562602
Sn 20.52230860795712 1.1719918445188924 15.958233261847006
Sn 15.150116702772921 15.906795151438418 21.167413082438074
Sn 16.758547653792984 14.14995668164614 0.7592524596769992
Sn 15.024610453074661 15.393817453073204 18.268189688277943
Sn 16.733036256159572 17.890289843468018 17.62068193003576
Sn 19.180243970410448 22.227920697420643 19.32996760494454
Sn 22.13517277750529 21.773702539679622 18.93349366894677
Sn 10.786058371115823 23.52637317380178 23.158670517585385
Sn 16.899898290960348 13.449975911105854 19.978010017549842
Sn 1.2677099666145597 17.195385809858067 -3.439192253295248
Sn 9.434328120532143 -0.008474591376747543 21.026676977933175
Sn 17.88825078123321 14.863676386276266 17.144617208025327
Sn 20.399272137588657 22.457310942905142 16.30096909742772
Sn 19.377979552349153 20.09787332364426 14.549322284837952
