30
Energy = -104.78689836 eV
Sn 17.060675533224174 14.270152793008254 10.447044635963348
Sn 10.477626590610296 12.252667692149286 9.092484971018466
Sn 8.41719479125987 10.471937202734836 10.882007804155066
Sn 14.876047619056415 16.370068148324354 10.104288853668281
Sn 7.650383563158517 12.903036251620252 9.174309489941265
Sn 13.080741643489663 12.268638705179695 7.759685522658231
Sn 11.64833462770291 10.809381631152604 11.65864540697837
Sn 15.676915240791985 15.47983313991879 13.098626537185948
Sn 9.367849012512519 15.309863522003294 10.057048442821076
Sn 14.22858717515025 13.14473069775715 10.513924534212752
Sn 13.960865663968626 10.016816374990764 9.806156610842368
Sn 7.604853865947715 10.976796079693512 13.765479712163721
Sn 12.305805335736594 15.02083960841434 8.969937601027581
Sn 16.758210867654217 11.275646399884058 10.09517065812594
Sn 9.883587648807389 8.775639665877208 13.005727241167387
Sn 14.239137979091048 12.223256543433504 13.426474197747249
Sn 11.221776788586933 13.74336872073923 12.048400704298755
Sn 15.838056385733319 9.729243408113321 12.559338641157245
Sn 9.051013814079147 8.995038644491006 15.90197528246663
Sn 17.569037733776536 12.555938310785336 13.039605909914924
Sn 12.723560731928455 16.355051991172235 12.215725590419886
Sn 12.916125456965451 14.622915475469497 14.719762972364581
Sn 8.018000645686755 13.699184812113415 12.224099556403415
Sn 11.02505538549173 11.031008870328655 15.016881984875
Sn 13.76023237045077 9.447961078863033 14.894913453475215
Sn 16.194721718217995 13.827269043727703 15.684961735036724
Sn 16.531195051961507 10.778802018043969 15.500805822365928
Sn 9.647943446489569 13.646112924699711 14.809890332184784
Sn 13.951555665010778 11.926184479906185 16.65303975630825
Sn 7.98753077863625 11.745238896581915 16.546209170229865
