36
Energy = -125.94090354 eV
Sn 8.710670775457702 14.324938536355289 13.939682862272518
Sn 14.96841810689396 15.022492845463713 10.526126409274928
Sn 17.742619632411103 14.871753525528622 12.106149147702206
Sn 6.671961251488584 12.444562091631513 14.967213704258665
Sn 10.739961157388048 9.614242912222968 12.000146764620252
Sn 15.326043799197892 13.120683161594458 15.640350756495453
Sn 13.806366732821596 20.010168556403386 14.572261995297655
Sn 18.400551828923938 11.290086968673048 7.668137532901268
Sn 11.512701163594382 12.666483952650154 14.655044265584017
Sn 17.117549208378524 10.19094566836336 10.22470829523329
Sn 14.113031656821363 17.66083950264368 16.26056903536656
Sn 10.39531392125056 10.292877464266027 16.575053932655496
Sn 13.559374358131391 12.956551713474994 8.411330878869492
Sn 12.188675511986652 15.44329336217838 16.751216001857582
Sn 15.954415357247228 10.361233643857453 14.778383656625756
Sn 16.94905151906146 17.140688828098273 17.400933912703312
Sn 9.270130333855564 15.694686338771994 16.542297641913493
Sn 8.95274934430248 12.847420655686474 16.894165004833958
Sn 9.935572002834016 12.73569059202114 11.623142886571644
Sn 13.613158717007853 15.106535062313242 14.109717576864712
Sn 14.11006743412685 9.957315091897293 10.019209293716452
Sn 16.69422798133506 19.109259343342178 14.802507362168491
Sn 12.985220862000492 12.835639725531907 11.551815638270423
Sn 13.547343925292749 13.240349610755487 18.19687399991413
Sn 16.52945903151729 14.123575830657556 18.16061036835704
Sn 17.357767606185316 17.8974971886177 12.116294064269805
Sn 16.742889783490543 13.13379876401805 9.04808956470648
Sn 14.381114542353611 16.2401404412674 18.94544291253794
Sn 16.045247110389024 12.369284602000139 12.14324289768244
Sn 11.397167633114332 10.901852343854898 9.35354571614928
Sn 13.403607806006184 10.701548923186724 16.298012004501622
Sn 13.504755436231349 10.204359229563192 13.019258997362096
Sn 14.51476696130353 17.773830914314207 12.818837969620413
Sn 15.481772996661046 10.732067211542939 7.43791253024465
Sn 16.631076014266085 15.829184948056401 14.731442977965946
Sn 8.950086731684998 10.834702594345078 14.022408442111692
