30
Energy = -104.76008008 eV
Sn 12.636908103117033 11.336078574765928 8.981998248328004
Sn 14.73356282431135 13.867972380355688 9.51678803905015
Sn 15.642533068652712 10.850346679848439 9.368957778530788
Sn 10.34183601019691 13.093879364225224 8.07263850964149
Sn 10.250461531277038 12.67629813517504 11.190414755108366
Sn 14.012241721957647 8.713060064661816 7.9971394033465195
Sn 11.838095503378863 8.462624612714032 9.99623000927493
Sn 7.871168814524725 11.74024961401912 9.406643162676922
Sn 12.871791450171262 16.12263710209954 10.326564499744682
Sn 13.484817670842737 13.838593681708865 12.297400652994332
Sn 6.183296801373151 9.662061634606319 10.65234153319772
Sn 16.527127231642293 13.221582725375473 11.957156229404893
Sn 10.025060751993635 15.674500553740156 9.65484730975756
Sn 9.217944118900006 9.506249255596702 10.949454342613102
Sn 15.420728370240898 7.997184566881384 10.713639447152186
Sn 13.582331122581506 16.793513724468223 13.403060810992232
Sn 10.121279433335664 10.64015940591414 13.82406038529293
Sn 7.395898759437618 12.048156204765537 12.485064356867131
Sn 10.645751088178342 15.332445325634083 12.531914153745717
Sn 10.921159138629516 16.714286233753995 15.095859122970046
Sn 15.587227076260747 10.361551141922725 12.50882762315754
Sn 12.624171879060578 10.84540941412977 12.011484350108335
Sn 13.095437112174263 7.870281630777933 12.655755198305435
Sn 15.394285170449137 14.585652135952383 14.51128965784553
Sn 7.41710882771347 9.081141248926423 13.29109607034152
Sn 11.74510455067691 8.412743653627382 15.144790669311286
Sn 10.36105966565046 13.631150365022407 15.239032961952736
Sn 14.406496703688031 9.805039268725908 15.285118499651453
Sn 13.055910724756773 15.156654415090152 16.419024126879314
Sn 13.088838062228811 12.458130172918167 15.01104137916076
