34
Energy = -119.05661901 eV
Sn 18.016319864188414 10.71350187992799 12.431193037682815
Sn 17.332741076172848 15.896803027820546 10.659388872691885
Sn 16.936975084979814 12.479356850513708 10.120074563127506
Sn 17.608189242232275 13.819061213352581 12.902660057716675
Sn 17.37758723262328 11.877613881582397 15.244549782010898
Sn 15.567561044125995 9.263039096029958 11.381323236579968
Sn 15.716621588735931 16.44521832773058 13.34262429101797
Sn 15.379046850360092 9.856893294484841 14.26117735518639
Sn 14.590231332711454 14.991341294002103 9.941433476378693
Sn 14.821746976040263 13.533965033583389 14.769880358194488
Sn 14.815193894119526 12.102343350434113 12.084801794751973
Sn 13.097848231686378 18.10719872857848 13.058746937546681
Sn 15.110870997578992 18.08847535850729 10.671754283950818
Sn 11.235737195690607 12.28112682602858 8.830996442979428
Sn 12.440340492598379 10.733116588316614 14.897003652683658
Sn 12.860599116057632 10.01356947395596 9.88761869623072
Sn 11.102975990159983 8.54786878881193 11.860074785972119
Sn 12.009355144520761 13.043687419363923 16.695143655767527
Sn 11.036397389040799 10.533821128679383 17.978145446150116
Sn 12.648355856633385 14.563120097281967 7.748451101278685
Sn 9.269819271105266 10.49739987889772 10.518557717262356
Sn 9.832415326135042 7.889115473044875 18.03537934743298
Sn 10.721932686006566 8.39217529697334 15.301556761532028
Sn 12.284427644633773 17.30448164252217 10.170847000804436
Sn 13.135673383916302 14.862838284519876 12.543875431671266
Sn 11.665236748647054 11.718478277764405 12.127135341833036
Sn 10.038012284429461 14.94754998487632 9.707950202079607
Sn 10.795065695339757 16.903792649109192 7.6523546284622945
Sn 9.559648387114095 12.355998069649283 15.075818277355832
Sn 8.803606620914833 12.553732174417306 17.88435650510502
Sn 8.079812289854033 9.854781744057638 16.63691057298036
Sn 10.589831811592653 16.281846622018936 12.51470975593198
Sn 8.6177822807975 9.776867602127577 13.602899270971491
Sn 9.046994750260756 13.111263497175857 12.088941049324848
