39
Energy = -137.75531849 eV
Sn 13.388696012700484 9.209449959509698 16.981417758416153
Sn 10.532347457134009 10.015815197867107 13.171086078784434
Sn 8.12301771580524 9.700650775564593 10.85892551844488
Sn 13.341534946554669 11.561640546161055 18.938854530263452
Sn 11.382650184408703 11.370535647631339 16.415619368379538
Sn 13.211027633233607 8.171436583042905 14.066927692162526
Sn 7.80995538330206 11.963090141255673 12.874249939352149
Sn 11.124883126789666 7.91843054141867 10.966198228050713
Sn 15.83405361913573 9.756423597716942 15.08339621989189
Sn 14.152230702145523 7.453686791925264 10.836914816362674
Sn 16.002401380192353 7.357087978820662 13.237442159712776
Sn 6.810835419985656 10.10177555925827 8.179711292174076
Sn 14.372835752803196 12.92215235911986 16.623749671839885
Sn 13.30307547413635 11.357685810824576 14.051379586225575
Sn 10.277913823379526 12.266982086319363 11.136593719038926
Sn 9.62288971628986 11.051643591635276 8.37826552516233
Sn 5.861597264385049 11.959328199805519 10.445525184331991
Sn 11.606653643660781 13.92378571553824 17.89300275808158
Sn 10.008281459136354 15.27750678002449 14.268597772654715
Sn 11.848845444096483 8.967468222574196 8.238517105015777
Sn 11.781495888685058 11.437686449492983 6.203803164824912
Sn 13.057906579339503 10.422845192985053 10.82929768855192
Sn 16.10541842356772 9.91143281185767 11.635036762717021
Sn 13.85787904694098 9.113526873030544 6.18586248401935
Sn 7.91928525959191 14.337283506944086 10.889284925890873
Sn 7.411868944633503 13.178188343915762 8.048696703309222
Sn 16.17374481600575 12.684559805017175 14.222695145178454
Sn 10.237540819372203 14.062812877817247 8.780301340260273
Sn 12.887854994058216 15.36155578124188 15.493411575413827
Sn 12.294008242894439 14.227274892871613 12.694357089773671
Sn 13.977604507532412 11.607255396930888 8.1820164996407
Sn 15.64967483396383 9.160641106064908 8.6649638334385
Sn 11.425996954312662 17.9379098622978 14.62414756199503
Sn 10.91773580947434 16.897495635817183 11.742970044695959
Sn 14.811617230197475 12.998902223867072 11.464841663469182
Sn 13.65773486812259 15.997592993497483 10.622568368466558
Sn 15.150288662587087 15.833761462959943 13.267070019989637
Sn 14.462314941385367 17.898147239444558 15.337351722415207
Sn 13.55694355124654 18.51755059807163 12.45461881443983
