34
Energy = -118.94789787 eV
Sn 9.382851234029946 16.327553131433735 12.122623454254695
Sn 14.87646214723826 9.367631406512444 14.095688550445185
Sn 14.628100089516963 11.191282952747706 16.518612323929382
Sn 17.41291768550191 10.832863028221805 18.162774827703707
Sn 19.100097599766077 16.844739205651116 17.51324955928535
Sn 11.679363547027519 14.390670990788662 11.926505987840908
Sn 15.973292396979136 8.413651094772085 16.792338025786492
Sn 16.702857813343556 14.017824509880224 18.63112763165048
Sn 17.78466637372356 13.604009626741556 12.697119366706133
Sn 18.214221630323863 15.935487965569578 20.224548451980276
Sn 10.11695575378524 19.110717346025723 11.24641326825261
Sn 19.468407526480128 18.751744354635413 15.17601910154784
Sn 11.875793032142058 16.912067127749633 10.143487317403768
Sn 16.141910239205536 19.26192799243751 14.292722892609465
Sn 12.976620377719684 17.385613433608498 17.793012768046008
Sn 19.472591084435354 15.26228634871886 14.988008705760201
Sn 15.789600262832758 17.206324217964003 18.99464324200009
Sn 17.149044895267537 10.665006340212827 12.387694721234448
Sn 16.552943811539354 15.672419300371022 10.943995364694642
Sn 13.034952606137868 19.23211278074506 11.973285357402306
Sn 17.91980067783447 17.18658889910482 13.061725549787994
Sn 12.16787208427269 13.005468974712265 14.622060986215017
Sn 17.176419844689732 19.31251828427932 17.093337746593626
Sn 16.59552108949685 16.527954855461985 15.705828331239598
Sn 10.540669160003624 18.76348224627734 14.208348477861767
Sn 15.071076547050057 12.605495754030656 13.771400360274107
Sn 14.64177071814354 11.943166942243279 19.37514421812322
Sn 17.827069005242304 10.04571634325521 15.155755405980292
Sn 10.848396539645622 15.733103507821067 14.740470108059174
Sn 17.336393997748363 13.098899344443822 15.88528667438876
Sn 13.916444498910392 15.066521881753758 15.918901180236547
Sn 13.754049580326665 14.787551172244624 19.04383603000316
Sn 14.00123825176398 16.264217805572763 12.283629630011372
Sn 13.341377140100072 17.912711973032653 14.753612247777292
