34
Energy = -119.36410357 eV
Sn 15.20987231231698 14.618646324223338 5.886210753183376
Sn 14.293790852229172 14.926598342335017 8.748690878831196
Sn 13.193900689618497 18.976784214487072 12.69685302873338
Sn 12.49928016964264 13.538972023710643 6.732495573784488
Sn 15.639377235467324 15.07121366932611 15.133352572667565
Sn 17.144874753298424 14.169409388092099 8.194306325914015
Sn 12.721580987235722 16.594947838193598 10.81279995591961
Sn 15.316155787641096 16.70700598374219 12.482911398437311
Sn 15.382847282597776 6.161610032466732 15.485688001998696
Sn 15.84573066989367 9.689669076470828 12.20305265099193
Sn 15.070366420348789 11.930629658803596 7.475223745103658
Sn 13.642573350866545 14.04574348061574 12.365385000679625
Sn 12.732995760635207 12.369785212385933 9.55680547520491
Sn 15.716989317251517 12.657142212279501 10.442123385599313
Sn 13.980520853657007 17.551647794713183 15.2582730765322
Sn 16.533746940033073 8.855857559161036 15.049041600997517
Sn 14.180290073741846 13.554917794863236 17.398305907041255
Sn 14.00036994190707 7.571437989343093 13.312635115373784
Sn 10.919903333848598 17.18184661667924 13.423709369395882
Sn 15.22165133027204 10.427278767167927 17.36622671839974
Sn 10.58466615193045 14.476434726529355 10.876471225628336
Sn 15.340967713808238 11.72434950276889 14.514134664979627
Sn 12.40077043361166 14.637243691290458 15.153108691610264
Sn 8.659019836828934 17.36045744149757 15.323372471121878
Sn 11.386951749902984 14.47642064277774 18.10647918434521
Sn 13.411261850507932 8.084783984711624 16.508312762670236
Sn 11.32883712106866 8.522258060772648 14.391507551439478
Sn 8.563782900739893 15.16905745450043 13.12063162610775
Sn 11.359669345347669 17.09036523572502 16.72790895673198
Sn 12.594037757582015 11.051474548323325 15.856415353734723
Sn 12.978411924569123 10.650818451927085 12.788289702010953
Sn 10.458631530911434 12.844787045356755 13.52958941510693
Sn 9.14929380264854 14.331935786154972 16.062846806344425
Sn 9.635049236659286 10.933919637062893 15.578681103407968
