38
Energy = -134.18069892 eV
Sn 15.328440102831825 14.016250412156278 6.017111625847373
Sn 12.754278262482783 12.684052924592407 4.957938434701501
Sn 14.792392792784247 10.980605067402868 6.495451522504764
Sn 12.60966750966935 15.553242127129248 6.149215680872488
Sn 8.306584094244629 11.042223928172454 7.65493364211895
Sn 11.571841749932 7.892157505352026 8.20898275551995
Sn 10.33701618142176 13.457493681797633 6.753444573664344
Sn 12.138286580342674 5.2808071704980835 9.945302921176081
Sn 6.40769030169295 12.827579502433448 9.144348529994689
Sn 14.797009253288156 12.746699978864406 8.888442990973573
Sn 9.332552048101876 5.674147299645469 9.060970372719332
Sn 8.402620915134728 8.480072574465614 9.166591552345917
Sn 12.115898624742597 11.241422331148929 7.7933572797660835
Sn 14.654702441705052 15.793092960154292 8.445372346594423
Sn 8.770217243236724 11.187836998993482 10.790513648791269
Sn 5.655133265413292 9.890410232979756 9.334012521026729
Sn 12.030214287882076 14.328480148346765 9.048788024724951
Sn 14.046200309573694 7.65412666419849 10.147299086331675
Sn 7.823036610045037 14.048489029891137 11.620592998729819
Sn 12.42798979525343 11.588574132799032 10.9281916530101
Sn 7.113927245494706 8.760514101746214 12.018560447326635
Sn 11.348475156400486 8.702753142131183 11.12223196396166
Sn 14.375017929617902 14.833213328341383 11.44050588577185
Sn 10.035771341101617 10.066612119619544 13.683731195649422
Sn 5.8117068394409435 11.508407228235939 12.009780494560841
Sn 12.673838906224175 6.375338876503899 12.729510332810106
Sn 13.742074598899368 9.41895118896386 13.023357651972248
Sn 10.930538952581458 14.093198234096413 11.839519707523603
Sn 9.650817593648279 6.34479896115828 11.996858570971563
Sn 15.424178691520439 11.940565612067394 11.732129635185089
Sn 13.078156103537811 13.092130931772612 13.634006953251491
Sn 8.730861022489227 7.534256761044723 14.892795781613623
Sn 12.166302962165064 11.066997795340674 15.953733957493004
Sn 6.766815579432861 13.275044745116041 14.347102162304175
Sn 11.68951463026569 8.109176795844343 15.400979377822782
Sn 9.482912613344004 12.461296588159408 15.364019450060344
Sn 9.582366261212993 9.845681590088263 17.101954740624095
Sn 7.1904988161680725 10.298844942070808 15.253907143006456
