36
Energy = -125.6128397 eV
Sn 17.819992351706443 14.511644752794744 14.520417700441243
Sn 19.88914490277438 17.517166060848794 20.50511362437874
Sn 20.386122587110986 1.6229998946684658 18.571821148949727
Sn -0.2092125177213065 20.958700502524984 16.42391803231972
Sn 19.030707413165896 18.67049783839977 -0.25111762581207586
Sn 22.460892809105854 -0.01684143823848293 20.34974131618522
Sn 19.09026484774851 15.807336342520975 12.233854996192468
Sn 18.413090846165037 -0.27363614262620645 16.855795048701893
Sn 16.74116754853743 16.999710812493884 0.9226759456894889
Sn -0.3179487278629189 0.6595998499829473 17.317943752374635
Sn 15.344263390248488 17.25700941630238 15.418522948871127
Sn 20.402475548663134 16.900679280589436 14.7715557755569
Sn 20.368296532022217 20.00303821358713 14.773889999713765
Sn 18.146124971750336 15.03234565282385 20.00286803872226
Sn 17.79921154262974 14.041333509708497 1.6753901445349895
Sn 16.139973321406117 14.600351325850445 22.392911649732
Sn 18.75895830006029 12.81112560455639 -1.2284682636618436
Sn 20.746930548293626 21.885488328586955 18.10863267607979
Sn 17.995908584893503 20.20031743560466 20.097257910436717
Sn 16.168547578789497 16.343835751862624 12.274511517999164
Sn 22.425592811022444 20.229818547737917 19.975095273400214
Sn 19.9684892641476 1.100680955666349 21.763298112429446
Sn 14.641565776907395 14.4336146113609 14.191901302219662
Sn -2.196471410638184 -0.4482710702725999 15.171976194359843
Sn 18.050073354400688 -0.1905655572854251 19.9126040507575
Sn 16.298312641517995 11.958312504200167 0.2598453596964079
Sn 20.145636709091935 -1.9497702986814596 21.741792834973882
Sn 18.385794018239686 19.956961690068233 17.141780997825453
Sn 17.8261080237775 18.38327567804533 13.854250754888728
Sn 19.208255606408642 15.644882085623044 -0.42628619179655647
Sn 16.132242630664372 14.594600672159224 16.902659573347737
Sn 16.756866624259526 17.64381637439447 21.24123569962861
Sn 18.087232841034922 16.94926930514403 16.85136662397717
Sn 1.309096165729942 22.00852430207448 18.873727473882145
Sn 21.222648972326017 18.67900947815913 17.49409403065173
Sn 13.503042095300248 17.07649902645571 13.145234948473638
