35
Energy = -121.9297716 eV
Sn 12.964113157007771 13.801486991154537 12.162374596664723
Sn 7.9198203051648575 12.823155553121802 13.189088340787578
Sn 9.804461006971401 8.055099698471437 14.87735550813238
Sn 11.800577179698248 6.441857924432305 13.03132381416137
Sn 12.838597704274699 16.91434342083523 15.76541450773185
Sn 10.078627065697637 11.28268098020043 14.594215004563885
Sn 13.316737855571068 8.433318489710302 11.12232389004089
Sn 10.500821701056982 15.358319006213316 11.262773655822349
Sn 9.955452056164267 14.038243720865461 8.281450130740657
Sn 13.281260751669361 16.97014880066869 10.697605261505606
Sn 13.911776603123824 8.14734280365825 14.257894893338133
Sn 12.761962316617918 14.088063662283686 9.03916659154554
Sn 16.53858212327729 11.568085896404162 13.826714176744327
Sn 15.538236858962932 15.252069831055513 11.876215054778386
Sn 6.90716450016415 10.833536334794715 11.156080978406335
Sn 11.007573350116614 14.864752388212924 14.406937269934689
Sn 10.915106788725371 11.177556357520954 7.8052374891469825
Sn 17.393146442640425 14.021564006907184 9.96548826040038
Sn 16.77763307777137 8.726597958892139 14.792776277688175
Sn 13.701271504701285 11.160974379410684 14.394580072858819
Sn 13.394755246043877 11.134336815173423 9.494248752749956
Sn 13.070152320920457 19.708835447957537 14.705829120677052
Sn 15.96094301806743 11.641596975323766 10.863221703190712
Sn 8.89027291430285 9.405034484820975 9.324810484626337
Sn 9.584651241087336 12.174031861992828 10.58406654162216
Sn 16.293541241799375 8.913542634238471 11.892912862408654
Sn 15.232338032756731 15.785700971222036 8.711933137719477
Sn 7.457886526628184 9.708133795010628 13.871520210407372
Sn 11.537516354815393 17.877749035646442 13.036038214592969
Sn 14.904304408708164 17.66182491319292 13.564166748456998
Sn 10.032655279794419 8.637860336240786 11.920459952398554
Sn 12.030212313749326 9.552630679635252 16.348519277826213
Sn 14.312126934387422 14.474843248736395 14.910856647082595
Sn 12.077262004898992 12.699992327353014 16.52844790319573
Sn 11.816725540747623 10.98808193566366 12.06404125758437
