35
Energy = -122.65428774 eV
Sn 19.020702412337496 15.042755498262654 16.730403110551382
Sn 17.237332473953614 21.0842646528832 14.792166954308824
Sn 21.60697216783175 14.33756593304215 18.79925303636784
Sn 21.928420183416666 17.11545152120648 19.917383283348506
Sn 23.703071235297063 16.552115498950883 17.559368387856413
Sn 12.724863501751292 20.609501043518264 18.12146253163256
Sn 11.205210724368953 14.25212263457018 17.094818701302387
Sn 15.415006321433417 16.1866998615634 12.882732193886318
Sn 14.170409243368415 11.538304167951377 14.3161947170438
Sn 16.796151134230346 19.02407457572271 12.444416476519663
Sn 19.475705876178424 19.054621779570383 14.517623637252902
Sn 9.571171933453545 16.634394586507643 16.30394057257155
Sn 14.975863577588425 16.961824645126146 16.000847394464472
Sn 10.794158595267454 14.983945593169091 13.992779749256142
Sn 13.606041970341337 18.44046419193909 13.510159566950296
Sn 18.981363317022506 16.372998483177312 19.42017850305763
Sn 11.166213063156693 12.049034034926516 15.025527997709114
Sn 15.691065394453556 12.48801884362066 19.07415871087394
Sn 15.090817543111509 20.15766069186854 16.524560622761676
Sn 18.947188328681296 11.892617985262282 16.279862526007353
Sn 18.804659862230977 13.081465842978897 19.069996367112978
Sn 10.70464167529005 18.366202421277166 13.997837923717842
Sn 16.18177147498825 13.54750667537642 16.155765492083376
Sn 16.108948891548014 10.510581209186004 16.541823872217545
Sn 13.535938464736702 14.420311735152552 14.779274682567236
Sn 12.240266060961874 18.03297279543762 16.720756087525807
Sn 17.655462215164267 18.189537099004326 16.92333557994036
Sn 18.006525484320665 16.474022727155678 14.188512877565266
Sn 14.583772028001215 21.182457552120837 13.247955389643895
Sn 14.051994513962216 14.899437843611503 18.094888477022888
Sn 19.808118923045754 13.866339806604527 14.02728268668179
Sn 20.922722747710527 17.63437247991514 17.040634564899733
Sn 21.993806448473375 14.879373415076875 15.828148258402841
Sn 12.16064065489237 20.906794411669843 15.221003229633276
Sn 13.309243101667457 11.680945019968492 17.339958840384
