37
Energy = -130.14618125 eV
Sn 8.650948463732579 10.903928780348192 5.33277963962028
Sn 8.274915972551224 8.050529338033014 4.554921439941447
Sn 5.661076730759946 9.536018744310539 5.239228796515765
Sn 12.589854609544306 7.228920766773423 6.283963038569839
Sn 7.71542499747193 11.907953448870519 7.996527512580724
Sn 11.333652222696431 10.286204829458077 6.714270861561742
Sn 9.497689367264721 7.134742524479959 7.115238007070471
Sn 3.9237681991054068 10.919776036424079 7.401705825737535
Sn 6.110324608285154 6.526687095818256 6.2082440352591
Sn 3.3560085128602335 7.826743836099209 6.79271859184166
Sn 11.2923367656212 4.565081537015305 7.278981540797886
Sn 12.193259201734469 13.058985444511164 8.059081261087906
Sn 14.307293632682283 8.416428279096303 8.627103643767539
Sn 6.245410461111617 8.821601943929055 8.24208625928674
Sn 9.564618739521915 14.138099730184534 8.973743409240898
Sn 14.160747463571578 5.232906987370246 8.297712234002903
Sn 11.668760458299756 7.055003877183658 9.65396118675319
Sn 9.22559669470024 9.499304361851236 8.963616260828692
Sn 12.044551779249456 4.018348617233936 10.201262750669057
Sn 12.062449391087847 10.452483219203408 9.672804311180482
Sn 14.151260349321019 9.630012334642057 11.564348995332324
Sn 5.5156479370467855 11.241370618435587 10.14934734045335
Sn 4.757014070567236 6.2869198096010495 9.183581630229654
Sn 14.081705750248434 6.291696833755673 11.240443710000298
Sn 13.670025581932576 12.863290335986573 10.692295390885365
Sn 9.030855646743346 7.761982223619481 11.368312029989546
Sn 3.299902794623232 8.969050158196204 9.663951140099897
Sn 11.149709188639378 14.494064936907574 11.785813823247246
Sn 7.036262200367615 11.82383391602626 12.893736586440689
Sn 5.978430211817335 8.390895230584375 11.328932024400078
Sn 9.170609830194701 5.154918962895591 9.597393614057443
Sn 8.062086472587689 14.56069797035671 11.666260798500675
Sn 9.460339543150583 11.803824861204005 11.094977402221517
Sn 11.860885651906855 11.572427150224147 13.052509461357646
Sn 11.766110222199915 8.06133461652531 12.843878881654904
Sn 9.508994796846899 13.244046081268207 14.1961253837606
Sn 9.328204015095258 9.976617096718945 13.774873716195735
