31
Energy = -108.17510512 eV
Sn 15.626866223735254 17.42882734431363 8.97747821467766
Sn 15.69106177003878 15.205687746900853 6.6312351189782515
Sn 14.512740684264024 7.705751410418527 14.83062779753026
Sn 14.033746530058522 10.362291171147222 13.298494838810823
Sn 16.709636429477786 9.623428006529517 14.943503828707247
Sn 14.015471003181014 10.45808295875763 10.088816901431858
Sn 15.369043633512163 12.4607351694137 8.152608626151858
Sn 18.189132180003927 16.346990826779106 7.586409802131788
Sn 11.547285006804708 11.844029506485773 11.407461539427427
Sn 13.965615615854409 15.087206365719005 9.149954930065014
Sn 11.360713992913432 9.67478298825504 14.469820130097858
Sn 12.261805598185004 12.647813497689935 8.48816275530603
Sn 15.508310773891559 12.47122261059451 14.954015253683766
Sn 14.553365511314478 10.087699717839454 16.979100028267904
Sn 17.01064941126681 14.690372159397732 9.610450486326709
Sn 8.99453519626873 10.283865979665824 12.648160246797042
Sn 15.940478071850615 12.487805024612578 11.51234940953823
Sn 12.244926939689435 8.071020235112599 16.781876303600335
Sn 13.439406593487385 13.889810816669558 12.411792522595391
Sn 11.352626338982503 10.97654074910865 17.442321749753635
Sn 8.686937049374809 10.820382320803352 15.958409118992627
Sn 11.488926438065695 12.817013544311807 14.815398969950776
Sn 11.100968120748837 14.913555448712893 10.616640394280454
Sn 8.676719597035744 12.994716070894535 11.189056359111925
Sn 11.842546345283933 16.570274852563106 13.3278386461089
Sn 9.444768772108723 14.765211535770238 13.672490223556146
Sn 13.997961878874657 15.23183388816834 15.07580040267335
Sn 8.667075831337135 13.817996924020273 16.484486078633708
Sn 13.284943457155732 13.307429518750759 17.334373591357302
Sn 7.256089555350108 12.601890738968022 13.920836476778081
Sn 11.181426694570181 15.606097692863605 16.44066623689179
