33
Energy = -115.15720435 eV
Sn 15.285805250624652 11.244404127004596 16.062190790759843
Sn 19.02303393558766 14.473479149536058 15.55824325198015
Sn 15.464476227190195 19.644282125092356 11.699315708405631
Sn 14.241001906784414 16.941432478854185 10.481043102112498
Sn 14.720654429939415 10.644144205334976 12.929645580464365
Sn 14.33111277771409 14.149353543248136 14.269470869125463
Sn 12.634529068680262 12.62654815133632 16.622700374270067
Sn 11.675135270094437 15.447680370950685 17.31968906533673
Sn 9.998868309611398 15.053627091157512 14.700957366896853
Sn 12.458758167978429 18.741600627057743 12.559833509452544
Sn 10.608056629794744 10.621943969197629 15.680369454330286
Sn 15.51025807040025 19.174669527679285 19.455566928338182
Sn 11.733708898549319 12.725931646957228 13.632996504954649
Sn 15.52868848491422 17.049952196294704 13.31491590772232
Sn 18.096370626215105 18.981814395593815 13.17941131752021
Sn 12.57928646096482 16.754147508977063 14.788548021462956
Sn 17.575896457817773 17.096391061766784 15.647245460582639
Sn 13.01752936776409 9.048883867070698 15.365363059854511
Sn 16.277509951941504 14.094225668670902 16.672810682932134
Sn 18.666499478036762 15.92961049886578 12.730717360443812
Sn 11.754727790245461 15.503918478427686 11.981145385795424
Sn 13.935744623774433 7.711417927019721 12.844232058121085
Sn 9.768668672233499 17.507146757043852 13.064347734303771
Sn 15.970748282449971 8.554388268353877 14.924927066026598
Sn 17.34523181147561 17.566275081693465 10.506989917471369
Sn 14.888470605363969 17.418219799264463 17.121237580336736
Sn 11.674016577554552 9.887185195415993 12.647141403575263
Sn 16.74940365970057 16.493465092223186 19.726578839808052
Sn 16.958714541334537 12.52354358851047 13.666922207941361
Sn 19.32127752098305 16.029930911504717 18.21418871373298
Sn 16.12055302996443 14.637907150292785 11.437438029979226
Sn 14.369847290218893 14.884350132999062 18.783152392398904
Sn 18.045628747255385 18.777433905172554 18.036741983432073
