31
Energy = -108.49198124 eV
Sn 13.280713721103849 19.32258437793699 11.556083688824307
Sn 13.223365082173656 8.41977254823283 13.62116917933459
Sn 14.33589508973294 9.746390156812687 16.166391734148693
Sn 11.770942171553365 10.840296573722593 12.2910564235263
Sn 18.685551077644423 10.093916498120741 14.290216052588121
Sn 14.71204615150155 9.848874798134494 11.010169909735964
Sn 10.531504478653456 12.924146497653531 17.61745859877023
Sn 15.656442879806384 15.011499606693945 12.169985042841168
Sn 13.822117351901257 17.744283591090994 14.206683084567963
Sn 10.973570289857083 18.30265830000761 13.470756516856287
Sn 16.20205108806729 8.68967915027822 13.55135961432756
Sn 11.30327691625263 17.177052369028367 10.601241120359862
Sn 12.670364579979712 14.53588519189784 11.65815680353835
Sn 15.963332640367424 12.957864268733825 10.050962904606907
Sn 17.152958579156568 11.387576015027062 12.22450971447828
Sn 16.65667846624141 11.928276328488156 15.510050287566918
Sn 16.16451105604852 18.09899080449279 12.221192397280939
Sn 14.309072191706735 16.81739123849836 10.064070463663342
Sn 13.647163912687123 12.656084878828487 16.914440677567132
Sn 16.703363462469973 18.26099079126232 15.286423001606625
Sn 13.91944304488882 14.824624368904468 14.776782136158618
Sn 12.414876668692328 16.40755714086289 17.357821117243457
Sn 15.444289940029744 16.059997074907095 17.296608884146004
Sn 14.283399741269639 11.693371881006035 13.627693219413441
Sn 12.650944527036845 14.152260937919404 19.266798965226656
Sn 17.041842229005997 15.120122539420937 14.904959199376297
Sn 11.432322032361725 11.009128755031256 15.424283503001407
Sn 10.933033190036564 14.76787384378276 15.357063940424654
Sn 14.217160499524745 18.872751405162084 16.967611180787138
Sn 12.960474027138723 12.227674913825437 9.853919407852228
Sn 9.913612096740765 15.403613634049497 12.711657649290082
