39
Energy = -137.16617831 eV
Sn 10.718775067241895 12.422290675075619 6.833909681378573
Sn 9.41593936574604 6.2715927989314055 5.805882658303956
Sn 7.967094349869532 8.98566378117233 6.052029598603136
Sn 11.085403405048643 9.065599226626771 6.050521323067364
Sn 5.5260521456585305 11.827145646168226 6.867440919303688
Sn 8.1219387245959 12.860423853760544 8.169647335303896
Sn 7.27627222058437 6.637077550264318 8.107274919533362
Sn 13.907739858609167 12.495218916402914 9.35655757840667
Sn 12.225452376088457 6.378289477485868 7.232661505581462
Sn 11.034959825958952 11.171643082362449 9.524258127251942
Sn 11.310426613849838 14.6575308741916 8.70754031661022
Sn 15.91796153618467 10.028785311517332 9.76874553301147
Sn 9.927137886763305 8.196853765501448 8.595135877326857
Sn 7.047250345885133 10.03853683641536 8.790409324777128
Sn 9.814921882690728 4.850881255371127 8.54662442998871
Sn 8.320371497528459 15.688005509241481 9.181317998203022
Sn 13.112599792514752 8.889047338443486 9.196113192800912
Sn 5.039881250472557 13.629409949564787 9.158171396015854
Sn 4.065126294577435 10.70647137879007 9.415061375914478
Sn 12.005978625945732 6.215162373692587 10.433148931858753
Sn 8.95958185971756 6.848349964466105 10.998889957208569
Sn 5.98176153963741 15.1586080328951 11.458549175224181
Sn 8.998394665378425 10.230608617765775 11.77286257117738
Sn 8.355863685397436 13.232673673161475 11.191351874726605
Sn 11.873651385110879 13.001059522050905 11.788368874367302
Sn 6.094773573820886 9.263872790116467 11.500934825110045
Sn 14.975334809441158 11.550311839290966 12.285949313912068
Sn 13.502578267025978 15.327977747631786 10.522613914157889
Sn 14.904567180852817 7.830667695656037 11.746948763717702
Sn 12.191341388356015 9.477014816404823 12.570080258797647
Sn 5.377775505072722 12.192789181025251 11.888312937743677
Sn 10.412261875075483 15.632360729792888 11.45763663348848
Sn 10.075511505799117 7.700390671191816 13.961947320059721
Sn 13.042555844382356 6.798908321193127 14.079733842793779
Sn 9.946289131077755 10.75482409550391 14.648652124567167
Sn 17.178610882311762 9.563530469733426 12.646327770135777
Sn 12.955528616284486 11.804075826167923 14.66112123800452
Sn 14.955435510964936 9.222689712336125 14.723866655242649
Sn 12.039517065168939 9.056274049326275 15.9660172830132
