37
Energy = -130.54956804 eV
Sn 10.350178153204816 11.915294911280442 6.997436811491
Sn 7.894782144342691 14.17043633656872 8.225395058393987
Sn 14.512076426150008 7.528324972139023 7.675614507252288
Sn 9.811584275120701 8.57686535267506 6.754776477181249
Sn 12.780286761578362 9.916670330336085 6.876138573033087
Sn 14.191355813340047 12.667818221338896 7.76973100811981
Sn 6.765170492341971 7.917753161958368 7.173440793813384
Sn 5.392541669507793 12.520749618451354 9.6275386364825
Sn 7.397110267851755 10.88556202929009 7.355998694934834
Sn 11.806039221451716 6.039870743383182 7.483339777760528
Sn 11.577399513537614 14.360985808003583 8.584195752019
Sn 15.110662565098048 7.887592646338008 10.859182713278857
Sn 9.324050278191153 15.908995118319925 10.427010592458114
Sn 6.04226829564317 9.50060057870928 9.803224637806169
Sn 11.865829390729527 11.448435530835994 9.599692792500509
Sn 13.840853833929996 5.357492879165355 9.698401570249509
Sn 12.242271323315276 8.156522204139408 9.869239762651286
Sn 14.776187656486005 10.83743026172593 10.074458514884657
Sn 8.426712962485063 12.46496861092602 10.626068357596903
Sn 8.780443657766549 6.574111289266255 8.988046585356106
Sn 10.970635595506192 5.389166026131384 10.642069255464927
Sn 7.532256942891513 7.5757793796098625 11.59895532893535
Sn 6.4295284845371725 15.089399083104068 10.983448341532151
Sn 14.037648296043088 13.842848978012752 10.700335308252084
Sn 6.346712460823825 12.294296016616602 12.69887718573171
Sn 15.049954518582881 11.722355820423385 12.974087034248383
Sn 10.846037464360894 10.423887331072725 12.494017038649286
Sn 11.020948030073498 13.69296761908636 11.803003136001742
Sn 9.158397415936868 9.532080688209366 9.71435907524014
Sn 8.387661607441396 14.627045621936691 13.252253848869938
Sn 10.334908605671568 7.298247853015262 13.228630073445261
Sn 8.185576196062032 9.62741851862771 13.87117703394813
Sn 13.20473380284329 8.8150044870916 13.323074604330413
Sn 13.221691754819352 14.035031655482117 13.754828789123968
Sn 12.895439840898685 11.364601101209228 15.170971960963719
Sn 9.893332810588571 12.089293920710904 14.851395553495845
Sn 10.742071845067441 9.089435669030212 15.61492518872483
