49
Energy = -173.09548395 eV
Sn 16.508226501394496 15.384066246888553 9.077609672030704
Sn 17.359934557885495 13.364566591414667 11.241367097422586
Sn 15.041516262727658 15.297944045497738 11.906513913807585
Sn 15.771648377682679 12.318617995021686 13.813150281224535
Sn 14.233956272048447 14.773512973339944 15.036316051656076
Sn 14.440095483189197 12.459116233275711 17.53118927027204
Sn 11.912632752570012 14.412588826180658 17.095154071830493
Sn 12.527416717382252 14.226676469146444 10.682700171410472
Sn 12.167584577463415 12.523459241269899 19.45757972864964
Sn 17.149306974769214 9.814020845388846 12.685634641607226
Sn 17.727182976764173 10.663308867793871 9.804046259485208
Sn 15.510546272002609 12.483657524977682 8.618711408823952
Sn 11.568556562311707 14.886483768957238 13.538895770044572
Sn 14.649333543495958 11.266179588423915 11.212292877521
Sn 15.024314236359636 9.9515194788593 15.812154411901448
Sn 11.257028141897035 17.170738958421417 11.372603145264819
Sn 9.220970055435151 14.366902402790062 15.583465069793792
Sn 12.72750360876293 11.79502448918774 14.88647605715469
Sn 12.518305387486388 9.847834834326978 17.68199697537869
Sn 9.114518402071273 16.826243544138375 13.566118873843816
Sn 13.385428557073402 9.4404996125841 8.131921583216664
Sn 13.656015637788322 14.898620576639923 7.863753519191888
Sn 13.969771187878116 17.24362833752959 9.94992228197209
Sn 10.120328230636424 11.845864113225758 17.286553921921495
Sn 12.792526519527073 12.009054347563579 6.653936702051249
Sn 15.091386531212535 7.750094482134643 13.270586996962212
Sn 12.681224687447722 7.438021613713289 15.361488094329163
Sn 10.666781847803012 15.753862131523574 8.717814022984866
Sn 10.350638839449003 9.565405231077085 15.181432164909161
Sn 15.59967870619628 8.507574466488306 10.128866956716251
Sn 12.468844399027386 9.325892971875243 12.673276915399871
Sn 7.753786340401392 11.791016580493192 14.769624666509209
Sn 10.169044888585429 12.092471582480337 13.008479663561177
Sn 11.421177590813489 11.342302754685974 9.475685755781344
Sn 6.967522486274629 14.45143287049552 13.037640398304145
Sn 8.93932734622402 13.48772648195781 10.379789806497994
Sn 10.759641738105497 9.40666690313446 6.564964739501634
Sn 8.07348811014928 16.492514118182523 10.701524313606177
Sn 9.726450297918314 12.328782922985704 7.0117478239891105
Sn 14.041542194669526 5.030183757002648 13.488668366988264
Sn 7.812030757841724 14.769823456199866 7.690731023511249
Sn 13.636652033207602 6.2007937713930525 10.750987414931165
Sn 11.315034198120973 6.45940895348355 12.82454487785915
Sn 9.39903250669818 9.261593838353194 11.895220094706316
Sn 11.224166071328126 7.919437945705643 9.705540920450042
Sn 6.9142491371357755 11.470639276216689 11.683799641342588
Sn 5.780967777768236 14.450665629010874 10.279484206720564
Sn 8.738418024531803 9.83353481388339 8.749923747801743
Sn 6.658347408440242 12.070785322332595 8.578836516597796
