48
Energy = -169.55274555 eV
Sn 8.183726929390943 11.494391298289383 4.920385244354062
Sn 13.142336422235084 10.186610257693546 5.7944685964295335
Sn 6.804512158363166 8.980913812875725 6.024112732216021
Sn 10.516965000253219 8.584438080817698 6.233398724953709
Sn 13.12900527174931 6.956323315400977 5.599977301497472
Sn 6.8884403543446275 14.135122371810288 5.965867882342053
Sn 5.219053305705232 11.707021454331842 6.28024998108772
Sn 12.209534126730855 12.408154276116933 7.947441994911546
Sn 15.435098817354124 8.443803262131413 6.983630647281167
Sn 10.058497031972754 13.679890387715716 6.243764007512545
Sn 9.384852794645548 10.944248100339562 7.815016528087789
Sn 11.119895890327877 6.077330516223753 7.9352528234718385
Sn 7.089087329913985 9.14210520983155 9.178603051900279
Sn 12.760556337468788 8.669715282399762 8.465148869443688
Sn 3.9575243282663393 9.182834330693726 7.444235671846459
Sn 5.732262046621416 6.70546405567642 7.684211317958479
Sn 14.164974709931167 5.940909790416878 8.333206761577475
Sn 15.41951953564862 8.186564267138852 10.27945650143301
Sn 8.569391396013065 15.570041692946644 8.198675715319304
Sn 13.34326982309024 13.002311254128795 10.790128160875998
Sn 7.144142409106175 12.773799917054781 8.726913335130185
Sn 11.136807448150675 10.440788474925919 10.385591326190498
Sn 12.044743427516371 15.46058584300857 9.196085399569924
Sn 9.926828264810572 13.465302778937174 10.196215051651967
Sn 4.617291954148862 11.010872326780385 9.830588045456189
Sn 9.65944043220935 7.543755533216673 10.324457141586171
Sn 9.533084019501453 16.40395406200328 11.038958286592985
Sn 4.496215888854479 7.995685165874074 10.625642739764134
Sn 13.27411282038243 7.215055592162299 12.328653902781175
Sn 6.9491450091647815 6.049999860515118 10.390906014267157
Sn 8.310769436974681 10.827855475842245 11.827170873315461
Sn 11.920788661827753 15.105626117593799 12.411039980310708
Sn 16.15584965204388 7.559390045764179 13.654618257466472
Sn 5.217826628389032 10.388298372760513 12.915877166744078
Sn 17.282588027177248 10.082199603504181 12.294540076838253
Sn 14.193115413830014 9.996636209173724 12.63111922746824
Sn 8.876377229554349 14.089159931213493 13.042922875152602
Sn 6.272499931401492 13.08080860254953 11.668007483873573
Sn 10.423106412886035 8.370572260614027 13.226655761315847
Sn 6.370409576667951 7.475932459207773 13.252592837595817
Sn 11.1967573372883 12.025653288040079 13.089189313210449
Sn 8.969564018198165 5.6081501418313655 12.622716545768949
Sn 7.85266882429242 9.954918050147507 14.639442902747145
Sn 16.34338422308239 10.224804665257693 15.274979382360522
Sn 15.600992176797309 12.550714924563403 13.19940311505309
Sn 13.737661957217632 8.413330101764167 15.337758556859134
Sn 13.515849016719208 11.528797047072263 15.225265090760649
Sn 8.603933254287082 7.113617194149182 15.27991385817399
