48
Energy = -169.69683495 eV
Sn 9.712933648923547 11.204459582540967 4.960928855426449
Sn 8.801854078539682 8.174411767998906 5.0502972389145935
Sn 6.876257670107287 10.481657408219133 5.79571176845189
Sn 8.568532309863729 12.567089019412872 7.539607635776791
Sn 13.995924675932562 12.60884065207 7.286960182593415
Sn 11.772797328630974 8.955055366237541 5.570162027970448
Sn 14.01515342894714 15.4022294066979 8.591692561065377
Sn 10.99999671799688 4.746136372893539 8.3074940902155
Sn 11.311372156248966 11.213742184498267 7.695936173946283
Sn 16.1981459576155 10.820458298947838 8.378542942594345
Sn 11.252772768197158 16.734899435894825 8.613476351601276
Sn 8.259268516361916 5.581028052672564 9.3900688133409
Sn 6.996282046418293 7.92875662392562 7.593584629978792
Sn 8.904182556952753 15.09732465190462 9.804164670879546
Sn 13.549724482422748 17.80158981798465 10.495697543044498
Sn 10.057488801999895 7.750050689252469 7.894730042623759
Sn 13.479963999047182 5.088074071323277 10.32965451447358
Sn 15.597500794936119 13.187228611414518 10.09371225763791
Sn 13.535927377992854 9.657047311264789 9.257999460706959
Sn 11.715032051433154 13.688235771911351 9.703533003059265
Sn 6.866360914591931 10.598981858950083 9.000097430008971
Sn 13.035355932899838 7.031600772832342 7.794523055181136
Sn 10.525876450690772 4.742528575696623 11.444293303410277
Sn 13.374181035757397 15.149956786063637 11.883187096053092
Sn 8.831360637937541 7.4620631205268975 11.711948727497743
Sn 4.6599105329817565 11.045440006991871 10.985851259269591
Sn 9.663460636937728 9.97689502525002 9.91570999608883
Sn 11.953115912283323 7.653680747111888 11.311097115416647
Sn 14.958827972338089 7.204362802347546 12.099732355881482
Sn 15.701499316380769 10.227984977298146 11.439439774894476
Sn 10.789010200005752 17.1402958759771 11.619230048003441
Sn 12.705688363093076 11.454690071315238 11.603755006340846
Sn 9.206881872521523 12.51810870742454 11.65727111550558
Sn 6.329589772656467 13.40290705719859 11.847642875812058
Sn 6.9744711252494165 10.02386882433213 12.51703828404087
Sn 13.071136842184073 8.212127881373293 14.184008790453658
Sn 15.122137009619 12.873105051086231 13.071740722860262
Sn 10.437050927906103 6.652947991714821 14.267106879966537
Sn 8.338348742185662 15.870019151342698 12.83135441375894
Sn 12.951594660816978 5.010107994685582 13.390480109661878
Sn 10.140098106888686 10.052975253353292 13.43569446528031
Sn 5.075438685121947 11.87620806481739 14.28582007476191
Sn 10.928624375347507 14.29837024277993 13.381759079039727
Sn 7.70748438759567 13.39612971404408 14.70804030135215
Sn 12.889637997795436 11.24023876448062 14.656740573438674
Sn 7.330767759591919 10.318685459876509 15.488199288860727
Sn 9.78227994752669 9.026923570786144 16.376751320346145
Sn 10.236427735462206 12.038209776212305 15.925260995447653
