41
Energy = -144.9673787 eV
Sn 12.94469408325499 10.9089609386439 4.2866410281951595
Sn 11.657378617201724 8.067318314668132 5.077808161330355
Sn 7.051465762626114 9.400766684288572 4.746065493353071
Sn 5.071424703098077 11.215457005674127 6.101151261224847
Sn 9.91372209729183 10.574066796416258 5.700167082431767
Sn 14.68434822216745 9.035472835050577 6.159632578891362
Sn 9.881775491798933 5.328507896815497 6.949566363818538
Sn 4.494137805475648 8.227002359746484 6.3973129695645765
Sn 12.248265172560048 13.488630379893987 5.954149871298143
Sn 15.066429746773824 12.204483189970569 6.1927376876158355
Sn 12.399691352533894 10.675701862192936 7.476243650650404
Sn 10.256146951136916 8.186747316124265 7.9335557593464605
Sn 6.610479385662131 12.489430518712046 8.456616205459985
Sn 7.425359915629173 9.63196480684771 7.8561845261088985
Sn 12.895696062801887 6.54548493042901 7.449592828307316
Sn 7.350105610425937 6.89382771683161 6.307555371921455
Sn 4.460872859142256 10.13520864595056 9.014524442662312
Sn 9.88320104031816 12.782821726545238 7.919655305215732
Sn 14.967668154765125 10.566948170504801 8.908154345965032
Sn 11.338777441884389 5.215297627803207 9.971835811363295
Sn 8.486008862524576 13.723816470513016 11.07233161389571
Sn 13.502124258896496 13.290992236691677 8.764834626531297
Sn 5.845532994699389 7.293740199957968 9.130142496730167
Sn 8.300580747917245 10.52178302691925 10.95879993440976
Sn 8.153464061189654 5.043650601256386 9.579311288377253
Sn 9.210616615165053 7.566202520157337 10.92033663661591
Sn 12.539282877217058 8.293115100075932 9.977045140003582
Sn 11.965801896101077 6.695474457866818 12.692745271523926
Sn 5.679607530298636 12.189597379325482 11.410875918138569
Sn 5.707362642105918 9.136226783306363 12.006143011190604
Sn 11.04446778290939 11.857982561236529 10.595340731153684
Sn 9.542084822616983 4.700156195368054 12.502885475158742
Sn 10.908179579717633 13.912797437804002 13.00737711067244
Sn 8.055604262078708 13.526174012715991 14.156454526124017
Sn 7.8480529774270185 10.546481288384845 14.080315908385773
Sn 10.440918600521213 9.446958815735872 13.184799239663086
Sn 6.824538665986755 6.3525857620236685 12.719297094294367
Sn 12.661807544046438 11.388133052374167 13.121325768276456
Sn 10.435669774520713 11.933850500827834 15.268054418133643
Sn 6.754660127911433 8.038738251124757 15.243871170767784
Sn 9.403792900486895 6.879243624109732 14.660361876114976
