43
Energy = -151.50791844 eV
Sn 13.11365601572054 18.00277581913136 12.789392475337088
Sn 9.77276204313469 15.856429560491645 10.596795591334361
Sn 14.680675465965033 16.23508125231894 14.581563121343638
Sn 11.528735822392797 16.718639093765916 15.10443950511192
Sn 14.275643815443768 16.269075110564422 10.585685931111055
Sn 7.2017775354788025 16.052245909026226 9.157212685624645
Sn 12.260376533501976 14.719768020988813 8.993012714526445
Sn 9.10435297185537 14.325495741339068 7.5419294429964285
Sn 16.595229067676808 14.34548937103425 10.591119751902152
Sn 9.528297764076262 14.59920132022861 13.95894888451961
Sn 15.159499876214554 13.216578109901826 8.09522542589011
Sn 13.508639861445916 15.401124625764687 17.178762512309614
Sn 12.191927301853033 15.0134038547815 12.545110707848897
Sn 6.9556493384616385 14.320592542209049 11.724495534336013
Sn 14.423064968628942 12.692746385656825 16.468668328704695
Sn 9.46872724092618 12.886034309877747 10.40615673905278
Sn 14.841445318808494 13.73128659009146 12.94606916400463
Sn 12.480765345194415 12.735484310186989 6.7467642541365915
Sn 6.06261977219486 13.28002320017039 8.807945269578807
Sn 11.34408607765042 13.354826001714105 16.013778587994754
Sn 12.677892596512342 11.84136091149228 9.924988276959386
Sn 9.597753103416174 11.504959546093135 13.253510230517918
Sn 12.104333660248951 11.420948086790457 18.150932151205428
Sn 12.560899184837558 11.49882864714073 13.879724195466999
Sn 15.681488435782839 11.347367257531392 10.537646747682292
Sn 8.3148447139847 11.395959888736082 8.024658828118895
Sn 9.917789481244142 9.551805219125814 10.531996553516557
Sn 6.930322915226485 11.336259978673974 11.020274382096531
Sn 15.553307629830334 10.990587281808628 14.138985552986144
Sn 14.343679656435198 10.253346738373867 7.786983225663848
Sn 10.598632126702547 9.857875632495247 15.84223099264455
Sn 13.631244377834522 9.626297748538573 16.17559117238918
Sn 9.10767022709949 8.264323294659775 13.352062798976801
Sn 11.189875961537657 10.12866275638121 7.672239804017141
Sn 12.696990203939556 8.928987721919087 12.003548497285813
Sn 8.264368155849038 6.924098230015491 10.650092921225577
Sn 15.436159273428974 8.18368448291734 10.687554752564461
Sn 14.891617066671232 7.608180034152524 13.682403683240965
Sn 11.966110024041289 7.109145088816343 14.488011379628757
Sn 12.93780408165604 7.248221530545575 9.379181468117846
Sn 10.889830881969342 6.180855677244006 11.68282065385125
Sn 10.165067795467921 7.267581097063968 8.283127343267521
Sn 13.747384617641249 5.458474982331001 11.737132802383792
