44
Energy = -155.62442645 eV
Sn 8.427155716123968 9.360066671908005 6.059874760771824
Sn 7.11562078770234 6.5814108021059505 6.665699772998397
Sn 10.188598229469324 6.747399925926005 6.3451204228547775
Sn 11.033302722593879 9.54243448119592 7.652684751546606
Sn 5.755585082912866 9.38183814454572 7.637301007892158
Sn 10.293992062929002 12.419295143601426 6.554130680734651
Sn 12.60658066216166 13.557645313143656 8.33542717959611
Sn 7.284117273640768 12.338948663924892 7.175626205801377
Sn 14.038578871860151 10.507586729905396 8.510857540956417
Sn 8.341582459769151 9.659337952967213 9.195687125188758
Sn 11.618243455711891 6.997229460669767 9.252766500758167
Sn 12.103411159426674 16.26331762896096 9.734553691485948
Sn 9.820109161169068 15.345791434159164 7.862573353197724
Sn 6.506540867213026 7.145372150918071 9.659972921766977
Sn 15.861709248392053 12.912337906694276 9.42027468013299
Sn 8.937779308136074 5.4667648803866395 8.857809364941618
Sn 7.0896306626302925 14.757207786523086 9.321949186526334
Sn 11.803189829831515 10.126458771082765 10.718899532215422
Sn 6.208534842375169 11.849222566297525 10.109605426573589
Sn 12.35771844678959 13.541159943514861 11.415610414338687
Sn 16.9178870409585 9.91305031487423 9.77204555563892
Sn 9.509700345313103 12.637685744333425 9.595839318282273
Sn 17.837059096214954 12.123228350623398 11.762269599971518
Sn 14.667851611399323 11.207076851989374 11.671087918059303
Sn 9.216281532522306 7.567268310122758 11.202304905656456
Sn 16.68373068625218 9.166249094473182 12.798105898652269
Sn 15.513028702262163 14.217157230640517 12.287325315206916
Sn 9.326852111623136 15.7028554516763 11.035109849415583
Sn 14.355252820591627 8.082460406749723 10.676007355426705
Sn 9.656510639040288 11.979216640624504 12.723486239227437
Sn 11.559168339708643 15.973137917064946 12.960189492836877
Sn 7.368956473760366 10.069729340116487 12.644029735037774
Sn 6.82202180940857 13.310775306381617 12.918540493015682
Sn 12.475498064341235 10.987903707935997 14.066519033378166
Sn 16.226177033170636 11.855633741952904 14.450305114922585
Sn 13.499753189071704 13.773112268494009 14.671497761890581
Sn 12.145471918662922 8.065447394792548 13.057992880858706
Sn 9.170825328084613 14.429258307858586 14.407916334954235
Sn 14.37174970991751 8.854121900240948 15.183569951432306
Sn 9.671463895773513 9.283011711313595 14.802544417220593
Sn 7.469958487926921 11.474663114822688 15.37267474923942
Sn 10.427765486400398 12.161341090438587 16.07445299747787
Sn 14.252764747701065 11.472154280278613 16.81633650594048
Sn 11.865432056886966 9.595777141600445 16.966566033808753
