42
Energy = -147.88838146 eV
Sn 10.062842856619053 11.829493149354622 4.6684785099050865
Sn 13.113395920201578 11.149211911412525 4.985528845021487
Sn 8.55637894090561 9.122355631356527 5.26528495479795
Sn 12.482086061853373 13.986619024578316 5.851502059948494
Sn 6.77489313161968 11.3394441912665 6.72895093637578
Sn 13.35337493614528 9.084182175035611 7.323886275566967
Sn 9.494333949930153 14.145121198030868 6.611079072619665
Sn 11.053832310862537 11.223910942320389 7.463313841668446
Sn 11.183455215784727 7.242027028866966 6.338826879514013
Sn 14.079116404817054 12.176597111392876 7.824203759431422
Sn 6.0405479991145175 8.21564331267817 6.831474710452007
Sn 9.26434201121168 5.627391818805323 8.188662818467856
Sn 8.906798577335136 8.814988609943097 8.178528018548967
Sn 12.40698961603703 5.054428295563548 8.150503930480191
Sn 4.652964545145405 10.063518092736444 8.786586137735288
Sn 5.150706273557768 13.054758835068494 8.718259297200763
Sn 11.946542719207686 14.120749124999376 8.947718803343584
Sn 8.388351488778452 12.462345640278931 9.035607513162226
Sn 9.199246808918536 15.619219833766506 9.146367018624025
Sn 10.91667935245072 11.551554906617287 10.69289981234648
Sn 14.84801336500066 8.768857798806314 9.922064610841602
Sn 10.713484530405589 4.831542495981315 10.76578499357894
Sn 5.129215138562465 8.60516888608802 11.650292553234493
Sn 13.736519659808112 5.8207125543754525 10.749214446230848
Sn 6.794845906035831 6.9763870161342405 9.518298611169536
Sn 8.09053840183047 9.67719073378939 10.984050910406255
Sn 11.52634277069156 7.843414467872959 9.675050260050812
Sn 8.598176910649302 6.96984452300596 12.232357838108602
Sn 10.34166439224541 14.173485318706415 12.00360011561602
Sn 7.235250926104289 14.216099523689486 11.141738336704956
Sn 13.867809121997297 11.347916355312863 11.236201690499549
Sn 7.123143349630651 9.167511189194618 13.987574690887405
Sn 11.733844088848388 6.165146433801197 13.379243719668027
Sn 5.668943557097825 11.594876257724241 11.389052064029407
Sn 13.977202040637836 8.486526120155236 12.833436690392231
Sn 11.021616905983146 13.415168558674052 14.885750843116522
Sn 10.970073156298735 9.24269652616463 12.890132688125032
Sn 8.782549845102691 11.822787420800037 13.235348500576235
Sn 9.577061257456808 7.59907514169119 15.242032801011533
Sn 13.181943151840366 11.32928153929521 14.245412905727253
Sn 12.711542146798049 8.530852588241954 15.619518162807172
Sn 10.40081835633704 10.589375816282988 15.733657471866248
