43
Energy = -151.38264154 eV
Sn 14.274870859730333 16.80234478181759 9.874936715369659
Sn 15.662677793905665 14.474303085990348 11.303070178933801
Sn 15.658579752052939 11.598581044782376 9.28851247125812
Sn 16.77346186349042 11.369578384737729 12.181237134174761
Sn 15.18797776974794 13.471676084456263 14.106178255002922
Sn 13.896073278000317 16.423361237588676 13.060970838921655
Sn 12.10673883547168 18.348910942854122 11.181936635538765
Sn 16.791489318704375 8.3707847228931 11.763568056241674
Sn 13.385073701403025 13.803289046563187 9.168655176776847
Sn 13.933167452901584 10.19263013087444 11.271263043543497
Sn 15.555707429689567 8.493452164692645 9.062388675135184
Sn 11.263490680370795 16.21065899658719 9.07467605900396
Sn 11.854130666337248 12.56542071893143 6.699612108596631
Sn 12.754997025844016 13.310344148033506 12.136243389883052
Sn 13.225796458712615 11.091717255116311 16.497256910934126
Sn 15.005822781541665 9.991973719400846 14.29658887199174
Sn 12.204469817990029 9.675354604295775 7.114767155087706
Sn 10.906694721462763 15.717046188125456 12.518273549383153
Sn 12.403963808608303 13.815750078349138 15.351590675954183
Sn 9.042562142279822 17.56198696220629 10.86118102543199
Sn 15.661434415788685 7.105055529470945 14.3274546855691
Sn 11.62878910943522 10.360531139655828 13.831030105756614
Sn 7.76410841110584 15.548534116762788 12.764183787633558
Sn 13.91245260543017 7.171800996859739 11.450678022972012
Sn 11.207553206526493 8.76264545099142 16.839869968712826
Sn 12.948176037979406 7.02487884022952 8.268204273181569
Sn 8.858384484276653 14.478369516755809 9.995734471180661
Sn 9.482744986644855 12.52963914678078 12.42660917994409
Sn 10.855888562051938 11.698688586522374 9.439695404921554
Sn 12.715499407553214 7.475224200306576 14.557893024695135
Sn 10.10403751649337 11.56945625796579 16.323213712803717
Sn 11.15960914078198 8.704099677746418 10.055519922849175
Sn 9.395353646486406 10.810063812800372 6.566922664723763
Sn 9.37428990154591 14.460908493894586 15.145101048218205
Sn 8.61827296228413 9.232836985136071 14.968102791789484
Sn 9.735035423167824 7.738472822825154 7.41283512288884
Sn 10.299418916867602 7.7039203660201325 12.798374271075241
Sn 6.372176617404266 12.980342496606815 11.550722612456708
Sn 7.774679577866362 11.293311343259793 9.441439253934627
Sn 7.181762387654189 9.96849766824311 12.261823009442917
Sn 7.321612220250941 12.169594000789335 14.619067604424936
Sn 8.136162273972126 8.08418336722994 10.045578944237908
Sn 6.961926298772224 9.242909070896474 7.431597835803907
