45
Energy = -158.9514071 eV
Sn 17.20156090172998 11.35815581255541 10.984883677825124
Sn 17.4998469213087 8.592239143787658 12.324120119087215
Sn 14.960116869335758 7.939167641262627 14.201073535796194
Sn 15.348083093965293 14.463591809929923 8.630313547746715
Sn 16.63870263276648 12.66301515413731 13.842416155350987
Sn 14.79854967691844 13.930052805324467 11.806148174214057
Sn 15.158077875492596 6.673709409962578 11.306294362941797
Sn 15.110567383984149 16.76611384735673 10.856248611213518
Sn 16.79344357763894 8.612370637559717 9.355705905927161
Sn 14.136964732725833 14.098513936366885 15.014986296092221
Sn 13.116481622287768 16.306196418080287 13.140204989885959
Sn 15.612405024228556 11.285560320287422 8.376637797167263
Sn 12.77366502546741 16.178403370921114 8.993690444607878
Sn 14.53392480858329 10.841849083066624 15.02894397910136
Sn 12.71388892956345 12.964586119406542 9.774457388905319
Sn 14.606352267177774 9.963088096204206 11.785661476367425
Sn 12.413762855446572 6.781175933790751 13.107598911136847
Sn 12.376458532072169 12.245457903910566 16.582691755278535
Sn 12.322304156580293 12.080420156205873 13.170396724729464
Sn 12.917262940808369 14.123319017373642 6.624010620862403
Sn 11.070751099273721 15.230138729079231 11.27864570386376
Sn 13.68066659513214 8.536986229174541 9.228252482397053
Sn 12.604667637534357 11.084131481326773 7.485484059031072
Sn 10.679744771330968 16.299708373709496 6.903417718061249
Sn 8.801234306848928 15.878122048721236 9.32401933539493
Sn 11.158770749712662 9.177810645824936 11.118117456634822
Sn 12.029607381190287 6.148329715046445 10.213131169001102
Sn 11.162968419855579 9.332010354521117 14.229758513220464
Sn 9.518004872844555 12.407119456386802 10.470109263769261
Sn 10.678263083286819 14.21413976321121 14.543792155156474
Sn 8.832116329936534 7.597288203246469 12.701440386291093
Sn 10.020504582705458 9.667842130817347 8.294688177132976
Sn 7.551198504154732 11.361984579412386 8.110740012706797
Sn 9.87956987244407 13.461914171833536 7.592493918978051
Sn 8.640111921989094 11.376575772228893 13.449564687115975
Sn 8.185607915913039 14.717683107477432 12.371827748641968
Sn 9.256607973342357 11.673631798956203 16.587425571748046
Sn 7.4386790357832 9.47293424878111 10.512809521833406
Sn 8.292619407592937 8.876928293512249 15.606434687171843
Sn 9.19395879381521 7.097764617900642 9.568920033247736
Sn 6.680694990104155 13.644774097724783 9.946022139503238
Sn 7.503216010446038 13.900538703610906 15.33228916560424
Sn 6.152358752936844 9.349512045225106 13.299781254961408
Sn 5.734612345282418 12.513330906731298 13.000655619797508
Sn 6.218262602735958 11.180064649994124 15.836745224161856
