43
Energy = -152.42464759 eV
Sn 17.16770025983636 14.389685556565748 11.519625426650464
Sn 17.198962045443274 11.666009071158092 13.813965242562178
Sn 16.81740290168696 16.989769447138652 13.036351804590648
Sn 16.393219439977 14.48325056462718 14.683839080581043
Sn 16.280037209597474 8.344996456386431 12.940245764985756
Sn 16.42444706638806 11.34742878630266 10.843678719688866
Sn 15.925676996531848 13.666894103861312 8.714796565094531
Sn 15.315730230489365 16.57250021153862 9.937497410955377
Sn 15.266511991561234 8.331630264567778 10.017586306288855
Sn 14.412335865687554 12.758739119877948 12.565815957112381
Sn 14.139074670345199 15.851901747552112 12.701549095808332
Sn 14.518678162399846 10.55614066990827 14.875839954877112
Sn 13.59149229879482 14.686396675791917 15.86252042086236
Sn 13.934744980470047 7.375239267363331 14.79521960914509
Sn 13.68026559286211 11.327806504629978 8.859403669146378
Sn 13.411279231044514 9.408821380621049 12.232204028781549
Sn 13.634780971378305 16.098817085801834 7.202832362175909
Sn 11.355832751073772 11.869254669706649 10.674552012884185
Sn 12.712918336223137 13.314666827333761 6.550288096799143
Sn 13.09693387703391 14.44098792619691 9.778403355702867
Sn 12.229764919016642 7.678718263816297 10.07824678033791
Sn 14.246277548316883 6.094965216093178 11.976367625674921
Sn 9.652740295541191 13.306388864531504 6.191894390472943
Sn 10.784217434275556 15.527627531775499 7.991106308579804
Sn 12.598481903096639 12.239253821896996 17.249652529953085
Sn 11.506806682604275 16.226724630322497 14.276169962630574
Sn 11.560593590014587 13.01238462427418 14.275369073129903
Sn 11.534196843863173 9.602242442662478 15.241879522185743
Sn 10.315676208576107 14.748373897673646 11.002352198271337
Sn 11.436518661710851 7.072201154137912 12.999503888297166
Sn 8.963264595605697 9.651541141357168 9.824166635809831
Sn 9.989324999111677 10.12228211659746 12.748397746274994
Sn 10.897284751875329 10.8989207286732 7.536393240100992
Sn 10.956940303850924 15.10426130246902 17.361943755764127
Sn 8.840846745870092 12.865703957240008 9.082228214346525
Sn 9.643139558650855 12.40004135715104 16.725862892532213
Sn 8.862482678682612 14.918414052469881 15.02035806512357
Sn 7.999832955231723 9.949034580118184 15.121089342849094
Sn 8.221767730126267 12.587340887636776 13.010478769694426
Sn 7.17332338466804 8.759750038904283 12.197358255029073
Sn 6.467434491738395 11.398310238823267 10.588159662931911
Sn 6.697213296125193 12.69616041472224 15.742382064911974
Sn 5.547212968245777 11.01363015716776 13.466137074408474
