40
Energy = -140.79547351 eV
Sn 12.498308859861847 8.682394432032075 7.697041559640608
Sn 10.325813232564792 14.786583302876876 7.216288153494798
Sn 11.698613747689018 12.031866345216045 8.141083102347832
Sn 11.55813373573928 5.624723124331774 7.763454820037689
Sn 9.54499382481289 8.110214308906738 7.244486790211864
Sn 8.783313194110585 12.136388138177319 6.9392509636863045
Sn 14.529087313763483 6.597039929175928 7.19780283739236
Sn 16.212841615092568 8.637360851483216 9.064790847416676
Sn 12.520205490810937 14.998520505781409 9.362335374119242
Sn 9.359688068546252 16.514374448411402 9.710046515753428
Sn 7.192299479589711 8.11601176836261 9.61198685855302
Sn 15.409493799157477 11.554116373701179 8.529986139559915
Sn 13.562984387006992 10.029962392694888 10.345257327690833
Sn 7.254969609992498 14.689737855375055 7.951524473942446
Sn 10.0956558019993 13.525665253027913 10.468489709303686
Sn 8.685237605818976 5.547665317147436 8.802381899464375
Sn 10.8923128086057 7.565479667467733 10.189577805714809
Sn 6.522416800180649 11.788414839488459 9.105526280225336
Sn 13.794670024798197 6.553327059024469 10.059002784425761
Sn 9.316096229615102 10.440940542645528 9.449191592040851
Sn 7.227639724676972 14.264414190708658 10.943650788757047
Sn 17.14129812005221 10.873243795066834 11.007747557723446
Sn 8.674692712780477 6.477162872297976 11.837767490767861
Sn 6.019035618282189 11.499685307159623 12.310021972234194
Sn 15.630605143322526 8.123990712298035 12.090768137399449
Sn 8.900754057896359 15.965443624247179 12.857680005574862
Sn 6.638570238094553 8.605046331462104 12.710297538358079
Sn 12.080195071754995 11.951821767021732 12.381310946443335
Sn 8.994188424485381 10.736906133928318 12.565362646791705
Sn 14.678657544919693 13.12913141316464 11.080838528306662
Sn 12.587967717181026 8.989163749760293 13.093641971384827
Sn 11.863669810108222 15.770802894201921 12.148774091763862
Sn 7.645307171366976 13.052047944433129 14.343423675816005
Sn 15.302092574440135 10.926754678371273 13.426148509257837
Sn 10.772906695040412 13.950718842459317 14.499117211496015
Sn 9.472633334599012 8.362123327131938 14.338293305429211
Sn 6.9736034069212245 9.984997272843415 15.401888276378063
Sn 12.939904915346135 11.22084910019947 15.324055625910699
Sn 13.913877335175027 13.949205609132257 14.029418911542733
Sn 9.734942850046162 11.185382075029958 15.709965069888417
