49
Energy = -173.50929081 eV
Sn 13.24147420949578 15.892333077031724 16.712686207688037
Sn 12.153274298210228 17.001860092606634 13.898328196379982
Sn 9.012082474585602 14.832372813140069 11.239055091967584
Sn 11.14856097963559 16.868575935303436 10.957189866485791
Sn 14.262347121839984 13.805045369499606 18.726172834110404
Sn 11.192103443246761 13.892408049670319 18.273794024895818
Sn 12.109148652318382 17.24937954376775 7.948204724582216
Sn 10.297539596694346 15.183027462712701 15.55808157320286
Sn 12.923706554735103 12.937239306370511 15.681211001768657
Sn 14.119454343240536 15.960242008670688 10.254190812922722
Sn 12.575418012142604 11.08421640253717 18.133942996778988
Sn 15.705321761357927 14.229133134589777 15.859780532652879
Sn 7.692979161159157 13.34360214079416 16.00447464340575
Sn 14.631149873081124 15.382368490247284 13.175458647792667
Sn 8.608723490557662 14.348019507693726 8.250785283351895
Sn 11.843512814293602 14.161604484914633 12.543128659117922
Sn 11.75808022355054 14.119083605146217 8.980106309266732
Sn 6.91891363194796 12.633162167445887 13.148814096463436
Sn 15.45700744858569 11.424177765516953 17.040052941227685
Sn 15.307815163104351 17.142494170522266 7.886005162690555
Sn 10.874470517329698 14.969919072390782 6.218228317332834
Sn 9.338860231893866 11.267990185160466 17.516273638978625
Sn 13.83026297860259 15.590848600306074 5.859559494865291
Sn 9.873940563443101 12.320087496136225 14.077437626779123
Sn 8.294703072620198 11.593101996829427 7.180332329112103
Sn 7.335639533900292 10.331381516675386 15.336941165388275
Sn 16.14239182362202 12.203728600928596 12.983639209489429
Sn 9.572015242182651 11.880431431622137 10.03930676229911
Sn 15.366285966863636 13.93577685109089 8.08947542688241
Sn 11.154613525935932 10.671068299777074 7.599074562623442
Sn 8.112213154547478 10.109411707797156 12.109928568256455
Sn 13.703117030758177 8.71890397143108 16.038711912184073
Sn 13.119824445704444 12.638864467582982 6.2485502781992395
Sn 14.045819239631719 12.762493761212493 10.680602934350075
Sn 16.29165027733345 9.647829020712406 14.672793774160468
Sn 13.487684300177364 10.601957042656723 13.423202294635631
Sn 12.08516786821119 10.129911765581987 10.69775610962116
Sn 10.84707502685626 9.755288272069198 15.283815629323605
Sn 7.258079009678377 9.665641859633443 9.279979894450893
Sn 8.969505636726684 7.9187295470166505 13.900989994011923
Sn 15.740782918509598 9.627647168792485 11.343723039724868
Sn 13.87883529481771 7.518556155551984 13.17995280773406
Sn 14.273200055660029 10.023210730778478 8.530750791826243
Sn 12.300292872730823 7.939775781561135 7.0892995675877595
Sn 13.588923898580033 7.2340189615795465 9.866428805786027
Sn 9.758837158998105 8.199690128519519 9.01639986457512
Sn 11.103427305281214 7.466311631291132 11.695518368970218
Sn 16.091388769531722 6.693292686200491 11.343814891230503
Sn 11.1728429803285 5.664249715173195 8.996512287110656
