41
Energy = -144.62158987 eV
Sn 7.535433217817682 10.111909733127598 14.400127364174965
Sn 7.601978312272433 13.094589255612425 14.699023647079281
Sn 8.213271157602742 15.225861606547712 12.526431999756559
Sn 5.995032770831539 12.097367890462916 12.21543156482145
Sn 10.08162951479279 10.238224471631032 16.398431544403582
Sn 10.270080196641505 13.234709905452549 16.488017555952638
Sn 6.231616927580507 9.033934777748682 11.81955928958233
Sn 12.874178351095754 9.169634321059904 17.284986031709867
Sn 10.246487972388872 16.944800893362746 10.347937727838955
Sn 10.846020779555381 14.781399646330595 13.893662508260643
Sn 9.348098635697186 8.735387146337874 12.147163941585752
Sn 9.222073826693503 11.978514763389805 12.32156916353794
Sn 13.002548739209933 12.187411292892937 17.22622473535227
Sn 9.209950892779393 13.921835437527138 9.89108126361439
Sn 12.093385822308914 17.71824408544514 12.610440626088671
Sn 7.588963180940261 11.125217088405066 9.797645244410004
Sn 11.740937650072464 8.561079769825449 14.396891609196569
Sn 11.779240401170954 11.720905467409775 14.192477983078723
Sn 13.585960720495162 15.904497937778912 14.706153438469507
Sn 7.865472735306451 8.137291830265362 9.271633729711636
Sn 12.319482271187844 14.622492230844596 11.244538698824028
Sn 14.627490952054671 13.10878964577078 14.721066231374165
Sn 11.73044854617623 15.437725025144758 8.123154098495544
Sn 11.901334110715544 10.247846647871743 11.133757689811963
Sn 14.855830846616183 16.505842021464048 11.9754621499212
Sn 14.475203458026282 10.08004367532851 14.990206210079588
Sn 10.644045703097103 6.959851777828016 10.122580169257022
Sn 11.591527348574333 12.320209015172281 8.912421342064674
Sn 13.194130129625334 17.758556809934824 9.647189673890864
Sn 13.338191714267744 7.653227354896533 11.917577789779871
Sn 10.425755299060288 9.565322798222915 8.32951263026903
Sn 14.914159310875611 11.36071440373828 11.711375138617347
Sn 17.03367110581624 13.331515166629604 12.841988322715155
Sn 14.602212333735856 14.832951589824841 9.198739522782796
Sn 16.098043191612888 8.721508574012422 12.87289182649947
Sn 14.54682736690088 11.478155136001593 8.573741366038233
Sn 13.279332230169192 8.516968100795529 8.955387176458212
Sn 17.28598361931557 15.357623548528988 10.648914968966025
Sn 16.431243364832856 9.272013367271596 9.762431201088972
Sn 17.258691851775364 12.34840255870092 9.677857213293812
Sn 18.200315317909908 10.69055798654934 12.0965350414479
