46
Energy = -162.92665469 eV
Sn 9.364967154761482 11.153768518049098 4.708560884845934
Sn 12.425425634505292 11.687390193125944 4.784745894168618
Sn 11.441015227257921 9.042784515159754 6.0739964257912105
Sn 8.299128107873244 9.035933328481363 6.694244956146845
Sn 14.827597969301507 8.620371466831845 8.119619278389239
Sn 10.406572109319734 13.91013217781755 5.825185768964101
Sn 8.404148392113514 12.081389456205564 7.451357587490449
Sn 13.412859268506672 13.914220121974006 6.854811393395428
Sn 8.403719202423027 14.985578830630315 8.095015159232249
Sn 9.70215473422719 7.388856703205522 8.839563890684568
Sn 13.104249241099682 11.038824667074017 7.749720385522209
Sn 10.40035572835145 10.3892440787389 8.835655521410857
Sn 12.564098989770919 6.5822957599707905 8.077024315927625
Sn 6.098456324214209 10.131659097635756 8.932379514856983
Sn 6.4048922592285535 12.602148950828376 10.666416192514442
Sn 12.58376544228935 8.681634282974453 10.32363322145132
Sn 14.116001313832447 15.75075803042124 10.039644880098837
Sn 9.291585356381317 14.081919631060595 10.817736571018182
Sn 12.143819323331513 13.215307771550629 10.174259605507912
Sn 15.227716745941864 12.880288910555413 10.375531606274283
Sn 12.266427449477908 5.706968342338088 11.065970309443664
Sn 11.43778391219301 15.709063963297798 8.321123587261166
Sn 15.396851997707959 9.864502525613021 10.809600227404301
Sn 8.364109835163278 10.213908504768593 11.229656754912687
Sn 4.66633363272557 9.872793845185306 11.684605130793225
Sn 15.958556206187692 13.454432347820836 13.26892696953139
Sn 6.827194347618194 7.56220580153404 10.431898398646972
Sn 13.44445743807049 11.506064896262261 12.789037687454748
Sn 16.16311577568264 9.417515697592009 13.726278527943053
Sn 13.391724770598962 14.76883876241872 12.961756833235599
Sn 11.35853768686268 16.28934102317639 11.456099668943795
Sn 9.476908826034492 6.609920219290707 12.097890468399505
Sn 14.404270468912518 7.248831498670725 12.572406461938323
Sn 10.400875455343694 12.334935878035697 13.653755796265065
Sn 6.539662668588983 11.45106210526808 13.40720628683225
Sn 10.987216512541844 9.205086969223341 13.047872447754466
Sn 8.748060805359515 14.845719849605485 13.784128178666796
Sn 6.847848967480016 8.43982106487088 13.367371308141683
Sn 14.988739013659718 11.58240866664344 15.52943389438829
Sn 9.228070557198626 7.564225011736102 15.107803465909795
Sn 13.316780014937144 8.79998080889906 15.070157112559968
Sn 11.397892733833721 15.014079599420766 15.112099047955013
Sn 11.97073169779642 6.154798271881949 14.215106041981132
Sn 7.893405147711529 12.615821002881459 15.689718447480645
Sn 12.164811415687627 12.331541354228454 16.307171805236923
Sn 9.913652020686424 10.438173379837455 16.030369970019212
