49
Energy = -173.5633786 eV
Sn 10.126928991793227 10.478844636016735 5.861075846692642
Sn 7.163976478490016 9.525548802163605 7.2595929031532815
Sn 12.683800010508866 12.086421961036583 5.588303405690653
Sn 12.649239352995629 14.118139062983635 7.864689361157758
Sn 9.717064267966055 13.060338693780192 7.518951777893275
Sn 12.80132410298722 9.075023635056489 6.672455765685979
Sn 14.60386155042241 11.504000580184671 7.815643830248421
Sn 6.8759618412459735 12.290750547079071 8.712030889809949
Sn 9.844250770082931 7.747779597219594 7.65071981000881
Sn 15.452904572986512 14.421751457708986 9.212953491088761
Sn 13.885888613143624 16.202869934793977 11.383712507129662
Sn 10.596939608375381 15.273089071733137 11.254153029935138
Sn 6.990226499095879 6.855038890979535 8.871944553428913
Sn 5.56784897802212 9.500370445083103 9.972777569918643
Sn 11.67919011756036 11.18957638242367 8.77053760631251
Sn 15.157768815816482 9.032794273277565 10.952613776276356
Sn 8.755369612296327 9.676317583256365 9.895541791485135
Sn 7.494535014761921 15.25983448804057 11.501879154707188
Sn 13.123166664164348 13.108459898552612 10.93872804897794
Sn 12.389576417875611 8.350098144543093 9.811635027601408
Sn 17.84610408641797 13.191261484477403 13.125192800443223
Sn 6.069158324211322 12.479594547442316 11.727919071032641
Sn 9.707872700186755 6.396014578638242 10.512111596555696
Sn 17.131660436907122 15.887788761334638 11.676889825519773
Sn 16.193304421998384 11.896987640374453 10.667915544113045
Sn 7.24597541454056 7.804875645521677 11.833372477004447
Sn 9.162892745756917 12.625361017253255 10.942224801414552
Sn 9.462749142353672 6.548901463449287 13.673081219534991
Sn 10.683247952271305 9.323698806992883 12.434159356623931
Sn 14.95327792245499 14.142929777702323 13.41739294238361
Sn 16.40168451989844 10.361114682734142 13.656144269683148
Sn 12.401264070270697 6.429122990582617 12.459486167532194
Sn 8.148447374542453 11.530921171136729 13.726429054403624
Sn 15.526982494578398 17.689354689154584 13.601762199884112
Sn 14.97654331714962 7.609668800048317 13.6744272802142
Sn 17.895837691394263 15.895471261258434 14.755295314965194
Sn 6.531806746575708 14.323862139964824 14.242016427018779
Sn 12.697403469997768 16.333797031602344 14.409247609539662
Sn 9.26281411917817 15.970206882678077 14.02646333185976
Sn 13.425580034609691 10.68287560401897 12.851042267113215
Sn 8.924546061731428 13.51658210844977 15.90688741215569
Sn 16.50410755707073 13.322869871521226 16.03094391408077
Sn 9.318542315302944 9.194900687807477 15.290704215703167
Sn 12.242553878453926 8.215459107041235 14.99884935913883
Sn 15.302285773275878 16.24853716425991 16.349808698807916
Sn 14.252145860898748 10.568783120711522 15.819245487015122
Sn 11.070054442746153 13.342396039983619 13.738452036307894
Sn 11.264414615558943 11.38556104630888 16.27189305933815
Sn 13.320678594938116 13.807812157499837 16.15446047927105
