45
Energy = -158.6522816 eV
Sn 8.467915873552094 10.779321813114208 7.9872210533981125
Sn 9.990761710279399 10.33493476254077 12.820388516271226
Sn 11.674912489903166 5.589420135291281 10.247824288145877
Sn 10.9787927924764 11.446347089233507 15.535441972863309
Sn 12.908260127624136 8.766935782439512 11.121272242296397
Sn 7.707491136369947 16.06203271001857 10.678155894599225
Sn 9.81129930017389 6.592458958660058 5.58501253578776
Sn 9.45548019689325 8.807081861808783 10.200980141012622
Sn 13.70778940146165 10.160396590847267 13.864509921811496
Sn 14.170240176902938 10.002089585518034 7.66638699507406
Sn 14.216612518183293 13.16663493111601 7.231797842941332
Sn 5.562122664987045 11.879698141419682 7.693572679040142
Sn 11.26627203876236 8.003929414581092 7.908290443417049
Sn 9.536384907403386 13.735124076882759 11.328126655845562
Sn 7.387970089799705 11.813131503569096 5.0881438113446205
Sn 5.629159528903648 14.820628192670162 8.649303960193935
Sn 7.571660954106275 8.902812040048735 3.8510871918715717
Sn 14.017148108832567 6.772683949830058 8.357762999108004
Sn 13.125340808079024 6.987393666834936 13.860836378230422
Sn 7.449857597311398 14.315494910489772 13.382229892557783
Sn 6.888190303372455 10.044893738751673 12.36995921675855
Sn 12.030472029258268 12.546377451187166 12.626283851186416
Sn 15.493149681850332 8.148167077755614 15.38673783601356
Sn 10.185740539978745 7.045513558462834 12.753882487235959
Sn 11.789635655328798 4.86884269994687 7.323634394704702
Sn 9.967708960040346 8.551088846522292 15.390549560523288
Sn 7.8198012658836324 11.159668115267994 14.982274995868439
Sn 12.180035302870936 14.28844779449146 9.329216628710798
Sn 11.292497268199064 13.829030661235713 6.3804201554196665
Sn 14.048019591612576 11.854037819191792 10.138995573677498
Sn 8.542500091229462 13.837454775489064 8.349974805221647
Sn 7.194474072615217 7.85711948179718 14.445516468066327
Sn 5.039215162159417 15.030768059594568 11.724150022633426
Sn 6.953930460998823 7.337137697541561 6.495493630520835
Sn 6.162807084796311 9.069466533996236 8.950628492428143
Sn 9.010288289932314 5.874198886702307 8.586140387501422
Sn 9.879827589574766 9.794967317315095 5.550015576251975
Sn 15.878563270096585 8.457957045721495 12.435991662046233
Sn 7.247051042172617 7.084052213188482 11.423028849302655
Sn 12.748129703990207 8.868927644804737 16.52813451773072
Sn 11.557085107738926 11.466118630801512 8.332444619860734
Sn 6.7057345296333635 12.691695434401309 10.85141618328559
Sn 12.63839529152427 11.234687587965148 5.344396389302488
Sn 5.206841028516552 9.756846699007692 5.5436743154996435
Sn 14.525967127112752 5.985516984437263 11.320226836931433
