43
Energy = -151.80713026 eV
Sn 13.860133649598946 6.789323629410855 9.683430090091262
Sn 16.20302940947719 8.476741100008168 10.62576524874006
Sn 16.791653838113355 10.943705616230393 8.746555145208099
Sn 18.124058483814284 10.69437057577619 11.487194201570533
Sn 11.51011531124198 12.346210962506248 7.2036279281761875
Sn 14.027501946503667 9.652881821575681 8.508618521491506
Sn 11.752064423168935 6.07352280481129 12.070546771395355
Sn 13.844224527097957 8.250880857962313 12.687469394732304
Sn 16.254093042868323 13.123808303834819 11.229721998447165
Sn 14.638672657119555 9.185885389804081 15.674967239000475
Sn 14.293140540529688 12.797124921087132 8.97096735363559
Sn 11.813490892002026 8.981767363869212 10.595778184464487
Sn 13.276151950788792 11.68463561533205 11.666298611847749
Sn 9.625091470709744 10.30266425632984 8.490031466685279
Sn 15.730164972009732 16.37230625071077 11.050690870876105
Sn 10.556753285558269 12.851627805114472 10.0516710354629
Sn 10.339532876288033 15.156032971074314 7.8349084636495245
Sn 15.628747716813358 10.687281122491667 13.257119734053772
Sn 9.143271231792694 7.908120274018703 11.537761306213008
Sn 10.534346087191048 10.231104450339824 13.232930837837516
Sn 12.8317182131895 6.552323597659215 15.034797180007004
Sn 13.322984327916142 16.051271157134217 9.055875942965844
Sn 8.300663046325468 12.872068493026868 7.4993320425577
Sn 11.59966018868058 9.345108180089142 15.943607422569238
Sn 14.753484801154142 13.616509696282467 14.239479922489416
Sn 7.430007324216643 10.057266879560233 12.96488401997049
Sn 9.854886628580923 7.245146827759018 14.432000284231377
Sn 12.83999092965934 15.13240852285137 11.861060097234864
Sn 13.543142598140662 18.51619116932607 10.90974038267551
Sn 13.382198990027906 11.8677102641805 16.778255863029848
Sn 11.764315191039723 13.194943507145947 14.32377700750518
Sn 8.135369497113667 14.82270956982385 10.03134567376687
Sn 7.726042712065608 11.790849014036791 10.326281480835332
Sn 8.633022951697182 9.884171454655556 16.084565704878482
Sn 10.738539624718987 17.322639274673104 10.250688767147798
Sn 14.526220713815263 16.772701662281342 13.882151626084388
Sn 9.82839016496993 15.127206546310054 12.838300376361305
Sn 13.371392210628452 15.094138491471007 16.524908607760484
Sn 8.596893487698557 12.431964872001705 14.360726677322326
Sn 10.363314551336453 12.533504713106732 17.016238974696613
Sn 11.597654483057807 17.715408446127768 13.20604431843193
Sn 10.419752121506145 15.661159330030426 15.823460301056588
Sn 12.549237561200401 17.922768116266628 16.060954039851566
