49
Energy = -173.55859101 eV
Sn 17.490331874358183 7.779271530051378 10.369275626390278
Sn 13.326151855799468 6.57732052665399 7.285263683367099
Sn 7.0884893027652165 13.250719993425426 6.318476701993295
Sn 13.933487103738019 10.880907673548974 12.872698047937373
Sn 12.345884466600527 12.21468157754127 6.401604304964143
Sn 7.132508636293147 7.054082492844034 11.652691406004335
Sn 9.375142755567406 15.236800413378282 14.62126318449283
Sn 6.6887701365172045 12.119548180495887 9.451266258278967
Sn 16.413364650165967 8.36211305380135 13.30552426836054
Sn 9.888842364912026 9.290240092156186 15.19087226724993
Sn 8.605060036589782 9.913984574977254 10.395750865263267
Sn 8.566100776219066 12.370246767018843 15.806021545865974
Sn 16.366093234189883 10.530134341186741 11.000434502112519
Sn 13.454114926716514 7.573401185848787 13.823564597281
Sn 8.363178539334545 7.712334310953711 8.184676310060112
Sn 7.630613207576452 9.552453817194996 13.269985381512173
Sn 12.381457486606886 5.1848926802514645 9.720954258409558
Sn 5.774547898110392 8.958118404006443 9.13868034931566
Sn 13.15268109783358 13.789580910197852 11.699465462260378
Sn 5.7552260114976495 11.515446827131267 14.430950662723257
Sn 11.904103106478336 9.270944261825228 6.645572751085419
Sn 8.356007400472421 14.683989876593683 9.522099883549181
Sn 9.319471306469355 5.594878562737839 10.01489473669696
Sn 6.236660001353465 9.153946810649002 5.922745221850701
Sn 13.32560199189927 14.071066419894743 8.603883432162501
Sn 9.275629140058811 8.439574496690852 5.37616636693072
Sn 14.176821046439679 8.013616552366074 10.897443124158265
Sn 10.121851649084945 6.658973612560847 12.84532460441656
Sn 11.186304809953748 9.541608715050005 12.461491430773185
Sn 13.373111121095938 10.945785846402748 9.738983028837744
Sn 12.487538785673307 4.794110098215982 12.750348342431137
Sn 5.31053812980467 13.472776953371318 12.023098089521808
Sn 10.000317605664453 13.447954919005301 4.938890510489296
Sn 15.622784547120924 5.670212074352462 9.132965105945914
Sn 9.363413708417573 11.179761683218253 7.212941915411297
Sn 10.681887809748364 12.601668879986264 10.053353003628025
Sn 10.99697889890881 12.502363329184082 13.700855263964757
Sn 15.514420498940606 5.556565920226035 12.189517634069134
Sn 8.190458442618299 12.842298372205523 12.610129544856974
Sn 5.29800613634177 11.69444647440825 4.491021598517803
Sn 8.244433288287862 11.058703660857855 4.157259338574141
Sn 10.631293483824116 14.72765687448855 7.640552944538341
Sn 11.322121307802279 8.206112684491215 9.505261094267828
Sn 10.54166302753958 15.329199660731927 11.760846618738519
Sn 15.43033803815433 8.90566384835927 8.260261254808329
Sn 7.25604714240414 15.88575897613504 12.280297469680317
Sn 7.878953452094339 6.913679782108236 14.73244988804892
Sn 4.614631324177475 11.301319531001788 7.459446866371996
Sn 6.403652975321451 14.466168307757513 14.9295657893729
