47
Energy = -166.1077505 eV
Sn 7.357753489983913 15.20609757878442 8.237919452472577
Sn 9.061899463746904 12.783752869009449 6.3117092103321815
Sn 8.804981168345455 9.404422165985956 7.060446906716133
Sn 11.948430179637317 13.591257862634974 5.37846378928258
Sn 11.111636075493376 10.596144902160532 5.347283852765393
Sn 6.610909722461767 11.822522881232093 8.135321578903657
Sn 13.168681493978479 8.993731740867954 7.201914413796364
Sn 9.954059697207331 15.790477301373466 6.344839379462658
Sn 10.808034799256985 6.7100070313312585 7.309911404286143
Sn 12.420782078181174 15.078843920074744 8.355443313093811
Sn 9.325097694030257 10.618292384394152 9.733795335179108
Sn 15.36403985474585 13.928492205795637 9.813545019737449
Sn 7.1284640978321905 8.558444279366983 10.460145461838058
Sn 7.868369561640884 6.20927683165049 8.136395413465898
Sn 12.312235535539099 11.900766030467173 7.910845371112893
Sn 10.111195026788888 3.989062069749744 8.762264913157699
Sn 5.737162002903785 8.88756161664614 7.8169081995362095
Sn 12.673247190832194 5.570983259419918 9.530980776656474
Sn 15.55750997130238 11.49817551651083 7.894265996492669
Sn 9.778275436174988 13.579970533550703 9.273583949047136
Sn 7.910304820688665 4.729304276943272 10.915751020645548
Sn 9.903458176412528 16.9785136943749 9.112049899973625
Sn 4.5543188515751 10.507283871018444 10.309297966597054
Sn 11.9015139017622 12.416376889023592 12.781034721619017
Sn 6.726335059005211 7.062501600732469 13.05583481778486
Sn 12.071767144178757 8.900335915249565 9.995138559908469
Sn 9.87843793045546 6.950257087654106 10.438591841974596
Sn 13.87812552362817 11.396893612324616 10.566274960952518
Sn 15.58422996882469 8.931302255995048 9.7425831453559
Sn 10.905948519174565 4.489162411193159 11.802144812851358
Sn 11.281014352823247 15.15467972610003 11.29809692299301
Sn 17.163990076497583 11.408648309246365 10.635880344203372
Sn 6.8923187391653675 12.4268869813776 11.088177307282505
Sn 9.112275087312605 10.980385049011206 12.7820814725805
Sn 8.135211951606692 15.333178575506944 11.204771263536221
Sn 13.776394420036864 7.2828310304874595 11.916509139239988
Sn 15.192113582660463 12.978612839219611 12.787694560054497
Sn 12.55416710172672 9.638310350076528 13.738361976657258
Sn 9.17733652299434 8.326669069008714 14.155852203600032
Sn 5.828014532485392 9.922180615656929 12.999299603059185
Sn 11.662256235140257 6.691683978532722 14.156689336289924
Sn 9.58858502308567 13.561976099747866 14.409777674944186
Sn 15.59069466550917 9.945575676388756 12.879508451225549
Sn 6.6502941970559615 12.437416431529874 14.39017193850589
Sn 8.74268318855186 10.83775047323373 15.963117375704233
Sn 11.295263616546963 8.751498727158253 16.432389226977282
Sn 11.587455671351753 11.88877487254017 16.07420911848977
