47
Energy = -165.58001194 eV
Sn 11.758523210993147 9.534265002210313 4.3044799038065005
Sn 8.80222766916009 8.975774616025735 5.201294506880674
Sn 9.69907461782854 11.899216728385495 4.833783719167944
Sn 12.593836284635001 12.126789902969529 6.0892653199828395
Sn 13.754325092646587 8.961338737475124 6.56893876980521
Sn 11.122432440063914 7.1163001120787746 6.333993045354714
Sn 10.30203873452212 13.29713316581081 7.796143466539164
Sn 7.939178042351517 11.223817715211709 7.503815363855701
Sn 8.654878309228868 7.984657557220235 8.091441703323362
Sn 14.478613005036715 13.987348058032183 8.975183943668998
Sn 10.908172160432645 10.08448208116792 7.596724096340229
Sn 15.430193186526367 11.539522253922513 7.307095023111039
Sn 5.848020124391011 12.995006224132338 9.8789307695468
Sn 13.570429218680722 10.64779561120082 9.593786976863383
Sn 12.142211721101228 15.99124712633783 9.378765938427156
Sn 16.66650802651438 14.771260499044192 10.928315205391115
Sn 12.465127283627147 7.626255860957453 9.406309214291639
Sn 15.371431930660325 8.235514549393725 10.559099231554278
Sn 6.994080244947631 10.025107940835424 10.30929511928235
Sn 8.123185342547238 15.039148828141466 9.489666851293888
Sn 9.700080722269714 6.74171747658613 10.81329047291591
Sn 10.280468479266357 9.83837685760808 10.807442084522739
Sn 15.074061120916191 16.88482628548488 9.433894332661758
Sn 11.864970002236024 13.080367910998541 10.573815323403691
Sn 13.877894373603256 15.669242844653546 12.017125810221694
Sn 16.56473198252982 11.144054065669279 10.23884118068433
Sn 6.535655566214889 14.87345313082534 12.275718422497507
Sn 14.034875048805972 6.460525306895981 12.570846650013099
Sn 9.92830031598898 15.355524579012348 11.987081635133004
Sn 11.241551832150243 7.311002229721605 13.369119620963355
Sn 8.663339474204683 12.564009559018835 11.124941560190559
Sn 8.201578080482633 8.631613716616075 12.78026729455955
Sn 13.157110276415876 9.615185374295548 12.637180429863038
Sn 6.112793924639188 11.849484299823251 12.863123416625848
Sn 15.83988417404679 8.765091084408155 13.623728971984717
Sn 14.731006677926944 12.629117527142407 12.123290496595635
Sn 12.109626563295608 13.335814439090562 13.686146413673391
Sn 10.230837204235423 10.803632688419329 13.905497536588893
Sn 13.514684747844969 7.890074312586968 15.42372836353524
Sn 8.584943377087706 13.455498994859614 14.174824929975854
Sn 7.631358041366359 10.642684000685447 15.724131564630495
Sn 10.276937382687201 8.985568560088709 16.447911792302058
Sn 12.819389094982723 10.981183713421332 15.885911523573803
Sn 10.643518153927094 12.586566421060853 17.275476898097843
Sn 11.77219961274046 10.31214453432785 18.779669409697462
Sn 7.85049098327418 13.376891393889657 17.220620078088665
Sn 8.663626809127422 10.684766790416493 18.620446286673772
