41
Energy = -145.00230942 eV
Sn 9.017870816623228 10.808621845709334 6.62436959817617
Sn 8.529852724571736 13.870941526771114 6.016971052590036
Sn 10.705827810333819 12.805304147224573 8.08806092470851
Sn 6.211579205343689 11.907718497328434 6.274829982540971
Sn 10.303919576129742 6.494239069468417 6.232562860036079
Sn 11.584762909089651 9.332187111127064 5.727812981868952
Sn 13.78265173998415 9.855465110824188 7.8719601417287155
Sn 13.667287340126682 13.073933326532403 7.90985643549894
Sn 7.001082807633756 9.097600326643054 8.208896893071548
Sn 13.28179353541389 6.861325944178317 6.857354279727463
Sn 6.187429207477315 14.378060765955212 8.080427021966196
Sn 8.92768759886634 10.831456156318819 9.84311579919355
Sn 8.77217507725853 6.114806203956367 8.913118651767817
Sn 11.696525808263905 5.0164206929171815 8.670240849497874
Sn 9.011977489440813 15.175809882419236 8.857601363510001
Sn 15.55248831440206 11.661586641558682 11.810237050927425
Sn 12.028903186216455 15.708905184525728 8.806301592675243
Sn 5.698993514094878 11.59081264979752 9.32227652662637
Sn 12.56616885378327 11.314568278738259 10.479972445230404
Sn 10.908083272213565 8.47525496643034 8.642799907222503
Sn 13.519402510868339 7.29409109835283 9.89755182181984
Sn 13.628559995954472 9.271917048475443 12.94861039301842
Sn 12.24287006068399 16.110850701320462 11.811009087827598
Sn 14.185471004905212 14.11255209974557 10.68227471898159
Sn 10.709661537649437 6.734802703499318 11.30082119754079
Sn 7.748642145228486 8.171839894943812 11.330491603537581
Sn 7.560155530798427 13.327235252958491 10.945457730787302
Sn 10.117225086221161 9.67717445450171 12.656884677866143
Sn 12.738145337022928 12.054161441846238 13.78249561915485
Sn 15.630576497314735 10.58802943568803 15.003846645770608
Sn 10.707456551426349 13.63917291596141 11.436693911416022
Sn 11.535766044574588 7.524977035390764 14.450326175493288
Sn 7.083110601925843 10.01526897236732 13.882845355309017
Sn 15.503671323744785 13.56407065097556 14.216678594543573
Sn 12.798419902571911 14.888750946630585 14.690690864094034
Sn 8.53842326569292 7.3627127624249935 14.341843592788589
Sn 9.104917106158858 12.255801520711879 13.8985279519144
Sn 9.278779836955968 9.762769835680281 16.050192841186966
Sn 12.751780025391552 9.949606438225405 16.14532715264435
Sn 10.991751000920067 12.641189879347941 16.35428204770608
Sn 14.099962187386094 12.589814923191655 16.846189998697668
