45
Energy = -158.80533141 eV
Sn 9.608975384352668 5.229083704678695 6.884198830114784
Sn 9.935700803597083 7.313529169181704 9.097561974667617
Sn 12.746048408593685 11.021445059342454 14.198519403283655
Sn 8.06546276575478 14.183115040986229 6.275493360391572
Sn 4.939619992057274 9.051796239620183 6.906261749588034
Sn 12.871786305370229 15.420081863835637 11.172120514688977
Sn 8.82750844646322 13.303784295305427 11.523047417037205
Sn 9.693436904730666 5.5252313660259045 11.90274328799116
Sn 10.989176216419326 7.8126492439032 6.005732872905101
Sn 9.959834372905213 11.414855344940701 7.198447918677046
Sn 12.811292265961068 5.793123659915916 12.299123922368429
Sn 8.235825848612066 9.161987681451532 6.088115241330116
Sn 13.77880730958467 6.5716650190202595 9.322711632382282
Sn 6.240479920943181 13.651330519328285 8.719379032115032
Sn 5.475483885204804 11.803186610973688 11.173315526839419
Sn 14.997100010807465 12.499320398165693 11.241384860016304
Sn 7.152558097981957 7.035855739996923 11.126642681707269
Sn 10.440202232012641 14.138394422393263 13.936894316805459
Sn 8.50965171502736 11.763340024446906 4.525862761618914
Sn 7.687007968747459 11.944283203071146 13.97776726437225
Sn 7.073012898981049 6.946785332457593 8.120989757587644
Sn 15.74658915585684 15.290331807519488 12.373518209763503
Sn 9.843054639157662 13.868408312155257 8.782727397504505
Sn 12.088528220512577 9.373833275539095 9.103272721160144
Sn 5.837653064288072 11.898600135677514 6.102356270382012
Sn 13.433354706602858 14.39667875737606 14.04585511986513
Sn 10.881441770715503 8.372713267626164 12.277867826024066
Sn 13.00419129734692 7.972515660313859 14.610098022593265
Sn 4.72054897057719 9.039624939833876 9.931256538868038
Sn 15.376098867835712 14.886873311997824 9.417255495413697
Sn 11.341228766576693 4.5401849558968586 9.376434969110491
Sn 10.283949533635706 11.660233361632924 15.788225099911648
Sn 10.425103201317507 6.478868486184794 14.745362331063289
Sn 13.890348990751697 8.205728786683409 6.770750104218197
Sn 3.790452221262271 11.666358482795525 8.465531292822496
Sn 12.911845419740112 11.151570933559464 6.690898000073516
Sn 6.2802064224667795 9.113207295099187 13.145004566483008
Sn 9.004364859394244 9.179012064945526 14.65730340558796
Sn 8.569246086797525 10.17149243271105 11.368723254382786
Sn 11.680468388121762 12.211149817197576 11.699056938392895
Sn 12.656083847255138 5.318795178750954 6.550828591474129
Sn 13.833222749730131 8.727434872983487 11.672799476662657
Sn 12.918272409510974 13.110383295013063 9.034357892077665
Sn 15.525465655241911 12.266906453542578 14.143744871584621
Sn 7.068860751918663 10.663801926644584 8.700009028814174
