45
Energy = -158.23528629 eV
Sn 4.59436711297886 11.256913236416509 8.956497813683631
Sn 13.953583082268974 8.34533700036815 7.368946690898847
Sn 15.086395508723882 9.777572161474266 11.791057406858194
Sn 8.713364134646904 5.583108816591774 6.360542226840559
Sn 12.14148009497066 6.838585586383518 12.240768297953016
Sn 5.957723440407011 9.701340510129093 11.273727024814605
Sn 8.02374896221265 15.206932388975366 9.416457268305644
Sn 5.192642554551417 14.205563782095703 10.056694495565358
Sn 7.876908556285445 12.638564808068939 14.089347882031227
Sn 12.502532965899988 11.530573898350168 6.743037722548506
Sn 8.885674420600402 8.89777493374283 11.147740517575679
Sn 5.230208952263979 12.392971620642472 12.586774376835432
Sn 11.678096778510982 5.997123568208945 5.984939214344926
Sn 10.595511734096261 11.503891141648076 11.856590401009942
Sn 13.332993988474811 4.2408157646952125 10.684987848344965
Sn 6.421780146733286 6.737173244565796 11.742884423556463
Sn 12.464922272813379 13.145514219463431 9.941986316000206
Sn 13.498826322261785 12.3729245873037 12.75425312444185
Sn 9.20274033276517 15.204626420460949 14.835835042019319
Sn 12.54976297476474 9.634028340423166 13.701006328967141
Sn 11.095514660704488 12.667757049700048 14.722834001269762
Sn 6.517643550833619 7.690086844699579 6.8318670524816305
Sn 10.45711042995735 9.396971114576168 7.586209128428874
Sn 10.071157186714437 14.592918810545443 11.949819692097448
Sn 9.013292201207198 8.565073276522526 5.065607226267733
Sn 11.21810487391204 6.6722081434299225 9.060636144321807
Sn 14.077017171978616 5.116534026721196 7.817955814163783
Sn 5.992776942634791 13.260660557768839 7.067097244876684
Sn 8.032607471207664 6.6220098411857435 9.26498647940273
Sn 5.353234451675906 10.442434626669284 5.971348458598314
Sn 7.095642696936955 15.295350127830094 12.586430145741636
Sn 12.153179581302771 8.901292352875375 4.968241161780617
Sn 14.688025040684769 6.977066983258811 10.177641868442095
Sn 7.458013524316547 10.144295061965785 8.402258815761574
Sn 14.486450806682885 10.91769299652461 9.045645706281531
Sn 9.097254900511393 6.72272558094752 13.227524437529192
Sn 10.114568449145132 4.495743971237014 11.07750966776223
Sn 8.706581973159745 14.390422368524366 6.409117124572427
Sn 8.354571217778394 3.6261506149640406 8.707754050596838
Sn 12.281467200376225 9.342412240389102 10.397844905890146
Sn 7.746547846111541 12.484702421698493 10.80483293392754
Sn 8.278720821735895 11.51576245438882 5.556269947179815
Sn 11.319061482059176 3.5815637302006578 8.134892969510496
Sn 9.469307587508506 9.860389816457326 14.231252760793932
Sn 9.953615711962373 12.441171074238197 8.33507995705327
