40
Energy = -141.03689788 eV
Sn 9.776654570711239 12.09262482387626 4.963287038907812
Sn 11.966877793706375 9.255764684693567 5.916986392183277
Sn 9.629241680937122 14.523020395661325 6.695383684155933
Sn 12.733877131559973 11.850251420368508 4.851230106348886
Sn 8.459507587762374 9.404220929781264 5.584559664685529
Sn 7.718225049007714 11.391894310208308 7.826668810303132
Sn 14.120542151027006 8.264711299544185 7.899762457870055
Sn 12.398406460777583 15.415038225379062 7.642606413851713
Sn 7.369340143440736 14.46912653005377 8.725302196505847
Sn 10.059644987357109 7.101301545993573 6.7936541554976575
Sn 9.82450711774222 16.036819954573097 9.529006009829816
Sn 14.248311945157512 10.915838299777263 9.219541614422123
Sn 11.476330940023695 12.226999792657699 7.722557158088778
Sn 7.074802859697385 8.109428396780212 8.088397180985517
Sn 9.606587792979482 13.002378998106906 10.458309886488347
Sn 14.326840651280126 13.046858699932283 7.089094891805128
Sn 12.176347197441928 6.351497980595193 9.39028807239114
Sn 11.423623668381053 9.31236922408508 8.889621502449476
Sn 9.112527589767726 6.757360826505583 9.910351853814547
Sn 5.556452030992712 10.667480338574975 9.952651367397875
Sn 8.657680055272879 5.227601734823664 12.550692933417634
Sn 14.44935311761057 12.38923696074522 11.767622673946393
Sn 7.0916106997971635 10.342680798666857 12.73395254083775
Sn 10.080869203818386 8.071853509866523 12.876020028697436
Sn 6.549737342510765 13.214494612564215 11.409749015937049
Sn 12.52001184003924 14.37102458520985 10.475628975220639
Sn 7.221847509357652 7.3964272114143075 14.102914192060794
Sn 11.799237855853741 10.658930138041807 11.663184838220552
Sn 13.213044694873398 7.842992700629218 11.841144084025117
Sn 11.727848501434046 5.237030395198309 12.972337974850062
Sn 10.5506474637102 15.32736302680834 12.501821170200147
Sn 6.035718336917463 7.884588763052351 11.093501786006275
Sn 8.641795305709998 9.804055011648265 10.24609392027652
Sn 14.202227601799159 9.96131837180825 13.697371440944236
Sn 9.874564428243493 5.71717937103143 15.41608478260063
Sn 8.709688687751083 13.111544371524284 13.48238035809209
Sn 11.89814701305372 12.820300023256369 13.77120356961062
Sn 9.532365596353152 8.755800952984158 15.796043910435458
Sn 12.408878258946974 7.427479523658981 15.039995348215783
Sn 12.086050799085887 10.553084921809186 15.722969660313247
