41
Energy = -144.27539022 eV
Sn 12.02118185699013 12.560594471963212 15.897696954555718
Sn 11.264806933374892 6.026450259113346 11.224801857612515
Sn 15.889728644622295 13.208445764255037 13.54960830945628
Sn 11.707797964057782 13.250393558649588 10.759458106303502
Sn 11.500501872289924 12.994102372213618 5.431501593187932
Sn 11.532604917728957 6.625234441217179 8.073998291825514
Sn 8.662002773229302 8.229395452118178 15.461637778835584
Sn 9.889228071717147 10.787058073778107 17.13319503100693
Sn 8.395020231727248 6.848712286585157 12.385626995485143
Sn 14.069612651229823 8.306974897705773 7.2857460401633425
Sn 11.807022061612965 8.713793631436513 15.989898542750247
Sn 13.450636412125686 8.657223711452634 13.130675848364058
Sn 11.635942048773183 16.076471220296 12.036465821943809
Sn 8.90150427467992 14.700434068366159 6.012000803619722
Sn 7.096990104051162 12.986053638595774 7.86861094138125
Sn 10.156086957338402 12.508432199103588 8.172184509680385
Sn 15.462137390388396 12.065974362770195 10.853166934162017
Sn 14.229651196463864 13.599992498972583 8.491328554700612
Sn 7.1377743454989835 8.502313332943787 9.822598064949528
Sn 8.223037259336097 11.536856189888654 10.43591790566312
Sn 14.305457508682814 10.53371403057108 15.429331466948474
Sn 10.47660837405774 15.058553685973774 14.706864618598814
Sn 10.544176325383992 9.224464572369211 12.86309174492137
Sn 9.01462632327425 14.282289318366747 12.085842825638846
Sn 13.700580403674417 7.690924034125615 10.208857749754964
Sn 14.003546614420628 11.274824838636967 6.5103772163520865
Sn 13.16480192077746 11.800695080881935 12.995688518439186
Sn 10.253877423429214 9.264237387326139 9.68394470961916
Sn 14.413011150978871 15.052143426412762 11.173676385523814
Sn 13.058952243557545 10.601459874352022 9.351479296295858
Sn 11.63328508628536 15.255143152313616 7.6709014051355355
Sn 8.661163918720801 11.588794329898016 5.5769704434446306
Sn 10.864119064225441 6.299462057379045 14.437702653991824
Sn 9.614559772435506 11.86959295807856 14.086627101550713
Sn 7.246412547379589 10.91274998533491 15.773588678351553
Sn 7.278146920237235 9.699415090373597 12.894851584409597
Sn 8.686732096251587 5.787982068811041 9.526486650024557
Sn 8.800443133803125 7.9429829494751365 7.271498840234382
Sn 11.192434550138621 9.832783693071995 6.6438811359843415
Sn 13.474510481106838 14.832330056137145 14.311105954558375
Sn 8.857398935487938 15.28866374022962 9.059224896119337
