46
Energy = -162.29040923 eV
Sn 11.750374699445134 11.39170826173452 4.649535514648167
Sn 9.79954482114039 8.893472991720973 4.80102429610149
Sn 8.729889746103938 11.824839632986942 4.748949935839147
Sn 12.771923321034997 8.837666991212762 5.920409417655568
Sn 8.058433422057057 6.670193662725881 6.973912444844798
Sn 11.030744988610486 6.328385513179874 6.370097851295777
Sn 10.429558928573552 13.367187475567457 6.772968038515398
Sn 13.36368173640238 13.623096711168492 7.3875332255419535
Sn 10.592748578951745 10.414027818885831 7.467209915373148
Sn 8.23197535120307 16.034867017938687 8.800081974271237
Sn 7.675201242602805 9.821860955195339 7.105232812176293
Sn 15.880682723796324 9.656319080671937 10.140792570630191
Sn 7.83903067676018 5.070960054787513 9.652267251731095
Sn 13.841060796881841 7.426917499564971 10.21377645207896
Sn 10.331778550790682 7.426216493863423 9.118365750620383
Sn 7.421816403089997 13.21356765843405 7.711464148000639
Sn 9.6427565909172 13.272031760526486 9.84760374496675
Sn 7.017336863982628 8.018722690499597 9.648755880305828
Sn 13.61646857062875 15.976410980256217 9.531780338803609
Sn 13.60482780012147 10.602499905761324 8.384052852465354
Sn 12.841349279682278 5.12971269823107 8.571176161283683
Sn 12.791115303244318 13.134093507327092 10.296460275781216
Sn 10.77216932592671 16.0589811033428 10.431204218619516
Sn 8.860527770488341 10.193490310606501 10.752099540499387
Sn 15.683269821243872 12.505614350592154 11.10471966534069
Sn 13.406295481411542 4.862398722347114 11.784318686939997
Sn 8.784972142460242 7.035503149417787 12.043893751905198
Sn 8.953365845857347 13.542359949395289 12.851214735131654
Sn 7.794147778225664 16.4590505372511 11.846970706442443
Sn 6.650451406368203 13.988077942188832 10.574326362346635
Sn 13.316933332585911 15.229806575737125 12.542526219554249
Sn 10.654546759541732 4.723852632027268 10.648279538484987
Sn 6.821101829258401 11.393337932653946 12.819864762513992
Sn 11.928792379809746 12.28079707624039 13.074626071826406
Sn 11.94786419667111 9.88218322919755 10.883510973729361
Sn 14.396005607335141 10.117724566535944 12.86631094057904
Sn 9.231410503407101 9.710811574749012 13.953200398156156
Sn 14.793213035690465 12.894951686126456 13.950169489814083
Sn 11.77021854123969 7.281294164320308 12.606397236349936
Sn 10.45098617922408 16.044953628425002 13.477188816032552
Sn 11.11391820802958 11.093251595061329 15.922627587918953
Sn 6.410018298631278 9.566697502922601 15.420524864335954
Sn 8.200291016988134 12.072857802080776 15.733046039698293
Sn 8.269557123445315 7.071297577746396 15.21665184150096
Sn 11.182094112036282 7.973040228847498 15.58476718134241
Sn 8.857540169893463 9.394898061737186 17.3101007797969
