49
Energy = -172.90969528 eV
Sn 8.988110336596828 10.814583039157624 4.790682733420642
Sn 11.681630142522021 11.934307114717809 4.061215666699011
Sn 12.835641236856915 13.151287941467242 6.943254653220874
Sn 10.801159517353108 8.566073517426192 5.461109652361998
Sn 6.286444688837666 12.502503631459131 6.7275956764629425
Sn 13.238734421719801 10.23853621455775 5.970772754195234
Sn 9.857332900236887 13.53051509241816 6.1070693386866415
Sn 13.08498293478006 7.047295693580966 8.777855587521236
Sn 6.855392908251935 7.506685636233401 6.775805491298178
Sn 6.160916266662703 10.002371820166456 4.967901704199201
Sn 7.713317813181426 14.956958895988791 7.848760140469266
Sn 7.370870683420206 10.109816339831777 8.043635587269295
Sn 10.673691299946604 10.960241365678112 7.467496626840967
Sn 10.861460739354369 5.013146573997697 10.145618679793772
Sn 15.664525680112954 11.329669640015734 9.401039707459072
Sn 15.14196026745877 14.187293602255863 9.197144795073296
Sn 13.08656881796461 9.75334127290243 10.040985389018042
Sn 4.613367254379737 11.370611739105607 9.075037242658299
Sn 15.26387290026423 8.936098654024246 7.694964674069968
Sn 8.903657614666853 13.058691763446312 10.034661427671045
Sn 10.819809955574192 15.39422360057001 9.67426862765828
Sn 7.950045005974158 5.219786167539109 8.79915918160085
Sn 5.117315536222561 8.355390156309825 9.234152476808996
Sn 9.845919823430258 7.485594962851625 8.249432090317086
Sn 12.497615578527899 12.796982377423479 10.081285166726055
Sn 9.681474185406206 9.87396083005409 10.203157609132097
Sn 5.977063647219955 13.930321762195154 10.267656099768406
Sn 14.459094271698529 7.274693289294016 11.595137927080922
Sn 7.553521309333531 7.424009523183127 10.761299468623317
Sn 6.785336181838245 10.746815574249219 11.188221989656155
Sn 10.874137295118821 7.447959952203982 12.00535309320983
Sn 8.581120277617813 5.029724392383459 12.306673941959312
Sn 8.867463187202315 15.751649117171068 11.900555451909035
Sn 15.76215917608526 9.96533629272664 12.006068185330486
Sn 11.778043131374144 4.625920537698026 13.156271668404393
Sn 11.796493065858577 14.685827234835301 12.616940245245466
Sn 14.621639665598476 13.662534651963297 12.066752545461583
Sn 10.220484968986227 11.747767723037736 12.77679722451789
Sn 12.696838432319439 10.001953868492588 13.09456595583538
Sn 8.571654668949595 9.011041795851707 13.47374171650226
Sn 7.489589608996735 13.187997691682359 13.039803453266137
Sn 13.080971189897507 7.168506781080707 14.357854801892902
Sn 9.973061390121309 6.284186040981899 14.834968479386157
Sn 9.551413005067296 14.636014820787157 14.726583893145955
Sn 14.909877557755491 11.707411805010604 14.299492029286803
Sn 11.996918874115874 12.523366006885759 15.355796353119398
Sn 9.130953332418391 11.332901451714728 15.679710657000122
Sn 11.60889889087661 9.357225129885755 16.245674095406997
Sn 8.723754667103561 8.407173218763443 16.47632434861464
