47
Energy = -166.30572803 eV
Sn 12.849927463717709 14.340374899060356 6.1401533813573685
Sn 10.098864482954868 15.67721877146375 6.0214947568306885
Sn 9.302683782670437 10.854339288804749 7.477913356088353
Sn 12.400534329039008 11.286430289195632 7.320786746089599
Sn 8.384513702116358 13.912698417137584 7.752207360404336
Sn 15.220854838441287 15.993555957939897 7.3357988734492565
Sn 12.249579863311276 8.132088527131653 7.726308834880902
Sn 12.273785487959092 17.37797547104117 7.475470835471892
Sn 14.843793049759208 13.082382478121346 8.48442278759276
Sn 14.542780610062536 9.639564002231083 9.069452275852207
Sn 9.386765276059615 8.539572416664864 9.52272357822225
Sn 10.743325663470971 5.833328750215325 9.179329245392942
Sn 11.514479301688716 17.145462177175286 10.579276115486484
Sn 7.5482319228950745 11.7100123374327 9.955123173936467
Sn 11.391341358393099 14.69636729495338 8.776751878094101
Sn 13.615534142507238 6.689946461261731 10.211554744150114
Sn 10.613821903830159 12.08155135229805 9.994347341524337
Sn 13.533526480761516 13.322288424284018 11.164020668764357
Sn 8.997164986000088 16.779323673434483 8.828768675964392
Sn 14.39872039251835 17.73152786885588 9.78391111907586
Sn 16.767639065180724 12.168266880386874 10.696613646663435
Sn 16.19446897297978 15.273663985330304 10.346887208308402
Sn 8.473985842961211 5.823363353960081 11.498180135759128
Sn 12.039004648202033 9.35471588260389 10.772738255270296
Sn 6.943025631833479 8.897434533769342 11.514657143598656
Sn 8.324245570521516 14.488149491210935 10.921228386029792
Sn 11.511809929232145 4.955589101276612 12.107095964171942
Sn 14.02194146248495 16.093140675712313 12.518964116069409
Sn 14.654901425711088 10.735972940572553 12.303823287686896
Sn 9.263414712295498 10.64268158810572 12.437464506298863
Sn 10.142554817162159 7.718973508927287 13.285013976452376
Sn 7.207081862407042 7.035554728109989 14.289335009096654
Sn 11.80338568159636 11.795484926996208 13.965530577008861
Sn 10.936959124757324 14.52487430444309 12.91779136329015
Sn 15.789244539749575 13.706727111682468 13.324459511117912
Sn 9.211549303687583 4.560130034377686 14.312905274335499
Sn 13.316379391765613 7.823292006387869 13.12929033660218
Sn 6.95808852364553 10.278839937506149 14.449499541677104
Sn 8.107609641564695 13.119086394498638 13.784849079575075
Sn 12.030573850629796 5.614677373988661 15.028710633423499
Sn 13.09591450025578 14.412449793273659 15.442292050363985
Sn 14.558880961580877 11.588309138740208 15.381241870350578
Sn 9.512587158657894 10.969048751830593 16.04364214593634
Sn 9.574995690493447 7.030861132927512 16.20600213075032
Sn 12.073508114952824 9.24043434004993 15.814499466189801
Sn 10.022282945869861 13.971295518104466 16.088494625695752
Sn 12.295181839306352 12.092417954165406 17.36041825728937
