40
Energy = -141.89517363 eV
Sn 7.073159218079461 10.494366549310437 5.082436007909952
Sn 5.310588802347967 10.062631157999782 7.493049439843259
Sn 12.338885558847139 10.545082845451047 6.212909522171109
Sn 9.747436600698023 8.956642444389951 5.584479527280086
Sn 11.815866795215712 13.385614228205245 7.247471442193761
Sn 9.355348923037228 11.919968947885245 6.424884405655603
Sn 14.41110770536171 12.658362122618595 11.083627163947115
Sn 7.0461519962275165 7.710351976707902 6.377944440737103
Sn 12.640834807951293 8.302023145401472 8.440248221973803
Sn 7.1825176604383305 12.146054135027386 8.571023826619227
Sn 16.87141457318183 10.861356126502343 10.484381602748417
Sn 9.942362175617586 13.832039240774805 9.910214218970083
Sn 12.395905706643783 11.212387776661606 9.311072960472083
Sn 12.51813982528444 15.271283467715802 11.143675502454304
Sn 9.638981735743178 10.270485431820974 8.982374496866935
Sn 7.562420932618844 11.375920295874058 11.571680728900935
Sn 9.56477167396922 7.326503368032994 8.309219445610637
Sn 15.208008003938138 8.334949795450406 10.24805222314804
Sn 7.060310953659765 8.778654992234719 9.473794816623503
Sn 16.78225728424087 11.714653226555873 13.44803533083393
Sn 17.261676109829008 8.742764049888105 12.7383374115324
Sn 10.473198397900273 9.910868643201042 12.10694538254035
Sn 9.629785656227277 16.646497578677767 10.94825404148693
Sn 10.959804695774586 13.070092814057723 12.62211138971223
Sn 6.443144336899482 8.246998803421702 12.329431685356317
Sn 8.350411580004977 6.04867972796476 10.972328014933268
Sn 13.931244763808728 9.955531622981892 12.387201757238087
Sn 11.318649339533234 7.106048517123743 11.31555685279944
Sn 8.086484221724199 14.41560766649988 12.63843908842501
Sn 13.908806839196126 12.559167310334137 14.155055960701123
Sn 15.395126666425268 9.458473695080826 15.06120749368911
Sn 14.67174726648967 7.051069229739108 12.996527595368274
Sn 8.250378070443883 10.119073548015077 14.221139174929666
Sn 12.325305822683 15.356934720332337 14.38720871045287
Sn 12.03539482756818 8.203430477328064 14.372052234980968
Sn 9.117816854107813 7.2968685904393595 13.606090113810955
Sn 9.521290591251988 16.86423618473816 14.040871908146592
Sn 9.663304226515045 13.979429504152076 15.185612174265458
Sn 11.309594274852394 11.1239270447689 15.041781473565361
Sn 12.006822496235868 17.811426967207918 12.599730181678563
