48
Energy = -169.3428692 eV
Sn 10.96841698932979 9.921193771832897 6.004582642716148
Sn 7.824065484249615 10.820342603768264 6.078457022771812
Sn 11.868418542542722 6.925131879722975 5.614362588262803
Sn 4.699521631024839 10.508817299347008 6.568021456111776
Sn 11.560705395919285 13.028547352731595 6.591038558259328
Sn 8.570469239957049 13.77259651936913 6.365389873441453
Sn 8.890503222414543 7.521199551755789 6.093426832703618
Sn 16.592290295261293 10.657634066821918 9.95970743253534
Sn 5.829435035576845 13.067205851386415 7.72357543267923
Sn 6.907319503715466 9.321524336449814 8.685519738379318
Sn 15.343040459960841 13.25895313786448 8.822057663563694
Sn 13.698864877050166 9.05210140942881 7.433359394247884
Sn 10.40221003249425 5.117726782754471 7.565300408811566
Sn 3.955413371523856 8.472556051991269 8.812956442194988
Sn 13.11997158943712 6.23183816471414 8.602515790833879
Sn 8.744834750366794 14.864520701489528 9.302906635625362
Sn 12.459552955774582 14.502132437086907 9.130472950796268
Sn 10.702663770391858 8.166374518799985 8.566183660279295
Sn 9.475620313980194 11.786887332459747 8.575359263000426
Sn 3.3764450005672306 11.380830721318238 9.140087311658387
Sn 12.548302985699006 11.350900778331367 9.124251050617259
Sn 8.024438944179257 6.423580097091328 8.970202649479976
Sn 5.799273517000609 14.896757679624953 10.203511579589312
Sn 14.441732473674854 11.848464106744526 11.682425501894972
Sn 17.142276881016386 13.59269066813767 11.293757216026368
Sn 12.01239546685952 9.108106224119492 11.473973222979769
Sn 9.849096645358053 6.869281341038457 11.53857914336183
Sn 6.85213298792591 11.923212684251324 10.432937850168454
Sn 12.787845347603628 5.9993907070215835 11.749183297189301
Sn 7.91564866615351 9.066423582292025 12.070477603103427
Sn 4.897493839719861 9.670812383513278 11.485904862438852
Sn 7.831633727672199 14.054019369290346 12.445098939675267
Sn 14.775511104504943 8.084598516867437 10.704031645023345
Sn 17.316922708454893 10.981181633479622 13.029722253368922
Sn 14.537827982184183 15.019116152173835 11.366451967544021
Sn 9.690639772600319 11.502248805715247 12.027682707905097
Sn 4.128337481153881 12.699099125812644 11.669797826382412
Sn 12.50351596802769 10.419505723795934 14.104894764976795
Sn 15.374875184814 8.760390192701058 13.605241386839444
Sn 10.701017851506597 14.460618604706035 11.547183847411775
Sn 8.92267280647052 7.53916535244321 14.67362878440719
Sn 11.988938459271145 7.330575607341085 14.450054539271772
Sn 15.221213340131339 11.585967897241957 15.145131028763117
Sn 8.048614384801052 10.539060696652255 14.699054727838318
Sn 10.58967155498806 9.568348029601824 16.357058814078744
Sn 13.16142053938591 13.592776599548925 13.823479843099564
Sn 10.38407708145426 12.46217366483632 14.906849566984727
Sn 14.051710878702679 8.762420327386891 16.27315332356212
