47
Energy = -166.94309052 eV
Sn 10.316952005287218 8.636588332653602 6.322465134095359
Sn 12.496858769808084 14.600383696016099 5.0781117901748924
Sn 9.51367980989972 11.955025919600459 5.759330198851499
Sn 12.585651657120271 11.526582428493573 5.737038397299607
Sn 12.057853078035524 17.122643218565507 7.020521020679475
Sn 9.726151805428795 15.166951894298291 6.280123590870083
Sn 11.330573363732409 6.268151746034718 8.17543669980698
Sn 7.787828079929295 10.094771368784304 7.599435683660474
Sn 15.282607889565284 11.308431135548856 7.15631185063119
Sn 8.595232936141942 13.213490735847854 8.456893720849717
Sn 8.273529948696288 7.083684379023972 8.198182919341864
Sn 14.751500878924208 15.660117212809286 6.891585312798665
Sn 10.948065831357152 10.82347540986596 8.412777972998603
Sn 12.390183999936005 13.760594030449976 8.035567248909212
Sn 9.854912219908174 5.314994417721098 10.72994304799578
Sn 13.3318467153007 8.842604297433882 7.220598817125041
Sn 13.568775150249744 16.353076668820137 9.671518844408833
Sn 10.449877929584986 15.75237942630764 9.381294249803828
Sn 14.226931764020366 6.858917869575615 9.45423692083407
Sn 15.434842961663874 13.603625141175488 9.097946396429082
Sn 6.698792136883243 11.71390261000261 10.417087818189048
Sn 15.375453024896867 9.6785297428048 9.682916625106
Sn 8.429155834072564 9.18079324916665 10.664968459428358
Sn 11.55139673725311 8.045533885685954 10.706300669585346
Sn 13.27270423725186 11.805858284609211 10.626925666182391
Sn 6.967972275650234 6.418891069406337 10.98487347664143
Sn 9.785863978662654 12.051928074131899 11.161580237372819
Sn 15.004111676732867 14.080845551854576 12.053951251043214
Sn 5.460850521508772 9.147754644472265 12.27424872870159
Sn 7.485147617907492 13.505836190797703 12.819928883646533
Sn 11.724560895016559 5.751376293025755 13.024966692221938
Sn 8.044070721513357 10.472782951180495 13.828181131795946
Sn 14.045380212548634 7.601642619531599 12.408171173840469
Sn 9.216523749563258 7.504747760168047 13.161906132334634
Sn 11.529139913641483 10.249618400744671 13.077855413093701
Sn 15.790579296507692 11.067790479365284 12.374574074222412
Sn 11.799317790891429 14.327159943768303 11.856839896469976
Sn 5.393062415813189 11.912143071042372 14.356182589076413
Sn 6.372997682329822 6.660871582255154 14.033226162946056
Sn 13.341746841569135 12.478024105769261 14.188429006183256
Sn 10.222299244696307 13.167408467482584 14.246367006108326
Sn 11.572719518496331 8.039233674026333 15.258372184160848
Sn 5.291757226555594 9.05568906129354 15.449900680501974
Sn 14.301087978815959 9.649921533044342 14.671442850848132
Sn 7.206163163729473 11.018428869004438 16.78249076589839
Sn 8.244306862043967 8.022331190733183 16.250788824982973
Sn 10.181794120284641 10.677279835032492 16.191016251280548
