45
Energy = -158.71894323 eV
Sn 12.987846743128776 9.695650696508071 9.252819885378491
Sn 12.0543718359397 10.541565858614732 4.5289096239523
Sn 7.806130856946013 9.887688890246897 15.190313957260352
Sn 4.933250446312026 8.407792566904725 14.813108799033778
Sn 7.348353435631066 13.383985083252542 8.046671849185904
Sn 8.492871177165883 5.729379167854742 12.136036600091717
Sn 10.484367868866274 10.24461503122746 12.019400567770475
Sn 12.510141727405326 13.543657881525132 9.850253851596376
Sn 14.907871447057294 9.611092350931687 5.077478734898484
Sn 9.776892758688739 5.353888002347301 7.959033214221791
Sn 15.031145739042737 11.604068635105076 10.596866024833524
Sn 6.5599170024904865 14.588235095664874 10.704978690245037
Sn 5.432988171224662 11.220027666054404 9.970760556632293
Sn 10.276186540330318 8.022683406747305 14.03487060575255
Sn 7.600893524488134 7.6276398761907815 6.273030877298427
Sn 8.10836950854411 11.997344140189549 11.047928663404534
Sn 10.097100938700954 5.88820777971994 5.050749775060595
Sn 6.9903513570091445 6.0872822958428285 9.435608001809193
Sn 12.773254445110506 7.463621657895255 4.997328157360879
Sn 4.098992409858403 8.929647317575922 11.873557064536305
Sn 8.304407744273574 16.19115907526788 8.875182714676136
Sn 16.060698462586416 8.537018497043253 10.300099475594935
Sn 13.410537810931512 6.843744933597468 10.308634982372054
Sn 10.309992971528311 14.261686748633329 7.549603336881835
Sn 10.346788073566652 11.530365870524815 9.042035080766066
Sn 9.452185234667569 11.554980800898882 6.171522408571593
Sn 10.783991575841009 8.393384553436416 7.093979860018823
Sn 5.690903350838768 11.203501591253325 13.381756956785006
Sn 7.082152108949881 4.765317643509191 6.748371134187364
Sn 12.389103234876567 12.376443444754234 12.860223462022832
Sn 16.01291265570674 10.434671750614433 7.873354300487548
Sn 9.867773773275504 14.631560310315031 10.939067136608315
Sn 10.849312428365112 10.765157249338376 15.22776298709085
Sn 13.324162354028461 11.754969589233754 7.056967820779136
Sn 7.509814852951445 6.756817653845719 15.01171066436294
Sn 13.60678354126019 9.376570661599253 12.216642966145681
Sn 6.500093562552987 10.58541632106773 6.79776860763285
Sn 7.286160783626435 8.696546780575298 12.265444633399241
Sn 7.900499946555892 9.215227132779736 9.089262237379183
Sn 9.351207120645938 12.911663843464222 13.657313503487687
Sn 10.22200536483184 7.470654140826837 10.209313998735968
Sn 9.452821849366513 8.825933308149848 4.225068694149968
Sn 14.603297035832211 7.5865876403046615 7.609250749708266
Sn 4.939057084621627 8.213312262917986 8.946305305555823
Sn 5.384486363707239 6.201682014977405 12.59609870160488
