44
Energy = -155.90165351 eV
Sn 9.859743176157085 11.09007263335093 6.103569173218835
Sn 7.867580994475908 8.252175171338056 4.469305592942608
Sn 4.750286764788302 9.280866962092254 4.2666894934755515
Sn 12.91548920379712 11.787724009701462 6.343396355915463
Sn 7.206019813898266 11.244512313040865 4.0846825254620445
Sn 10.834101246249645 14.095186290333876 7.094665844163848
Sn 11.288393589728782 8.556199859455482 5.218100700563284
Sn 13.126251001847757 8.775266649997917 7.6307239100638125
Sn 13.422332549086088 13.980122554893079 8.587912961491652
Sn 5.565415451857619 6.76296889472512 6.0016581482203994
Sn 8.175701177248305 12.137232578117352 9.240762120996786
Sn 7.685908362628024 13.227017342959492 6.463967959535679
Sn 9.790699551525137 5.92779915395119 6.051826922532795
Sn 14.46099878390927 11.103109914012878 9.212241273597218
Sn 6.810751557153766 9.57095856245765 7.0022888010217885
Sn 4.834376875600483 11.746538558323122 6.073832040607974
Sn 9.911007478809921 8.473539826805649 8.016624375597264
Sn 11.199796800051645 11.22336859683776 9.098008863888111
Sn 11.065417269275512 3.6393445187747564 10.61508326862095
Sn 3.735694916380747 9.048586570570864 7.171191916469985
Sn 11.964828064644466 5.3180502980757876 8.165638680770025
Sn 7.893719255743041 5.856618830746432 8.33511349355755
Sn 14.695927788813195 6.398322210647641 8.686695862497208
Sn 5.424761732236681 7.284106281944335 9.124035882529002
Sn 5.654293205154858 11.899395881905793 11.274810725101855
Sn 10.702785532359687 6.7069864469587115 10.415349351089581
Sn 7.657731072027067 14.310456152135856 11.69651700613508
Sn 7.417584293471246 9.327793518445466 10.257178214338191
Sn 12.742383417912357 12.533361701211188 11.417024794421648
Sn 10.556958906704558 14.231872681643743 10.13265911988597
Sn 11.365350480954056 9.467391398534739 11.779260847199307
Sn 8.292677796572125 4.94851260840043 11.161603670241231
Sn 13.6582932341049 5.192789672809288 11.443141490179702
Sn 8.891234317213607 11.51217624083741 12.368773170570291
Sn 6.347201052281066 12.927004198954352 14.221448335566517
Sn 6.4526963263259125 9.858080353269578 13.442769418589426
Sn 11.119867965365465 5.443355382455336 13.23621434509979
Sn 14.054738674242925 8.396395103279538 10.90290831895337
Sn 9.315789007963662 13.8589710571956 14.341388612841175
Sn 8.765464086921774 7.711980683154286 12.579190527234486
Sn 11.570911547314552 11.664544217726982 14.23113747422966
Sn 13.487935288891919 7.3323833376370855 13.701288142916816
Sn 8.471037157495926 11.054446435734299 15.481047689473455
Sn 10.82724810338952 8.679799217130185 14.695657450766477
