41
Energy = -144.8922888 eV
Sn 9.281666776728931 9.746823919460178 5.511835186201458
Sn 8.971347555890848 6.206971962441972 5.862099339766703
Sn 10.447083669415973 13.037562843804889 5.141751726503502
Sn 12.089227386850023 10.48714682451218 6.39754952101042
Sn 11.179750320264432 7.55080767800679 4.352684157179199
Sn 6.129056725561061 6.717332054568821 6.510980885130491
Sn 11.782017773857065 4.838167550382549 5.897830510794964
Sn 9.783053256827287 4.734737718997831 8.428124265874464
Sn 11.53057962547559 14.083355446743106 7.786971501202154
Sn 6.231859107907397 9.618966693236116 5.697304235110158
Sn 10.692199125155954 7.828794090609732 7.785418609961194
Sn 8.862460849168913 15.31256657643785 6.683422684261717
Sn 9.223791020470276 12.073056564449827 7.87323614879961
Sn 7.367254485350238 12.825044226947227 5.4708394808309615
Sn 7.123480361002217 6.355169617569849 9.33763512901273
Sn 15.412399331007139 10.954022995744353 10.877029000986571
Sn 9.219343710301715 14.523644730561085 9.7866906500074
Sn 13.503783090362589 7.493432560438446 6.428839616879769
Sn 6.5776382506854905 13.894018583002241 8.293723566077896
Sn 5.203181224034787 10.953137002505674 8.245992951098238
Sn 13.104357143063865 12.540796474894703 12.149318818681412
Sn 7.709837459903836 9.143241188600625 8.364687967650452
Sn 4.849638765564027 8.644403196867067 10.613501363537367
Sn 12.610354823033001 11.34444610875569 9.348384513404321
Sn 14.045347648408333 8.548893597934232 9.398066603292666
Sn 12.628548267356352 5.510233681488687 8.817363651704609
Sn 7.249083479781756 11.725065606235095 10.551082620160614
Sn 4.962226543886913 11.051124980780564 12.446721080736436
Sn 9.589661299068126 6.249663240673528 11.418208524300335
Sn 7.771087378753831 8.920397542770893 11.77157006756584
Sn 15.722787102086487 8.074708376079363 11.896715662070442
Sn 6.116479384357168 6.16551280361582 12.26656572570758
Sn 11.088717974329473 8.853077834296462 10.731341235244217
Sn 13.417395354112978 9.655882437982411 12.960977908752396
Sn 10.232447644975018 11.749240765344314 11.468769701867389
Sn 5.110692399779695 8.211516145620546 14.167442399290774
Sn 12.996779818433067 6.660983826152695 11.73441787442534
Sn 7.4936153798196194 10.432960158753115 14.598845893580156
Sn 8.205251741425666 7.281045469732093 14.30528648610449
Sn 4.7155908716841894 10.865779509839713 15.368453509568907
Sn 10.342250223301548 9.709591762602072 13.825643575106657
