48
Energy = -169.25439713 eV
Sn 10.655490284743658 10.516788294058559 5.346014878217125
Sn 15.043216494934878 13.9334854284752 7.25816728047599
Sn 12.150210786179967 7.937209708533097 5.798699690307918
Sn 9.218081255403783 7.102261139004329 6.186939124130283
Sn 12.342298110712168 12.167071422822502 7.109630452560076
Sn 14.782162329876906 10.722310974126996 8.269095491724586
Sn 6.858450058860393 9.294131174184978 6.746930346536747
Sn 6.004557318848508 6.575633067318144 8.025800598389148
Sn 9.367734359371756 13.929849087679266 5.963659212465153
Sn 11.66108442512539 5.4928137015092195 7.407376623483877
Sn 4.0436230505891855 6.959466418551776 10.29810544263024
Sn 8.880726268507109 11.328709252898475 7.610627299427322
Sn 14.143246785319183 7.357877577481366 10.694278673386895
Sn 12.17162545338032 15.15129983858862 6.4395364227546565
Sn 14.86565624181115 15.33711739559969 10.05067014299365
Sn 8.634219035666423 5.059229416078099 8.583501674211997
Sn 9.706251297755932 16.17318946257168 8.13887265530481
Sn 12.258094445742822 11.297477937751344 10.054366561477083
Sn 7.478693488239923 13.976650043454105 8.343523081942886
Sn 16.637764052888663 12.750345371299211 9.4935893216882
Sn 5.3606739329871695 9.51137096775424 9.395534665267633
Sn 11.926760834786169 8.417676838912405 8.681023179343972
Sn 12.047196702790938 14.493327297729943 9.449562196850083
Sn 8.673670200103185 8.221379584107762 9.04630644929341
Sn 6.973663331238432 6.307848671102604 11.064977492806271
Sn 5.264965129453115 8.77656535479023 12.461705995588359
Sn 14.806517291532282 7.954227842906556 13.651018308063938
Sn 11.00990366822805 6.081961058838146 10.468884550867864
Sn 9.229190741973925 11.694162797836215 10.537877593249993
Sn 14.972728744773319 10.734422054404673 11.511592589739573
Sn 11.388909730793959 16.008424061438088 12.453759403923879
Sn 13.025890209089187 13.379350037047836 12.23156455037585
Sn 9.19560915051685 14.640755390028245 10.78869564931695
Sn 6.272341333485266 11.608750188782809 11.342384774144335
Sn 8.279759790491632 9.090947530166769 11.99301552304574
Sn 11.981494166107362 8.808514639177119 12.291348639474315
Sn 16.036636148269054 13.633164114938724 12.290248896643456
Sn 9.914011564543689 6.768361522350945 13.427496508019559
Sn 12.894228298204546 5.5112065270418125 12.830865038075922
Sn 8.824204494815367 15.187971574207173 13.787352792921432
Sn 10.49288790290113 11.374602569361896 13.44532713577678
Sn 6.330738728501266 11.116809471110686 14.354687324172742
Sn 11.40322697879607 13.890040253271362 14.977544130744194
Sn 13.454593754666755 10.629101491010434 14.539884987012563
Sn 8.646885464558554 12.662319669940786 15.621255345185842
Sn 8.790972200734428 9.347288743551195 15.129427089452065
Sn 12.169967070762421 7.7527180858619715 15.251012442647035
Sn 11.09328066075349 10.697908720158892 16.520355543702408
