40
Energy = -141.13710897 eV
Sn 14.492228166406614 17.229271975380886 10.35178083399574
Sn 11.818811554698058 18.749376385641497 11.196078187413477
Sn 11.96697956188606 16.650860616533762 8.784992244921122
Sn 15.489071377792484 15.180343916933811 12.485311219920975
Sn 13.95964050774709 14.158360011855114 9.047277499690047
Sn 9.42056234102492 16.674208197281498 10.607341165488965
Sn 13.482568311250366 17.67131848567602 13.352815792339706
Sn 12.203224822131983 15.229130826782011 11.567301387113803
Sn 13.856993858613844 12.364257684411438 6.365772091316927
Sn 10.373145745411918 16.89538703938243 13.485206882474642
Sn 15.61263041315727 11.690195795417862 15.669610849742947
Sn 15.619233832239564 11.001418079103475 8.57097992870215
Sn 14.709706597827124 12.28288819123465 11.439509349714697
Sn 11.157235901934943 13.503662707063805 7.69211476945309
Sn 14.92106999460363 16.067095659448135 15.342755067103814
Sn 9.148681230097841 13.663399328607516 10.965854458972366
Sn 11.912882616817482 15.539653616001013 15.836825419348823
Sn 13.814469079327294 9.224216409273101 6.679750519215979
Sn 12.59807892144566 11.145916674230387 9.231327316533084
Sn 13.532743965116973 13.449891122134739 14.31248268688727
Sn 10.833365918679597 12.599308936398819 13.248771711567363
Sn 12.929038876022538 12.313506027098272 17.297998249255535
Sn 11.146800887846696 10.713958107671424 6.244557223736285
Sn 10.014480510152529 13.164478003750379 16.478409936872744
Sn 8.453623415647737 14.389298586651442 14.134618307015018
Sn 14.145236044233254 8.517060566305188 9.80233697909049
Sn 9.572897470942767 11.09251941783369 9.06603137302089
Sn 15.065103149658528 8.985558758603718 14.50159961691565
Sn 14.296749380304266 9.544165207382951 17.51176928778524
Sn 6.986152112368516 12.252759114686244 12.540548031765773
Sn 12.900900097422738 10.003541631036336 12.521331665649205
Sn 12.053998970174062 10.051366233283346 15.474195455965598
Sn 8.569876771553352 11.045541206533006 14.919049138017549
Sn 11.34959547927549 8.346051249891586 8.436433300546536
Sn 9.303785214067679 10.192877970261414 12.068930132466363
Sn 13.93158386832779 6.8640956681396235 12.79214628255472
Sn 13.113999917307487 7.0552500404909 16.02566145585448
Sn 9.868961612772079 8.106664332361776 14.955440195771294
Sn 10.991478607676582 7.730298585715888 11.747388672869404
Sn 11.333850582710658 5.7129550115531655 13.954146043396186
