41
Energy = -144.29755129 eV
Sn 8.386155480185062 8.400477233333596 4.919087830173671
Sn 10.058355887053919 13.391545172851576 5.319406046160387
Sn 12.298139643669918 11.306541428244964 5.837447811807614
Sn 6.005098684306582 10.35573285249655 6.323047521921264
Sn 10.179576551452561 7.19786130824528 6.993361735394204
Sn 6.1082317150136465 7.1864295495233 6.694096534452534
Sn 9.262131084388217 10.679820343852798 6.659888825394652
Sn 12.854353567998386 8.617327069478698 7.4239486807591675
Sn 11.662746843659633 11.684381172093243 8.91497208201623
Sn 9.22044833090127 13.497872847001885 8.365942570423647
Sn 14.17468106894906 9.910667439890286 9.969185252709789
Sn 10.023965990089138 9.208695382177321 9.370712553407751
Sn 12.194987946194248 14.309527896595979 7.207304297186648
Sn 3.89617510360481 8.888735967417828 8.204977932595451
Sn 8.560590032036885 6.322362579074612 9.41244431856788
Sn 12.27093257508125 4.954784398000592 8.621616858429308
Sn 5.32960393198356 11.597250865903746 9.197465287408193
Sn 5.423732203997012 6.52497202560705 9.689180010435397
Sn 10.913692348781844 12.564925133944564 11.850304652215351
Sn 14.519253825811552 12.349151356582665 7.846381123363205
Sn 7.023660996965366 9.12572268750009 8.916851626928274
Sn 11.523763678190294 15.261690158543685 10.226735699862894
Sn 11.971280569508943 7.248130233734611 10.55334776241266
Sn 13.796219444371076 13.156148884385978 10.735225318605226
Sn 14.78611755367725 6.541125356549398 9.383964663623093
Sn 13.769976829442323 10.958769367892378 12.903903121767117
Sn 5.027282549250028 9.230972546359693 11.174157424971071
Sn 10.551707848314937 4.581270850058117 11.185280146746722
Sn 8.580664283114409 14.908643659320733 11.189451130553996
Sn 11.911990868898299 12.840888539418666 14.708435271052073
Sn 8.763219245193753 7.979746605911887 12.097074207184447
Sn 8.282951054312754 11.548308497563331 10.690397829476698
Sn 6.398750124473493 12.880254662669037 12.553812311730216
Sn 10.984544752071171 9.642267795235085 13.319220450397268
Sn 10.909015554749747 15.346008743375581 13.363709647458494
Sn 14.27405006472435 7.54581778487917 12.425477872125077
Sn 13.649345020461448 4.613858906665585 11.540684019106857
Sn 7.626723359708245 10.38253833446225 13.732459870940396
Sn 11.557070815972507 6.371429000383841 13.479706364520833
Sn 8.710066902389709 13.402499180388158 14.517003841942076
Sn 9.914974102589364 10.841074615925129 15.838557927309925
