44
Energy = -155.5786206 eV
Sn 10.837024532922396 8.879861690706239 5.078631498031999
Sn 10.416680629511927 5.847075320009982 5.446790581727763
Sn 14.00852698351597 9.103422177537375 5.484571116625489
Sn 7.662176111369441 7.325550032309467 5.29744506873542
Sn 12.470968305875248 11.768991422906975 5.72212203024432
Sn 6.788984318723935 10.43101516503272 5.06543037162675
Sn 7.726069922761998 4.445696475341524 6.2873926296557725
Sn 9.354934510563213 11.423631070145166 6.224299524289981
Sn 15.473293380038916 11.620160831039996 6.62226360124247
Sn 12.322537450992144 9.452704039562827 8.042397006935845
Sn 6.183768224554824 15.27998023113764 9.033311422305049
Sn 10.215041918235528 5.029956643652349 8.39518084238691
Sn 6.0672585442088005 12.965423742855187 6.892401009006939
Sn 15.32436113904934 8.892805579878464 8.296910613441229
Sn 9.697740419122157 7.88210439450955 7.761765328327915
Sn 8.770482555689691 14.456244558135577 7.377024725619678
Sn 14.511894016024327 11.565712174555863 9.530701302067227
Sn 5.690464674368999 6.342365335549002 7.698338765015554
Sn 6.847000283434572 9.162792509197098 7.769706563338713
Sn 11.075818306062008 12.147746461650556 8.794897785233044
Sn 13.443405224879598 13.764205568280174 7.773028297034362
Sn 7.677813333087096 12.276726705318506 9.33826089344227
Sn 11.278080874211565 6.714979163531625 10.947028275742461
Sn 8.903063521302773 9.593194711670145 10.365438784622581
Sn 9.004866895728924 14.772047874517686 10.431345067871252
Sn 7.000998404772313 7.060897030151802 10.51560185819918
Sn 7.421263859585274 4.221241154218092 9.36084923492748
Sn 4.314571437227223 7.315669001869939 12.044049844280451
Sn 5.750426343236333 4.625484322057641 12.371099165295146
Sn 4.5776492464387255 12.561149180756995 9.513576075535298
Sn 14.218626449738773 7.590232186692297 10.975322834152648
Sn 12.15894628526578 9.789392233041783 11.358853496184707
Sn 5.6676088884136275 9.948215483280002 11.02005285335121
Sn 8.775711967192041 5.068556548808031 12.101642174861198
Sn 12.451985399501531 7.3930943655014145 13.866671683733525
Sn 14.568755595490678 9.530346220847177 13.346747554429056
Sn 13.782793617887458 12.315662737291017 12.339535222396734
Sn 10.563086096078111 12.297470069597313 12.014423763752545
Sn 9.66143435913718 8.360369479941836 13.190178814086277
Sn 6.365031553391624 13.712350740822256 11.720797139462901
Sn 6.847911757377929 6.938528691244641 13.899211829940747
Sn 5.348675381379781 9.472629643002877 14.102085940578661
Sn 11.750943909425134 10.451486532997029 14.39863623248928
Sn 7.806432905994866 10.987940032616347 12.96909071154159
