44
Energy = -155.37566434 eV
Sn 8.066469565348426 8.680312400178886 6.763673454487759
Sn 5.434555681119585 10.191312914976328 6.625727560885714
Sn 7.946517869012302 11.886945752902285 6.842594001625638
Sn 10.69473352973923 10.506035844157088 6.561135729722338
Sn 14.718594323422632 10.17054773177729 8.056599751502128
Sn 11.163833864800443 7.594521810503196 7.454323815406102
Sn 12.718065700167871 12.44280689186914 7.773420010361058
Sn 5.714462601153294 11.412017553521414 9.41412425044205
Sn 15.849759754306723 12.61255385039719 9.55909143887462
Sn 8.532311213448768 6.416494644098444 8.772490336975485
Sn 10.797215933641125 13.232526892317939 10.020816685718879
Sn 15.79362464278371 9.338086382095835 10.864292484540117
Sn 8.947774298863632 10.659661008786797 9.524024983831552
Sn 5.933737415316613 8.272455507493884 9.050986522611911
Sn 14.37451652506996 15.40773767628134 9.204605536860317
Sn 7.872896051582952 13.648699318005166 9.303702502395554
Sn 13.870607379291641 7.3351885914562285 9.147675233077946
Sn 11.950533161049007 9.850115507460862 9.512404959011022
Sn 11.537459567781628 16.531766792082937 9.94250469764093
Sn 11.246506430972149 5.977341258719171 10.318344677463788
Sn 16.76055722258033 12.12498207685969 12.414735307802916
Sn 16.184714381922284 15.409169036584986 11.80065555399909
Sn 13.694165427775054 11.614621057145492 11.561710743118649
Sn 14.18496586215073 17.88913116843226 11.19305867187336
Sn 13.148928417775307 14.74190542887611 11.932061366503365
Sn 8.403376922815864 6.434596538491276 11.869129425836956
Sn 7.377166288840893 12.576118141238533 12.222085697442173
Sn 10.49731904765855 11.909593672722794 12.762401116525371
Sn 9.710369279168841 14.996425891975226 12.361054375494453
Sn 13.643424183149238 7.112272005320023 12.309589958221835
Sn 10.632929469969703 8.696356833343057 12.338589080817254
Sn 7.248513248309141 9.383865967534913 11.637838643878533
Sn 14.853097083275888 9.756191827694366 13.752277639465229
Sn 11.692208733134342 17.386871551355263 12.94829522163775
Sn 11.027513261972667 5.642365338560852 13.365001517083575
Sn 7.133734665330694 10.159735338084765 14.661052766328316
Sn 14.93847372943157 13.65924769666262 14.270026508394938
Sn 14.496205927776987 16.781476792625124 14.098125222129772
Sn 8.573649058662777 12.731262453693525 15.049473578258354
Sn 11.631825027881517 14.461649498679822 14.765175292315906
Sn 8.917089935139494 7.4344609989904775 14.775452138967724
Sn 12.216589063922315 8.099494308459642 15.005863479497737
Sn 12.620534325295615 11.491532781690168 14.954342432075249
Sn 9.985469057694125 10.076540396402509 15.97646075940217
