46
Energy = -162.66745923 eV
Sn 7.911545017236347 8.521159511951929 5.182256954358182
Sn 11.02287530762087 11.671066538188843 6.704236807092651
Sn 12.376073618091482 8.343780359424647 6.666772388395332
Sn 7.840614919576981 11.63803401350049 6.192018371312762
Sn 14.056675115434537 10.695368286915029 7.956688687327784
Sn 5.3072853982467665 7.021340850862009 6.15985101591036
Sn 5.152274527769278 9.991100820186414 5.564397428177472
Sn 8.182529587916017 6.268119993981108 7.452274490710058
Sn 10.146915132034923 8.743488883685613 8.634468534152264
Sn 9.089919279789486 12.608296117438604 8.904285892125614
Sn 12.95104930003353 13.92541564741712 7.689629969931455
Sn 11.866293392927496 11.7015821164193 9.862317788974284
Sn 7.107730544209927 9.191118331690914 8.159256423509289
Sn 13.558762782193462 7.7133377562622405 9.383031649529219
Sn 9.310561893946662 15.433342126295265 10.000252455130143
Sn 11.349746976413412 5.7825669582859085 8.052729032017863
Sn 5.4802974642333115 11.833321602755179 8.340036987826071
Sn 5.668512194854061 6.741030120228353 9.357118824286763
Sn 15.021067917674019 12.334404211210957 10.603234693873661
Sn 11.764551367833738 16.601828147258782 8.649306009958094
Sn 10.0957581880479 14.792422137424156 6.87100851126652
Sn 3.767332258710459 8.940332762418635 8.096154321577684
Sn 16.193825221509815 9.248850854196114 9.895673491554424
Sn 12.385108301965827 14.517788796429269 10.741298522040653
Sn 9.2732574580599 6.390498971372558 10.548005146416415
Sn 14.116527156974175 10.099432452381464 12.332205488973187
Sn 5.290527694499538 9.864368216421735 10.847044113992308
Sn 12.155848731966765 5.403211711306773 11.029144072764334
Sn 16.203724201928345 7.830296180465361 12.727757982433014
Sn 17.424678280041302 10.736569294166454 12.321613215132716
Sn 6.955294609901467 13.076385873198507 11.291977990266853
Sn 11.529583957759062 8.657851625586492 11.383686308827736
Sn 7.011400195772131 7.674214468225959 12.172374620338772
Sn 15.436490653818298 12.712275005670232 13.74974693950416
Sn 10.943413879563684 11.615130795300274 12.93284590712256
Sn 8.414997753180145 10.341017539321083 11.144380220139178
Sn 9.515843871891551 14.211517534814806 12.837629547442742
Sn 6.8685506336061115 14.11154363302633 14.230744231133656
Sn 16.21350002533805 10.006133408793374 15.029345034875002
Sn 13.698639154517561 8.075198517953487 14.565645425575822
Sn 11.025154556663457 6.778010513927357 13.559884756944381
Sn 6.49385985411722 11.045347543398792 13.678275576930982
Sn 8.865889941235817 12.169477002674249 15.352087329989942
Sn 13.068300345697077 11.155093143888749 15.142442514766799
Sn 12.559536625256635 14.180205954039263 13.775376097441267
Sn 9.121118729160875 9.400567688858462 14.022932247169061
