41
Energy = -144.36076371 eV
Sn 12.108681096809118 5.711838095795537 14.298688030406625
Sn 13.677437371620615 6.67286391761756 11.78007833466423
Sn 10.518911556364548 6.396104380670867 11.80533353978987
Sn 12.188619086692905 8.063299788320606 9.627786302987287
Sn 9.02936627240318 8.005670121032079 9.237971029548614
Sn 15.211200616836273 9.959855951390573 9.888214047834294
Sn 13.46672206793369 8.348063180341896 14.505212048551845
Sn 10.20664058449886 10.114882465517146 7.508738917344666
Sn 15.998180966684847 9.502434507889548 12.841863390665338
Sn 12.778105269333725 11.453412023228555 8.353138793999308
Sn 10.318338671716468 8.15174223051082 14.59360003470169
Sn 12.956402671364204 9.975937762755613 11.919806732619456
Sn 11.194233825099303 12.20857799551455 5.557576422406056
Sn 10.002207392944653 9.48371066787543 11.828355493909566
Sn 15.952900457618924 12.819130359187879 8.882016077754786
Sn 17.0685158999898 11.638271957363013 14.712798380716135
Sn 17.05202234113885 12.232396784289827 11.651007124081312
Sn 13.960564129949628 13.460997733152066 6.45988062619015
Sn 10.783188062582552 12.740004260287007 10.32185291640462
Sn 8.113937028148593 10.92225616337798 9.972770498715521
Sn 8.692715630897839 11.36228828251186 14.192456320221767
Sn 8.881704381326001 12.916416692587351 7.527228777185478
Sn 14.42618126075508 10.863555493709997 15.93105312741071
Sn 9.57369823578825 11.691353969165798 17.08646672105829
Sn 13.96529193364935 13.202501418197487 11.338687163916111
Sn 14.87081700536239 15.584719965588825 9.443898087513158
Sn 11.4803174994305 14.720782324088658 7.393191490465484
Sn 11.700074539809373 11.170969878772866 14.666407399819049
Sn 12.398519869980596 12.046847097786152 17.93992293363814
Sn 8.399678604048903 13.764336277819536 12.293594159604686
Sn 14.969425263590436 16.36225830272972 12.394858101868195
Sn 8.743726356458598 14.371862428268658 15.525722553087732
Sn 11.337864628764555 14.260537154658357 13.32176061869042
Sn 15.357539694904677 13.872916465491704 13.900992933111617
Sn 9.295424625168941 15.269998675816124 9.402865351709645
Sn 12.130701289851205 15.953070179964213 10.40017413219681
Sn 10.535863124943022 14.5197425911413 18.081749807370986
Sn 12.171131803615397 17.397746415276053 12.975131453171779
Sn 12.944164327630935 14.25325414163121 15.946924478213129
Sn 11.000864533109775 16.619052544295307 15.847382134428196
Sn 9.20089124855441 16.55893790487861 13.267535817723873
