49
Energy = -172.95132237 eV
Sn 15.997710969687784 10.854185639977413 7.639101547544303
Sn 14.18185495844572 12.772480518691975 5.9816360872413386
Sn 13.85503668562623 15.236746704493644 7.9474520022577035
Sn 15.759672991348657 7.347537732896474 11.504974888830654
Sn 15.985091042025669 13.552078331704065 8.937001851182242
Sn 13.26424868051483 7.090827098240059 9.112536352504561
Sn 13.153633907456015 9.8119312560573 6.793970203056911
Sn 14.743776854757266 16.312001125614753 11.959399754879406
Sn 11.148484775771585 11.787811596014471 5.33570988000528
Sn 11.508819853242803 14.701601193232568 6.093949702475584
Sn 13.123609036669977 17.595454798436563 9.54446763965144
Sn 15.930430948385883 10.06222510395744 12.931368220201607
Sn 14.58911041044952 9.645953713990808 9.915950769172914
Sn 15.911831572726868 13.34145695963337 11.991355922384763
Sn 11.858893985318142 12.027785137869161 8.40823741714198
Sn 13.15464961141561 13.907738831214036 10.72574758997786
Sn 14.741007752838952 7.437341313854346 14.398217521390208
Sn 12.681565700069108 6.753447377811832 12.04249805907312
Sn 15.283356165029316 9.941583218009423 16.043322124857127
Sn 10.497062374663924 8.079739788650027 8.506139711465394
Sn 15.633007827298798 14.8837052000465 14.772686183322099
Sn 13.13850239984703 11.233545550652233 11.977063212089472
Sn 13.808773559563097 17.35569829941537 14.681192615881363
Sn 8.96382195348207 10.404819599938003 7.274192909673652
Sn 11.483153225196663 14.359027708678633 13.451955933786358
Sn 11.21617552725913 9.157400344430474 13.147414445202934
Sn 9.299213305078517 13.453278742408495 7.7577648243488335
Sn 9.972364890733088 10.215883177181485 10.452096552066338
Sn 12.221213290367501 5.835120568989459 14.984104927707348
Sn 9.69767481356175 6.357747847914723 12.671678938988146
Sn 14.03808384263944 12.28215702807702 14.630577138284519
Sn 8.07009552470095 7.484936266466994 10.170126817144762
Sn 10.828628853080504 15.517547048747844 9.744505989285535
Sn 12.28264168191954 8.859924441287133 15.925919644784463
Sn 8.723787297106252 12.986382703946699 11.07429332295789
Sn 11.774891558382679 17.620553693906537 12.41722291632798
Sn 10.655007472466446 16.79881108233827 15.291747955572284
Sn 7.071155018490392 10.310653310384618 9.742443641912748
Sn 12.630416815654625 11.63600589692666 17.305307176809364
Sn 9.705184759871914 11.781218626900747 13.70451742871636
Sn 9.518021755520017 7.592515283486486 15.446809986034548
Sn 7.882899626903409 8.960612173211338 12.927309744546598
Sn 5.733637441078154 12.659916392964842 10.960250717864966
Sn 12.77383206224447 14.739845364654242 16.225772649549032
Sn 9.812224410901534 12.222085913941045 16.600592532503775
Sn 9.154717961886144 15.981524809646245 12.4670511164753
Sn 6.743060458407559 12.438498278327918 13.737988873561635
Sn 8.400136634896572 14.53407483663368 15.170959753792145
Sn 7.649888616258806 10.328643229387929 15.725475666755592
