45
Energy = -155.09142302 eV
Sn 19.59265301413132 -1.3488981462481084 18.373785548365788
Sn 23.28410290355586 19.981573004487498 22.71089607283186
Sn 0.18854381053408287 10.953298790907976 14.563118869803285
Sn 21.126055888224887 21.845317180695538 19.91469868551415
Sn 22.64946671671416 20.876770926486362 17.604416336700442
Sn 14.1064971780456 17.292795778609335 17.010504402461738
Sn 15.673992013630519 18.836840836172364 20.45182918345467
Sn 13.783440973241047 19.90710075954789 -0.20491248222663194
Sn 14.950133043464376 21.196668644471128 18.55671558141499
Sn 20.68190549813805 18.81935434730474 18.666885887369727
Sn 0.49532254582880425 18.615385022685135 23.55709188039577
Sn -2.6154824610365077 -0.4173305267431185 18.953050846685475
Sn 20.44151331622456 -0.7403824077466667 21.32020066426757
Sn 14.639923695305672 17.154671396332787 -1.5628602468313948
Sn 15.118875655827217 20.037622463554186 15.810488183111007
Sn -0.6562611757657016 1.8331930179262024 18.422585555020696
Sn 13.527734963549703 17.197644488033163 1.1278242328184969
Sn 0.2844233870631497 20.097101632278367 20.889427259359298
Sn 1.369557647989038 12.431404683030664 12.353842693066202
Sn 12.836398501437694 19.43241435740531 22.37612550821219
Sn -0.18241555666481607 24.502493128928347 16.930440666121775
Sn 24.265137008176215 13.400484713176278 13.110594910168231
Sn 18.19008977729917 21.32063915053435 18.850880026097364
Sn 23.00253354743112 10.432826637863414 13.400974996470238
Sn 12.589039475437044 18.712670328633095 14.996852437551835
Sn 17.036382185455555 18.668241334638235 17.806172028552208
Sn 0.5616988772698973 -0.31650543807047976 20.062551083617805
Sn -3.1605717343645447 23.63312788665385 16.415443548597338
Sn 23.185833603804674 18.423806561137933 20.229616391711453
Sn 23.4718139953196 16.925270945795347 -2.4944329590194685
Sn 12.27130788798106 19.91409347990586 17.643323286095846
Sn 16.369917024425305 19.829646551769613 -2.2265119571014442
Sn 23.69860701004241 23.554771185514277 21.723617067476393
Sn 11.503469563481817 17.692019820709508 -0.9406181322093895
Sn 14.748455885510243 21.88616991715109 21.492771735752612
Sn 20.919723250014805 21.832174183756848 22.945607407169497
Sn 17.81294136235066 22.580225657471228 21.70388393638733
Sn -0.577060188537104 22.330311741664417 19.087528523519516
Sn 19.24481536335996 19.76596040324142 21.3798518040372
Sn 12.503302022758508 16.084988365141644 22.068577178053033
Sn 23.413353545673704 1.240197377830134 21.2799367621466
Sn 0.41103679332752874 17.044556552850537 20.87048472359373
Sn 12.934307720374266 17.90480858358344 19.754045138327893
Sn 22.27390050385779 12.805273906933824 14.942407714309102
Sn 16.36596307482232 -1.6228854093155958 19.349417941542523
