40
Energy = -141.42507889 eV
Sn 18.90788532024117 12.274281451791374 11.168176437227205
Sn 17.365746211174955 11.676236700860963 13.802862299855224
Sn 17.067944036966242 9.871171587415068 11.124696447079431
Sn 16.590763859628115 14.04149690886873 11.743516350189395
Sn 16.071450962337735 14.276796094452655 14.582815929792105
Sn 16.50057595776225 12.259177272072938 9.14464310664216
Sn 14.854552180378782 10.135589324068915 13.551265984734645
Sn 14.321883662876273 8.038508609110194 11.524809464610879
Sn 13.961192030920953 11.685025732888912 11.232190201245956
Sn 13.145438800192226 13.758083823630267 14.86853100811078
Sn 14.63901138683253 9.745060351842842 9.026061251636873
Sn 11.50531271224358 7.984733919913241 13.763169889051976
Sn 14.227996388431333 14.337863959645901 9.94206727406128
Sn 12.209991310932319 16.806723876816392 15.321480211473899
Sn 13.309110637736987 11.902099102040582 7.058176092233178
Sn 12.646157005207113 15.539423444224843 12.488374590978635
Sn 12.32338335246132 5.87659346581436 11.790897607106308
Sn 12.123057084437662 10.81985934090397 14.866656911915204
Sn 11.040771262010182 10.480210017926213 11.889457722636742
Sn 11.126188327914534 8.01343080536723 10.135577893582768
Sn 9.747047848535498 10.296722554204019 16.637812235333243
Sn 9.078994842401624 6.585821736567896 12.410154257091236
Sn 10.89150770624926 11.771943098194848 9.096474277721521
Sn 10.633327692203144 13.270358316971869 12.956742642537275
Sn 11.629560224116391 14.499684986318158 17.32509010988293
Sn 11.642021473768652 14.405374187209453 7.8283506617547225
Sn 11.388741450231297 9.389724263277058 7.260190110715311
Sn 10.059896394959726 15.034272113136906 10.540789697714342
Sn 10.457896395140835 12.179431233584376 5.830326444265828
Sn 9.890211315011902 16.987736357891816 13.281380447473442
Sn 6.497800531772127 8.336075797265702 12.46813454317648
Sn 8.752881288608425 9.316317096494396 14.03283943255145
Sn 8.119571372877223 10.747678739018516 11.322767178957896
Sn 9.297240193905731 16.179943671098307 16.204095417978106
Sn 8.071683024865294 8.11065735962789 9.840620304026197
Sn 9.412867834616456 13.097946693548407 15.826417997462231
Sn 7.340931173184081 13.619521326273698 10.851315254271297
Sn 8.523644430995954 10.43459518602966 7.624458350523852
Sn 8.012447808314633 14.632780701594912 13.72226948265959
Sn 8.609021382165254 13.509172513144366 7.864948161455984
