48
Energy = -169.65957213 eV
Sn 15.453532019281315 12.202544743326671 5.063328535917614
Sn 12.427263114431861 11.762132521223348 4.838493019420628
Sn 14.21652710529304 9.419769689677361 6.037216122161118
Sn 11.240484511066656 10.050629193587971 7.18254331167149
Sn 13.359219753010631 14.453543002209386 6.120638560975608
Sn 16.94389064814998 10.708721736287544 7.188182267640394
Sn 11.554216175882074 16.06352635912828 8.121890014448098
Sn 10.631897877578924 13.171931916033554 7.20639480652691
Sn 16.084026063757875 13.893659445484108 7.722301214815894
Sn 13.897699144746392 11.797612989205842 8.014926931771281
Sn 9.217752011579833 8.478870197651647 9.522920698785628
Sn 7.727928795192553 10.991601071786386 10.4555874180988
Sn 12.454482487032353 8.624059668692391 9.721397984357415
Sn 15.554952975135052 8.995970713555694 9.40100538204443
Sn 9.777378321455837 14.425257311639369 10.327100256280696
Sn 14.399340875544452 16.473108335564906 9.530697488410475
Sn 15.58897761401248 14.4264059467431 11.598982417216545
Sn 11.608313175287226 16.720312386506414 11.229323308633276
Sn 16.80079221676694 11.929603617935712 10.149282440985367
Sn 12.780161871337118 13.910530031955759 10.199869663399646
Sn 10.773709650409435 11.36001812672723 10.021285522650446
Sn 7.806728486666319 8.411372061149542 12.211350771564696
Sn 10.643532753184623 7.073723261010573 12.13584956356621
Sn 14.059199429638971 11.108343740099535 11.352645991478406
Sn 14.315359345594874 17.18840979200184 12.517136273709461
Sn 13.977084933272963 7.868591467931244 12.411067428494825
Sn 16.59151285357764 9.478900930270266 12.42324715932733
Sn 8.709113643833678 14.539037665761972 13.340267797823596
Sn 6.392293479753039 12.618608849199921 12.911810135751537
Sn 9.201377507202332 11.404314094467859 13.094866097939418
Sn 9.528194589811632 8.068106426559574 14.906797249770982
Sn 15.615546309215738 11.978486516751524 14.115546920974124
Sn 6.85151948450249 10.212830216447975 14.735935708896744
Sn 12.608673364540007 13.191827850004278 13.312985435906707
Sn 12.420222127340455 6.645064121070079 14.813520202311944
Sn 14.808127133457342 15.01879207859411 14.640629976525375
Sn 11.869151142413463 9.800801961794136 13.723027816023476
Sn 14.595036218360585 8.947282008984043 15.293261105810577
Sn 8.803495749833111 15.997794251263377 16.19881989034147
Sn 11.877390355230597 15.966590345793177 14.382824343108059
Sn 6.948032501606377 13.494664101833825 16.041357193815095
Sn 8.577579600520234 11.048695653361412 17.228194481709462
Sn 11.724771666263395 8.97941590081338 16.819903606131195
Sn 10.16836066377998 13.132800774549947 15.725787286848282
Sn 13.177084924461816 11.711027419148222 15.99211055107056
Sn 11.325906489627723 15.09815318623009 17.71105367660984
Sn 8.580429684391515 13.91341384208947 18.60804116989727
Sn 11.187271842991219 12.098685165920449 18.554137486405963
