45
Energy = -159.13662245 eV
Sn 5.201720025175633 11.198424298543793 7.9882404741257655
Sn 8.370817945910112 13.753269340406328 16.136098399089196
Sn 15.080989293923032 9.072203985307173 12.382033630864813
Sn 10.522204317034564 8.807822994738867 7.3058042004825
Sn 13.006979907903029 11.558866927185402 11.788613520815634
Sn 13.181950822874535 10.678164189579434 14.894836030529799
Sn 7.017895216621513 15.640288234381616 10.485625053525343
Sn 8.02319666024993 14.472477645386158 13.180145353125745
Sn 10.79502541160137 14.970871812594238 14.342370429691144
Sn 13.107159566914154 7.09827734464969 14.273913144788816
Sn 13.966006872888913 4.645622986636111 12.335045527286345
Sn 12.61363087724581 5.587119709703019 9.736108011350796
Sn 9.95590885941048 12.126246359647391 13.433774529102378
Sn 11.708017663881357 14.931567974047638 7.246106338191052
Sn 8.873930390017408 10.689034012090051 16.239367189740218
Sn 7.929914916820857 12.07613896344405 6.815411310117537
Sn 9.931276794047067 15.689941720308704 9.720551198892732
Sn 11.38900736610193 12.87364230431532 9.58823468676948
Sn 10.546752351616137 9.226482422559345 14.152218518345238
Sn 5.661619100890967 14.156467381281198 8.049600444868956
Sn 13.514586236452761 8.30339752852493 8.615322348665345
Sn 16.376824140270195 11.210882802738382 13.923384628583245
Sn 5.644306263663372 12.626649978607647 10.909435083899755
Sn 12.561984295442352 14.923598257005393 11.51694517549355
Sn 9.736129825801887 9.932407518248736 10.042657139836184
Sn 8.400810758733332 15.338880475774648 7.0514260587092314
Sn 8.640320827021965 7.852589749929983 12.124392350171473
Sn 14.498660917582436 12.591627055234717 6.779387462923323
Sn 16.16139437913721 6.469645800102033 13.569075810346469
Sn 9.954097797603882 13.448396951660888 5.148622412862752
Sn 14.282884910304404 13.524381130940771 13.759804124188157
Sn 11.666391135360445 11.654360513447873 6.891980810521044
Sn 14.767428960585274 11.017759581958858 9.255246852130114
Sn 15.971639833029588 12.849289754658418 11.265971758346385
Sn 7.530325858048577 9.076203809774666 7.751062986570807
Sn 6.94405679639745 11.787189202801141 14.126476150966498
Sn 14.301696634133139 14.484618583578849 9.064640261819797
Sn 15.539075493740105 6.736701502105358 10.494531452835655
Sn 9.703903215131408 6.717711310933836 9.55751403154019
Sn 11.045778959330194 5.623468199970688 12.497024031978423
Sn 15.347143830545932 8.684674573487287 15.600999502844957
Sn 8.327759398921245 12.921695471988354 9.597699305295956
Sn 6.707265274733345 9.765238320947605 10.601804705302634
Sn 12.115920482849678 8.422150328131227 11.365573422588646
Sn 11.285008665901143 12.692950242491614 16.304323391725354
