48
Energy = -169.7732485 eV
Sn 8.772646927176691 14.438334865163153 12.197899919452038
Sn 13.526987048518771 10.962821487757198 9.214720483637624
Sn 10.043167005661763 5.000991437385302 9.604954509596007
Sn 5.573057483148399 9.883507716274973 9.256980650249242
Sn 9.694080043260376 7.399726010091372 11.596952956822905
Sn 13.4648988736906 13.723978605741552 14.469199528869147
Sn 10.92280651525013 11.009594583913518 6.245141142588402
Sn 11.528450814921673 15.22682470126433 6.524703964112059
Sn 8.88433501435374 6.218667426591435 14.339371153896595
Sn 10.015359331144486 9.25047225981581 14.066469573511078
Sn 7.213948010120593 8.674318734903986 15.391917357211028
Sn 11.870188236318821 17.383288569904487 8.795510526675603
Sn 15.998485735584795 9.574314949048873 10.41002165223851
Sn 9.749703211090308 8.275522364080757 5.306984535436595
Sn 16.519269036167426 10.294104484951296 13.345009946277544
Sn 14.092490921053388 7.3953038739246955 9.66397080810861
Sn 12.909374952411628 8.673658043184888 6.948359174981137
Sn 9.810528797862288 17.193063781911373 11.464358232865795
Sn 12.572636706660656 9.197771817020188 11.63221150437655
Sn 11.183828726764288 12.294839407676347 12.625859660043142
Sn 7.325319981861973 12.969544633387656 9.464126803334093
Sn 13.786093200664947 9.74654829177206 14.430597367950813
Sn 11.135763380168346 6.190911171653144 7.034465110746419
Sn 12.403416620913866 5.683968026921463 11.389230388559609
Sn 12.291678319330225 7.020949640314921 14.076563685328189
Sn 14.483775732387835 12.159277460516366 11.965259181709422
Sn 15.303713078211855 7.4748278174263065 12.664659118168425
Sn 5.323139701165682 9.305985466625357 12.964831693099981
Sn 9.460333669801424 15.281565374473287 9.067531419812326
Sn 13.804628322756834 13.16949740258738 6.867209510160835
Sn 7.862808579224175 9.997948181917158 7.027814222043751
Sn 11.748799880135534 15.537587289195372 12.861872654554327
Sn 15.47987766119191 13.859003700858706 9.532568551211353
Sn 11.545998873181453 11.598290791803851 15.598768557947444
Sn 7.726923561531463 4.90213665452234 11.740417664621388
Sn 10.156654947077424 14.188487629515446 15.0297456050381
Sn 8.069480717271611 10.132230112785626 11.075001443169521
Sn 12.360415558413788 14.206206005356767 9.418661278536366
Sn 8.787431057705778 13.104546784600135 6.755648249179311
Sn 10.342459431508187 8.757784237625788 8.623334844080569
Sn 8.087745886070365 6.936377636449073 7.63105126182222
Sn 7.676654813134231 11.503556170551898 13.717967221322398
Sn 14.452741441047689 16.0896145985343 7.563928091523773
Sn 5.461491872332469 12.023238165676787 11.628789900988513
Sn 5.811503781245307 6.44524473327445 13.684522009650188
Sn 10.262446558212046 11.825449464431145 9.465296518973913
Sn 6.329229479992498 7.365488667453953 10.716527082146769
Sn 14.03976553020756 16.319163797071322 10.769548311277042
