48
Energy = -169.47773274 eV
Sn 12.392373858184715 11.655109774038008 6.4222783138333
Sn 14.770093009175806 11.500141597596782 8.119147238367098
Sn 11.492319260468769 13.97762643302073 8.14239777511211
Sn 11.660132572897998 8.98918144852101 7.497808392918347
Sn 7.369493331612196 12.016960083717692 6.845474140335789
Sn 14.21984467698818 15.251124751547719 8.753326994042178
Sn 8.701206156477284 9.527096850125236 8.152941919300616
Sn 8.517323771248344 14.658583665973975 7.787393433249554
Sn 5.518416791781841 13.50031525841436 8.666926591261708
Sn 13.582734934990352 17.67324724929201 10.407280763736232
Sn 15.761300440357497 8.650137884120134 8.018804522303165
Sn 16.54366484379166 13.468633154765106 9.49569748655796
Sn 11.756142960708944 11.380859112290697 9.57094216955668
Sn 5.838200715965754 10.471519682953838 9.312573566484575
Sn 13.429209291358584 6.9137183565443125 8.976203690930998
Sn 11.005682824070256 8.624694386601885 10.566138779704021
Sn 7.836458363974131 7.9844251015848835 10.63447945503704
Sn 15.348018313863346 15.568405886564346 11.72219550978098
Sn 13.880154947549359 12.84993593888488 11.288851511775107
Sn 8.58858904565983 12.260685421149729 9.811572090735885
Sn 7.5725132007419145 15.155480844168746 10.59406922773109
Sn 17.658158803633356 9.414222157863039 10.312183466810518
Sn 15.928116707164332 6.630967235518381 10.804449321449823
Sn 11.035642322273114 16.111365383046135 10.379509513291229
Sn 14.433111212134065 9.695405769296006 10.675422662682664
Sn 18.456266545447452 7.235350545169214 12.201182143561779
Sn 5.997771622388584 12.640765194192388 11.61545474366068
Sn 8.208204420592086 7.3614514581251 13.60626811724337
Sn 9.190507269000296 10.267748228947742 12.790287906382924
Sn 16.603096955494426 11.737355171684424 12.123850697242872
Sn 10.929188108825015 13.989153404103467 12.56724119417749
Sn 6.041805315328763 9.574944548940026 12.486022018621036
Sn 9.098960540030289 16.871739942931672 12.576960017208755
Sn 13.312947775978971 7.420485317005719 12.38856541027132
Sn 12.196155590414332 16.91077077265213 13.195894478943034
Sn 16.173671653010885 8.800712784030937 13.23582341444514
Sn 12.257322883111875 11.237862193024288 13.850658474306513
Sn 6.952028449419365 11.684636662766541 14.62329520053743
Sn 10.82653987665622 8.1155519472557 14.735261844775339
Sn 13.895404441820213 14.34222471800444 14.243377319669726
Sn 8.440036394601242 14.431574858904161 14.293220725708288
Sn 8.355585158672243 9.340435399185916 16.154311938784254
Sn 15.110168633981324 11.609075917039528 15.090338624083481
Sn 13.746100186421197 8.806977991234632 15.296279644213092
Sn 11.2433333605425 15.082996115128692 15.61307399909306
Sn 9.901944378188103 12.084376237136803 15.844507585112398
Sn 11.232584606573461 9.685767028569277 17.31900097015008
Sn 12.68100405461788 12.527730714555481 16.880585573008027
