40
Energy = -140.79768359 eV
Sn 14.609534044647823 9.18268712608615 6.619864643636346
Sn 15.740132484167253 11.050718168930501 8.90778577567665
Sn 15.936187089843594 12.959304100594068 11.680138312954426
Sn 16.26867778659458 14.639916517593209 14.446954217154195
Sn 13.269274366708432 12.026736734520714 7.177474805628961
Sn 15.301382128153744 7.9572212424154065 9.421426971323141
Sn 14.01637370882516 13.933244622794424 9.498105523686418
Sn 15.309150727823218 9.909559652198777 12.06386568470062
Sn 10.607229526334775 14.852405856249996 7.577957809986085
Sn 13.798905349829479 14.978075472868891 12.822570065677297
Sn 11.856114284969651 16.178202524760767 10.323692217317896
Sn 11.479470322313732 9.382661625968625 6.4452735350093056
Sn 15.693408268746259 11.717628989067547 14.639327156425738
Sn 12.65506623734636 9.901977842882417 9.353318428243508
Sn 8.969521128170499 16.824535808413017 9.23975336010474
Sn 13.747977547599602 13.884298387098372 16.0097172047667
Sn 9.681034417235521 11.879151985148196 8.082302780517809
Sn 12.752821315290486 6.876723573256801 7.8810571670656335
Sn 12.946980117821058 11.766211479592583 12.292302729555802
Sn 11.388373390483297 13.656301574976792 14.096631674277884
Sn 9.446616888571556 15.45675684271105 12.087532517810835
Sn 10.805718964899425 5.297753377801448 9.96065575923174
Sn 7.56031265101076 14.197891844771554 8.107480901161875
Sn 13.093708582295593 8.467144493505085 13.807545897558027
Sn 6.984994355216977 14.775822953812735 13.467403929503124
Sn 8.39272982478912 9.589992001332714 10.142385637658451
Sn 11.039337355619224 13.20759870778219 10.305021300128796
Sn 10.704832373121237 9.263599545211402 11.908956604033463
Sn 12.776195106208633 11.0400300287388 15.502736264742513
Sn 12.879937860304297 7.097914253983563 11.106390717511292
Sn 9.718454644850866 7.662722553507229 8.238857221690074
Sn 6.508002065393058 15.747649522029677 10.589489471159663
Sn 6.945560815364638 11.72465169249166 13.40353805510111
Sn 10.014840527928035 7.6437011259158485 14.541649983877347
Sn 6.283245673861425 8.98574609563862 12.29285434451826
Sn 9.770154926425752 10.876585777994693 14.173254985717506
Sn 8.884850855173454 6.828496489867705 11.730023353971635
Sn 7.949087208091357 12.917555411921626 10.86972263299888
Sn 7.055586391704718 6.665928936654665 14.091025809458216
Sn 7.455501404781087 9.300308077995881 15.392533100905117
