47
Energy = -165.83639391 eV
Sn 7.967436716866545 10.788370920770987 3.8411443997882344
Sn 11.066118848738776 10.466639730011961 4.271786895591796
Sn 12.879181947185888 12.830367348864653 5.568009526875882
Sn 6.593457234407309 13.22485213638438 5.1976422110769
Sn 8.740502878640442 8.045747078322236 5.2759774119296585
Sn 9.73478513035176 13.183401384049889 5.273396955051999
Sn 13.772040083103136 9.801279727236068 6.019642010203561
Sn 11.5081241376606 7.733920858301816 6.380532161292816
Sn 11.158108301519313 10.883346641437772 7.423021205218203
Sn 5.489231122466866 10.350986938077567 5.689774686601132
Sn 11.52657725439285 13.839679175461962 8.193220229074488
Sn 8.566899525104507 5.0009157776821915 7.921502521382062
Sn 13.986004712961147 11.902702337164662 8.587573049589635
Sn 8.166897526926464 13.990749703763049 7.934146556590628
Sn 8.10835507507961 10.937899874574535 7.134938921025367
Sn 12.342076884777338 8.868285729749994 9.5967522887118
Sn 6.474727136532408 7.038840616497592 7.035109301692796
Sn 9.061455345356988 8.106629099988746 8.55985247315521
Sn 15.44622344655864 9.293408812134762 8.595317291623736
Sn 5.4009806531262665 12.487998472456805 8.00492761727076
Sn 11.386485698443028 5.750910914433414 8.784546720732143
Sn 5.549031445704486 9.331889762033246 8.874645414896333
Sn 13.286822369169064 12.884116128730756 11.663709317192515
Sn 10.487847031936493 11.779037427077117 10.547685621437465
Sn 9.076310631072202 4.435655591740517 10.915664981761376
Sn 7.288658705307169 11.522705965285228 10.373376610267755
Sn 9.650918992577113 9.39800633910196 12.441173625277521
Sn 6.647931253390022 6.157128828374332 10.202242103028109
Sn 14.690180900539588 7.7238449214988 11.336236604622563
Sn 12.379230112340048 13.223517215153674 14.88107986334836
Sn 15.901091456637428 10.611074971978601 11.436822618079663
Sn 5.035956576084595 11.10172750016616 13.152008839596952
Sn 5.533248878157462 13.654425148766634 11.626418530774695
Sn 6.676600785773605 8.910188201509511 11.917827896950667
Sn 8.542813494527014 14.13092660529678 11.65939555090679
Sn 11.076289976908967 6.742498020047634 11.695831447338477
Sn 12.942509719102272 10.02973498255236 12.508008313212857
Sn 8.219630029425296 6.44182341483315 12.99766901177601
Sn 9.708185730192953 12.24638378093142 13.69109235217464
Sn 13.30958442387845 6.441456297340999 13.816601244011034
Sn 15.356135141336694 8.911966985943108 14.261302127447003
Sn 6.929551086713522 13.308004079354909 14.373586108525483
Sn 7.569434490599674 10.275700592557623 14.797857617169607
Sn 15.154673779466444 12.03729909624212 14.136490563803045
Sn 11.576176902378927 8.664374861335643 14.819224180620191
Sn 13.577631201014876 10.627486782168573 16.326154748916064
Sn 10.620245986215513 11.044453983265281 16.42144103303466
