44
Energy = -155.86957753 eV
Sn 5.979272724968644 12.0428120273358 14.461654612070635
Sn 5.673850976695901 11.553961486139091 10.78905867744134
Sn 7.906207078279338 9.865221256872813 15.349709234060102
Sn 7.0504304075987525 14.849927735707679 15.04658847274468
Sn 7.961528074028104 10.373709417719823 12.380602612243367
Sn 8.07738718486813 12.612341433838642 16.822643203655844
Sn 7.563917098974248 13.586092216918802 12.258767814883637
Sn 7.489897197274503 10.116811013188826 8.763400339097352
Sn 7.253553778793418 13.19613294631688 8.635182008415704
Sn 11.12839496770113 8.964040112355896 12.916021475520484
Sn 10.322362736937967 12.288473085737143 12.62862934028756
Sn 11.37063826860225 16.205334667169215 12.38707433266711
Sn 10.176804290749317 9.01831913507743 9.923446838081606
Sn 10.640566210919564 11.130294211123632 15.50961992790793
Sn 10.017985006291747 14.314554307832774 14.918202609782034
Sn 9.35301629902012 14.895946056344751 10.135659081186066
Sn 10.131874312694034 12.03679749048835 9.504386047291847
Sn 12.963928280036495 7.2266203729664245 10.890802638017815
Sn 9.415575313775772 8.792361362953818 6.735469733018811
Sn 11.267221640245463 13.401629809248877 17.506874260164725
Sn 9.08189571388231 11.871780655586905 6.46058244627123
Sn 13.228829511378583 10.394576064289973 11.297501184833761
Sn 14.22326368245995 14.133918858323812 16.663562774938327
Sn 12.537456502454276 16.122349683983806 9.52244892332174
Sn 11.908042213841432 7.483022518902429 7.95638770241971
Sn 11.552312396149889 13.633909925255123 7.426555252588097
Sn 16.00608221555524 11.564585271285353 11.031765511157786
Sn 13.709233519541359 9.162223415101685 14.594698185655362
Sn 13.48088508450774 11.161559337687182 17.059403024052504
Sn 13.897470074380431 15.487532423045225 13.947292349663256
Sn 15.65852166083883 8.39753377151579 12.096176958316319
Sn 15.609975860606182 16.185043033226364 9.313231883225479
Sn 14.421201667671523 12.12200176674385 14.193255587227792
Sn 12.87808483662232 13.685056910992332 11.638624425814665
Sn 12.00562167546586 10.564555134466149 7.40172722256811
Sn 14.22252483335577 17.598257745968773 11.652547989567234
Sn 16.635819089975126 12.324448714762983 16.685538825471983
Sn 18.35099316937641 10.077428777195657 12.592123320588094
Sn 14.52827972982257 9.01788140376853 8.889028700560244
Sn 16.618226247384293 9.696344938265447 15.059974966214778
Sn 17.47868932427497 9.319878168732167 9.696402839982156
Sn 15.958494046956881 14.78705155517771 11.918260676832748
Sn 14.314708779170394 13.45281606629892 9.008827904827552
Sn 17.40915868413843 12.749983243156658 13.796290605982257
