48
Energy = -169.64542269 eV
Sn 11.083343772535835 11.383451119187724 4.426398609650062
Sn 9.743651837079046 13.369915567089352 6.346009200629939
Sn 13.772299781132538 10.191051794572987 5.9079005558895785
Sn 12.90587608182905 13.274455941356045 6.175946057311186
Sn 11.04654787320171 8.548675804500704 5.899130718694107
Sn 8.7051848027553 10.517462153113925 6.355337774553361
Sn 15.634496218900168 12.121023498060332 8.14677088450963
Sn 13.776918228756161 7.121897521894057 6.889932804942928
Sn 11.436841921772416 10.994515393587415 7.772712538373758
Sn 7.539799950009229 5.428678024173294 11.723232448672299
Sn 11.272982715543492 15.510907233145012 7.906775699031362
Sn 16.02341619845252 8.805591707588968 8.203163692540985
Sn 8.525204400546766 11.35025636499261 9.412222889649142
Sn 9.036802515057927 14.405188318369746 9.729204621252764
Sn 13.827966705133656 10.126158357703792 9.875328583896437
Sn 14.091161208080006 14.752596128459343 8.946997615003351
Sn 11.36459028180471 7.378039584080647 8.831473584080513
Sn 9.801731254602222 4.987075415726425 9.705911463971523
Sn 5.930709128665754 9.28390163660644 8.62060641326377
Sn 11.767898224495855 13.165072047361141 10.110120328969538
Sn 8.245360139752982 7.723657428684859 9.807578521196431
Sn 16.802372299222252 11.493193056601152 10.940661914276026
Sn 5.4188939632629936 12.182424060719393 9.689214264347543
Sn 14.275852794557343 6.724775802524637 9.921880877501845
Sn 11.771112456421257 6.152594600839895 11.823499173561249
Sn 3.494564626210549 9.847409639668513 10.556533307936629
Sn 16.041280578017073 14.309386240170207 11.780401141375643
Sn 9.258496057566845 7.550328180499427 12.767005754256463
Sn 13.840729788005468 12.140041069481722 12.226269048071215
Sn 10.811481556319059 9.525868716610644 10.96277125795931
Sn 5.082130518175006 7.2262946778342 10.919733996780968
Sn 10.226140765622583 14.863410448428903 12.549128632140457
Sn 13.186434709483132 15.349983758956867 11.911649787785176
Sn 6.627462407894314 10.08233863383249 11.891727263255973
Sn 13.37023582759206 8.678858491166567 12.764293833329637
Sn 16.160853724901546 8.595509620154672 11.460841356123215
Sn 6.875048827869063 13.550887100457812 13.626198468029077
Sn 14.310988356892103 14.253879670574822 14.599515998499774
Sn 4.259040434590368 12.150631085495412 12.489778588159224
Sn 16.500593004565587 12.045423404902714 14.035284678184315
Sn 10.584275096246527 9.855221494570323 14.396568477523642
Sn 9.30904433129832 11.97902272664603 12.60848510673675
Sn 4.220902492203491 8.905157828323716 13.5000177268693
Sn 13.743308797692746 11.1127577075962 15.01814696623414
Sn 7.25916641747441 8.822920008893488 14.847673336079366
Sn 11.287021016307087 13.056741522015225 14.971628044683758
Sn 8.343261662462183 11.699992032734922 15.632497497345621
Sn 5.31178160438245 11.310634735388447 15.221095852214221
