40
Energy = -141.05792316 eV
Sn 11.509855544401976 11.8105701448818 4.636273747079401
Sn 9.896444610163948 9.191625449540142 4.606717577990811
Sn 8.418974711290822 11.89479116259583 4.060198704213351
Sn 15.96820510910854 11.515013997622779 6.883065429795092
Sn 13.84466591426681 9.31067181677779 6.84682711266695
Sn 9.70126295232136 13.05427761104576 6.657455563944098
Sn 6.6050945433392885 12.472428340436675 6.437842650146322
Sn 10.982420716998059 10.31745424572031 7.425730818822067
Sn 13.197173365162437 12.426501349500223 7.481112169667542
Sn 6.957447850336401 9.49703339554216 5.4387617875086915
Sn 5.276950413070932 8.039198771786078 11.768955155248086
Sn 15.62272744108165 12.775549487869409 9.685177190265911
Sn 9.056552145886725 8.020232922541794 7.383238001166153
Sn 7.535390767944445 10.362129859327727 8.426075028279831
Sn 16.066767352040813 9.623795584210226 9.303836896759934
Sn 8.300139576753692 7.795256415632309 12.860254917179812
Sn 14.6594587036137 6.326316283276062 11.591134883705605
Sn 13.253192640390296 8.016106891818623 9.573333996986797
Sn 12.529419182425956 13.36098241779178 10.320367817546847
Sn 10.12782092918186 11.49724886400842 10.520409025088552
Sn 8.086177749244419 13.28722871418733 9.157329665833307
Sn 7.263721718354358 10.450344628026247 11.85815343798034
Sn 5.837543615330258 13.104908296094173 11.689338441533625
Sn 5.8912866051267345 8.954470018061013 14.69727877017642
Sn 4.013292654570174 10.651718156844364 12.885541013610448
Sn 12.064192788494205 7.132134372012197 12.762823904651356
Sn 11.772015156050383 13.017583479528428 14.771339608105533
Sn 16.379705859755212 11.267861418284577 12.247149765962464
Sn 10.345137723033424 8.467437752031824 10.474540192104206
Sn 13.596094382384331 10.667904902177572 10.951469689899682
Sn 4.871856844482647 10.63693167422902 9.92442372943483
Sn 14.170970044900542 13.366839335774028 13.032207519149877
Sn 14.874766957602365 8.767972394593325 13.221978558705231
Sn 11.55416344067354 10.282425931227674 13.314559701485177
Sn 9.015509331350783 12.893892124056336 13.035949450657178
Sn 8.762885305737646 10.236211286796573 14.709647992341525
Sn 6.19672080170113 12.10100084298259 14.64498752356016
Sn 11.309235678730532 10.558572007297554 16.571270927476927
Sn 14.231878816552808 11.239943124276683 15.356637094981185
Sn 12.87576384123883 8.230318314685547 15.40948832338239
