45
Energy = -158.8018504 eV
Sn 7.90182576930894 5.157485268328312 13.2477702918024
Sn 5.546436760671444 5.626109237623707 7.519293684425041
Sn 12.336225005198019 10.153734735933343 11.178005833951222
Sn 9.817839110015878 9.94273912320015 13.349221399894146
Sn 7.175664528084927 11.836317789345959 8.050049691144233
Sn 7.52425005750039 9.448497836650322 5.09062191447303
Sn 8.159392626014522 7.38001833732569 7.337800420887173
Sn 9.716180836204195 11.071192665196486 6.582350003686393
Sn 5.240969056746313 13.183527747811157 9.90645108048737
Sn 15.811706957988578 10.3485436133485 7.20525621850852
Sn 9.645362344772625 10.183055424676034 9.624567745112989
Sn 9.341534143684367 7.257759510219231 11.250134204858822
Sn 11.014507679678372 4.995847232491842 13.117820751693603
Sn 14.628884021920486 8.25113049314063 9.533038019900513
Sn 9.159532293559677 6.956312359520074 4.352882387999993
Sn 5.206385825925531 8.669138142193576 7.076401041981102
Sn 10.769774819818 13.080069199367433 8.950702911892966
Sn 11.389630908325477 14.272330583424765 14.638564383439759
Sn 9.827561120700217 11.918790425151377 15.82840827027838
Sn 8.51795037900721 14.016153845540417 13.802784250175149
Sn 5.841410876695426 14.910070396922928 7.338754691520144
Sn 11.74382950049977 8.419656565143887 7.965830959602269
Sn 7.031466581836411 8.116822881525097 13.035951479312132
Sn 6.105997716121731 6.701989482084998 4.693350824702776
Sn 7.945780327861123 14.648257253117874 9.54480187668461
Sn 12.18852079294231 7.0440764504994045 5.104959465256827
Sn 12.221721390379518 6.601246191767229 10.681987760411715
Sn 6.842525905426389 8.642377460350646 9.83786667968343
Sn 8.84777246707002 14.21458718609581 6.547345229791434
Sn 15.316150284346511 11.005842116924295 10.247564910145192
Sn 9.515878909688077 7.140474551110226 14.98466978779555
Sn 14.738797461352549 7.5688193975675 6.660848442871799
Sn 6.887971712211952 5.500444820028406 10.332479982826413
Sn 10.951260137915174 12.991015428376247 11.994714719996495
Sn 4.340197080427765 12.123583104161256 7.1252535115760285
Sn 7.958724827093655 11.915137864138275 11.581153591509464
Sn 12.16483973329963 7.9459599322271455 13.58776117805731
Sn 13.117676253719782 10.061511238039575 5.458050879612195
Sn 9.61801195635957 4.275925193145624 10.37895439240084
Sn 10.661553450223188 5.555456378545692 7.369793812565292
Sn 13.09669611663828 11.279219356991842 8.261992774831652
Sn 7.993294968494863 4.535530791759639 5.961762430013255
Sn 6.5432773756749185 12.717263874217608 5.134808774729942
Sn 12.496031834929745 11.392791477214415 14.205908348960149
Sn 7.251710263222243 11.095899207112096 14.474021158107337
