43
Energy = -152.06285402 eV
Sn 12.108863775004865 14.943513173797285 7.958244453711598
Sn 12.80109258198922 12.041260421074512 8.179126324491287
Sn 15.039267165242192 15.941981715740244 8.628780270033753
Sn 10.244437272967964 12.556789149303576 6.68171071604411
Sn 15.730732702782301 13.02367780323174 7.899154814295004
Sn 17.888339265474258 14.867756077250238 9.44885386152024
Sn 9.305556504118783 15.516829854010307 7.203688545231379
Sn 10.07749178006084 16.138498188768192 10.130901903187073
Sn 11.08413276905776 9.285981181934618 8.733409413324102
Sn 12.671968425664236 10.599079372991817 10.952827866410802
Sn 13.146515128152881 16.246221028098454 11.336448892652507
Sn 14.94653189000029 13.677428413992635 10.849048930325749
Sn 11.592370247092113 13.50642114401169 10.83726639219694
Sn 16.476239596669387 16.61977244486395 11.44933649923494
Sn 9.016467658835431 10.556519733324848 10.820344134846184
Sn 17.36796256663788 11.78161661393096 10.176191748203143
Sn 13.546587329514685 7.591738067004429 9.969906494460083
Sn 15.468293835330329 9.61758313330734 11.272258040867202
Sn 8.951371277151432 13.33884583939808 9.297330438865314
Sn 17.613417096114738 13.893562061895414 12.488983796050185
Sn 8.59052743676262 15.675292435868837 13.100170029917093
Sn 16.634037522876273 12.761570679711463 15.206607012309624
Sn 15.046301179157457 15.356299002784896 13.907707783130414
Sn 10.515156767254787 7.210818871357475 10.983322269653382
Sn 13.905055974506281 12.161185094006076 13.657562007789256
Sn 11.742913336833396 14.399617265788814 13.8851559518285
Sn 15.897020360148428 9.944429242755069 14.22142833456494
Sn 12.63734809253123 5.287356821876755 11.8868005281386
Sn 6.618799408537312 14.005920189937134 11.275891928627884
Sn 8.98132264575738 12.665819354502688 13.073251511282324
Sn 10.93090157607155 9.662838029117113 13.282632145796308
Sn 6.291542979211089 11.183771593066803 12.543606290244762
Sn 13.520002848806437 7.73070788626578 13.27814099139287
Sn 13.939621539017459 13.7835910055654 16.340001229364514
Sn 13.927908573848784 10.750864721217594 16.425281134445147
Sn 8.208753290608565 8.216066937624737 12.724986910090127
Sn 8.686564220534818 14.213288860513437 15.814968605152941
Sn 10.528699362690869 6.275594663364502 14.008219550353298
Sn 6.053308603757737 14.04018341511678 14.223993631670528
Sn 10.880072477534494 11.50305269392367 15.672042474186185
Sn 11.988015959561414 8.274201462518091 15.966271549115284
Sn 7.3870028027798025 11.415279165063081 15.384153514406039
Sn 8.9757360635215 8.739663424590265 15.65013577185217
