44
Energy = -155.35974513 eV
Sn 5.983244878341437 11.547222011325783 5.934230257634637
Sn 6.763055503001493 8.491216147019985 5.453715226459104
Sn 8.94871473035158 10.873657193615662 4.852275543796636
Sn 4.060008990317804 9.211774249016475 6.9054614824978175
Sn 11.589291718646619 12.628571221817602 5.469665723717508
Sn 12.957130473762325 8.372481275843752 5.720354158734503
Sn 8.930814582201167 12.586878327986051 7.486455839895909
Sn 9.951661824420457 8.013812615005477 5.372297517771831
Sn 16.098052494142802 10.906532503321815 9.24384978469248
Sn 7.09238631276997 9.733494833137009 8.296977333535144
Sn 4.725068641197203 11.621630184160484 8.75482276342803
Sn 5.8988404753349135 6.739724031359896 7.9231916529595265
Sn 10.83025828258521 10.052178488388812 7.408719364725055
Sn 13.836165686916154 13.957279402648389 7.188447524438686
Sn 13.825196610164804 11.012350446624719 6.967880604941192
Sn 10.927766039174367 14.860711439720305 7.418639116910962
Sn 15.925041334406519 7.7698294501161715 9.01659209597509
Sn 4.565880448861947 8.792112424028092 9.979914494165858
Sn 9.109528938318503 6.772760083339128 8.086148951282933
Sn 12.926756108001573 7.2781843550506915 8.501192394300011
Sn 11.918733089962164 12.610150149102585 9.25004880767985
Sn 8.574526353652494 11.91896628952055 10.532253520561019
Sn 9.804198935818375 9.124893255445095 10.137458568921366
Sn 13.439660566539192 9.734244660250546 10.275150740876294
Sn 16.554306237122955 8.886878373909337 11.699015130555763
Sn 14.280582661463281 6.683036967828233 11.500522126943252
Sn 10.079340847831388 14.325483352512013 11.662926079823023
Sn 7.347842196533959 7.27654721244367 10.702724893863547
Sn 11.150809942213654 5.513864366303524 9.988826974486617
Sn 15.085614593385866 11.72408038498906 12.045006594130301
Sn 5.53099464580421 8.757687093227991 13.00277263216343
Sn 11.26441046054354 7.594287679448947 12.230537082751432
Sn 11.419319921088244 11.424380111553567 12.350938155963853
Sn 8.478336586235704 9.787606779626087 13.009604967247906
Sn 13.036680878461162 14.072801438992556 12.126697241034833
Sn 5.792550027446103 11.702576068018036 11.840856947724756
Sn 13.960015651921008 9.157698952659215 13.367689209605015
Sn 7.35138683415983 8.186697735734459 15.447042807109675
Sn 11.228389737315066 13.56186574007107 14.620812222663046
Sn 10.380420339157752 8.073844852193675 15.142686809864996
Sn 8.158969638720853 13.176543038483747 13.805710403820866
Sn 9.084488378020096 10.909361349478555 15.975604181539882
Sn 12.10203665681258 10.67110433772476 15.412467033399741
Sn 6.22324322494986 11.094721605033532 15.083537513482934
