47
Energy = -166.4704091 eV
Sn 9.189869849522863 16.325920773678366 9.789900209296476
Sn 8.746028243399234 11.93727825394447 15.474641327964022
Sn 14.987190740944593 7.1838332487659855 11.094335272557867
Sn 14.158066898697719 11.58657407330335 10.970381209984895
Sn 14.079656519403954 11.9077130282843 14.055412777068963
Sn 12.123713504048698 17.38060442795065 9.52349646286926
Sn 10.713319135228721 17.116200751022685 12.37642102954574
Sn 10.353534961237523 15.520392083947243 6.980028002592529
Sn 14.531087976261096 15.78065018504089 10.769134625950002
Sn 12.138790413143921 8.877065640003758 12.438070559554003
Sn 16.346026477075277 13.677700991954936 9.861521551874668
Sn 15.08617599871694 15.565661057587608 14.028641974886064
Sn 16.668584041942065 12.652739285549366 12.643622114403788
Sn 10.260937045823542 6.096783568722602 12.694541630867308
Sn 6.483652519244127 5.265469613914494 9.258066268214238
Sn 14.936069657653427 8.790173984555716 13.740948926086656
Sn 8.535979355043812 13.664358427116552 11.338286095945648
Sn 11.204601353762408 7.552065518102792 15.094487784618067
Sn 7.115411561152864 11.384745026222978 12.954636299709517
Sn 11.404815302497278 12.530847409282563 6.953573356415822
Sn 9.437499973643217 6.049205111321456 9.4743504273202
Sn 13.550070050220999 6.020304335120191 13.583843936489643
Sn 12.365422903501914 5.491405211612079 10.561014806381255
Sn 12.498497119778813 17.110521948905813 14.932944038690728
Sn 15.212690050902703 9.45961830543553 8.820452737497007
Sn 11.408483813889372 14.008399755565964 9.730157464693026
Sn 8.516413072827968 13.370394438411008 8.214136051368722
Sn 5.519999993242967 8.016102358879753 10.252577620139316
Sn 16.69957688727309 9.84714141006948 11.450649503598942
Sn 12.852567033373257 14.218772875089602 15.743552942265657
Sn 10.423266152487336 8.077576054035013 7.295811891914132
Sn 12.564769368709138 14.44737908330061 12.64117421403605
Sn 14.3968407956999 12.344098924771373 8.015023998011062
Sn 10.26844773494549 10.829274395882633 9.34654893744666
Sn 10.044604729596184 14.632728071715226 14.242616494647447
Sn 13.734404452650226 18.152206937664342 12.370056811154946
Sn 8.46489229274715 8.953168316763103 15.002992036631824
Sn 6.034252380409407 8.41026969562148 13.223049367392537
Sn 7.105166571838769 10.56808751408795 9.516166716471027
Sn 7.416809082520689 7.8243098943007725 7.789153689291668
Sn 10.297082457201851 11.570541711371636 12.729707774022948
Sn 8.736871909276791 8.820805506161653 11.559851265012716
Sn 13.408703909243938 15.32133443209522 7.6090942075555255
Sn 11.44765628494744 10.609397141715945 15.367963731568873
Sn 12.473743866611771 8.424866280798534 9.477991169586414
Sn 7.2551979797818715 5.92110305761192 12.070705952545618
Sn 8.565203394649407 10.466855699511434 6.700910550631197
