47
Energy = -166.25994535 eV
Sn 9.084017846521295 8.763664263793798 4.8084074197137925
Sn 11.136361358152602 11.214874214725851 5.594103451370734
Sn 11.441038825162494 7.905974866988205 6.63363653003032
Sn 10.56607144573524 5.203188241685719 7.776678868272166
Sn 7.532223872276635 5.825069679151433 7.627712334718779
Sn 13.021500354625372 12.912000023499154 7.402030465464783
Sn 13.748763147105352 9.691015472850612 5.832933975483052
Sn 8.932118469002154 14.870460166079248 9.087131187637535
Sn 7.978784938348798 11.323612102733232 6.085269167063463
Sn 6.433698637336391 8.281512293171911 6.234271069202274
Sn 8.736339678889099 8.946771955657608 8.045100460120441
Sn 13.53985835618632 15.607731554204907 8.836409036734656
Sn 11.206419943150875 16.466216836585414 10.42115061089981
Sn 14.732753404833549 10.802745693973305 8.817315098164235
Sn 14.184173159140618 7.866142697804208 8.3191496772728
Sn 9.856454473265876 12.1231785923849 8.36662176140019
Sn 11.852149571108145 9.935284784296613 9.047812756982301
Sn 12.563955836366661 6.905406944987648 10.791897295760453
Sn 5.531788329914541 10.52777595140414 8.220281490653106
Sn 6.195989616823064 13.385436369494863 9.445816864514454
Sn 8.422988257125965 4.431868332240477 12.200882862137094
Sn 11.108514255441527 4.192479173071341 10.65871815925976
Sn 12.744073072701003 13.160122967732999 10.52838040375656
Sn 6.254770777983377 5.803827157367134 10.43273635429228
Sn 7.24350659308237 15.743967930532936 11.599257858403886
Sn 15.88442346807506 12.446097769269347 11.251044218752291
Sn 5.726223800690222 8.769631095985508 10.6011858028444
Sn 9.873785583187587 13.773192685738065 11.781652631939723
Sn 13.392108860448651 10.85539720424675 12.574281727861514
Sn 16.46376535524952 9.975636066575268 13.19026154443853
Sn 6.052035208459701 9.991026244080597 13.231349183348668
Sn 10.882724932038554 6.257828082962617 13.343657907404193
Sn 7.833814045030462 11.018459876217944 10.59379934421683
Sn 10.39915392185496 8.969645554725586 11.797678536171713
Sn 14.184734471026792 7.980088419510491 13.225089399344483
Sn 9.980199807682512 16.700996646771795 13.133879779280333
Sn 6.0022253460144155 12.966640519517238 12.455948907798012
Sn 9.22377045406374 6.6557386234369105 10.096504371888386
Sn 14.761817382721008 15.283688354247062 11.587546273931883
Sn 14.532339604409321 9.837925851294116 15.642758666659606
Sn 12.352974407708851 12.256847255023452 15.12273236487937
Sn 7.929637926702734 7.399506330305785 12.906106988195488
Sn 15.316130843450159 12.617684895745144 14.363453168087249
Sn 11.657006960140626 9.159997005657326 14.71028787089734
Sn 7.973252413268159 14.393032542333955 14.27763234017298
Sn 8.821737108122223 11.559119647129046 13.586943142486477
Sn 12.356100270501875 14.889767453936384 13.36077706122013
