49
Energy = -173.70126991 eV
Sn 7.30038826324796 11.121837098278274 4.482422383317988
Sn 10.400267039807156 10.364166241781819 5.127596579892444
Sn 9.3115134626861 13.347378212231959 5.129759045420084
Sn 8.013820574845873 8.566747930718748 6.244973576064864
Sn 11.960313478873346 12.690305534531191 6.725635031154386
Sn 11.967742000049368 9.751882422597246 8.136142216010256
Sn 5.559532424133281 10.441124377297454 6.9788439793635435
Sn 10.491704735892807 6.745746899107266 8.12891952518405
Sn 6.395881647929901 13.447130959845998 6.359385897745836
Sn 14.897503015558785 11.837754787213447 7.961010019105656
Sn 8.63693403712379 11.235178731377879 7.545929545253663
Sn 8.929906243958484 14.209629677271153 8.28857137733444
Sn 7.521179399857969 6.96826031470973 9.239974772175412
Sn 13.542015697056897 14.474869520771001 8.894066498489234
Sn 11.077425924537156 12.240556942565378 9.632430343035379
Sn 6.331399973924937 9.755858483797981 9.958441047952245
Sn 14.417039692208332 8.960154117424695 10.04244315900646
Sn 16.459472921621376 14.03185229145213 9.566557971572646
Sn 9.703484585280817 5.322976735585988 10.787455946568157
Sn 12.453353259807127 6.588303876049757 10.605303162318398
Sn 5.862574979745698 12.822883058015927 9.350896693041328
Sn 16.861194731688997 11.013960507840219 10.325022778974283
Sn 9.873195891129473 8.611925585172902 10.530063700084792
Sn 7.492349860727542 14.5517251747214 11.340129384274716
Sn 16.94957866423331 13.29725857739413 12.678123360640571
Sn 10.872796635956426 6.879497640789358 13.224096195621744
Sn 14.037390283221981 12.221493703505148 10.999103898341527
Sn 6.435004260243314 12.666732126298141 13.510138901202517
Sn 14.54020142037291 15.123399148916779 11.938290736587119
Sn 9.160391692421205 15.140869893828006 14.158563481736177
Sn 8.373805277614348 11.646632900711115 11.06593337359906
Sn 10.636124618259462 14.777689006114562 11.400203139150994
Sn 7.897080472799778 7.293903048401244 12.51290229892283
Sn 12.308838239094793 9.560802890678888 12.276750283174271
Sn 12.23719013563058 15.698974121906536 14.108664713790896
Sn 11.180465051794728 12.6100139739565 13.541340125196971
Sn 17.427636462535677 10.122388296998672 13.361162314164257
Sn 15.088804527969241 8.122193411700023 13.122097388518606
Sn 14.507328205675808 11.118331468066863 14.019440009383576
Sn 5.852259744831539 9.792919076663802 12.930951207923883
Sn 14.748414454878953 14.010596730278206 15.13571548580097
Sn 8.417586440525962 12.724895088945878 15.743767154013307
Sn 8.843302842740965 10.326348809607385 13.723024783849219
Sn 11.418236606602962 13.802999335638457 16.37793993468344
Sn 13.161397188672689 8.611797528306106 15.580533983395977
Sn 17.11947656545326 12.018371121114228 15.835183391848052
Sn 16.13199022852858 9.140566668000204 16.132380882117808
Sn 10.976523357461296 10.774443522988879 16.16343846471287
Sn 14.198995651109172 11.395685299155085 17.059292728606664
