43
Energy = -151.44455351 eV
Sn 12.565604051290364 13.301208746840727 6.8546222518757425
Sn 12.224997819325433 10.72378518146935 5.311675366685629
Sn 9.423226730145291 14.007218267703651 7.793008743031778
Sn 11.35706873862064 14.757213768578398 9.869529324157028
Sn 7.337144302833864 14.05364735870168 10.061501418009726
Sn 15.297362813776589 14.31851505938394 7.709973673226635
Sn 9.879368533909863 10.97146960354831 7.256880170876656
Sn 11.269357924587794 16.797505641497306 12.141611835374611
Sn 8.166889129347172 16.12060038475427 12.298590855790886
Sn 12.585737165699427 10.844112802329668 8.752828347376143
Sn 14.04712723566385 16.254071485660983 9.754254936357995
Sn 13.324539252284382 8.211923292202695 6.894743609336027
Sn 9.669918671862087 11.905360467239886 10.223234927965782
Sn 16.5461424144752 11.998867863836617 9.165966343820536
Sn 11.09143350342983 8.007616507900435 8.946338653752845
Sn 8.296978013236204 9.010775096300403 8.947039314141342
Sn 7.4777352352580175 12.959127522506805 12.779234650101602
Sn 10.380980467507177 13.850504729873826 12.855664931497545
Sn 13.884098341778618 13.160839927896456 10.344604961095078
Sn 10.236742527895915 16.200643002830493 14.957270823465878
Sn 15.04667785053419 11.189236815075006 6.480911071538194
Sn 15.203435102955586 9.266238449857465 9.025547977254185
Sn 12.893308717383333 6.507829469114715 10.835114303548236
Sn 7.383009253058647 14.960740931028885 14.965359066582984
Sn 12.195750586617912 9.520132295916033 11.696059735060285
Sn 9.1490328450021 9.038926492065979 11.765043002064129
Sn 7.614948826708082 10.120636354909955 14.08147413380026
Sn 14.271741764339362 15.592715466818278 12.708471688114331
Sn 10.566878695898408 10.867440985428399 14.46539085581856
Sn 10.793596143629532 6.827268796753191 12.969419795278599
Sn 13.424441707061959 14.997311616305643 15.562836935022034
Sn 15.814378099123068 11.381525326481892 12.224127674005036
Sn 13.184678922511457 12.61223293001669 13.514722307421222
Sn 14.972122677486558 8.428914920137315 11.947691073528215
Sn 10.175309709710225 13.448837733306634 16.20801644650363
Sn 8.48254507739312 11.018866650912026 16.914481313477502
Sn 9.52712256567499 8.019037793633636 15.513717433465418
Sn 12.639583085863181 8.59797317945876 14.877728200568773
Sn 16.278717486406315 13.774673274716882 14.166075250293963
Sn 15.561813644181525 13.271214695837337 17.058114137793446
Sn 15.190596859923051 10.828720367566403 15.148987274926744
Sn 11.140584851617112 9.611509691004988 17.5167699058917
Sn 12.82024846010884 12.06472319630197 16.844509399857348
