42
Energy = -148.30264599 eV
Sn 10.214889055430545 12.963727339678334 5.373201802970896
Sn 11.25698801075569 10.077733478232819 5.388930767795422
Sn 8.67762310926004 7.139992212230359 7.432815928265968
Sn 11.766352463682258 7.119847555392794 6.827203196461068
Sn 13.306106969421315 12.567438223671283 5.857042773198065
Sn 11.433316690714594 14.414435384009694 7.801407837352193
Sn 7.897148746583605 10.55999237080234 7.026978098333854
Sn 14.079070803265223 9.676219154940632 6.575919565485575
Sn 8.1358513307609 13.55650340517522 7.773987533764436
Sn 6.546076116377169 8.973084542423774 9.385596632941972
Sn 8.282378364945147 6.109481388388318 10.341492382009813
Sn 13.230758961748059 6.101778830916114 9.446514881856103
Sn 10.718644674192756 7.928803513911834 9.56909345586806
Sn 11.225273967048631 11.251295286723721 8.15521571116427
Sn 10.446826885503429 4.797657327023933 8.570563639168755
Sn 13.47309916275632 14.97679526306621 11.139472386983895
Sn 14.141446820343193 13.261136095259658 8.843771068012543
Sn 5.432614330613653 11.88924604369458 8.528010890912725
Sn 10.610724960455586 13.677382156812612 10.658501561466897
Sn 16.220322793905083 11.24035368024915 8.424145536105337
Sn 8.517204379941141 11.321507782726224 9.949686051655547
Sn 15.975209917958264 10.853625562834441 11.417270679651534
Sn 12.846420336505165 11.938011101290828 11.777851554692681
Sn 13.639063464647288 9.908689725932437 9.565758442643412
Sn 6.769229953859445 13.917880235259949 10.526305463529688
Sn 5.88665099723484 11.1170111546374 11.559607513609494
Sn 14.772760290960145 8.071978961586547 11.595688743777956
Sn 11.078928954167505 5.611341897809465 11.520599947646398
Sn 9.094349383925204 15.012017776466227 12.863739323752261
Sn 7.903019413295733 8.04228680646967 13.027772519844206
Sn 10.262893700260591 9.5790786337896 12.178032629099926
Sn 9.658484579712917 12.167601585380886 13.665624516221783
Sn 11.983822010346113 14.3262602179169 14.070601758872982
Sn 15.261221762252454 13.324092393543472 13.050562645289293
Sn 12.786573004281731 8.911591572486127 13.642868025907726
Sn 13.50368484732736 11.536375882285132 14.91452400096565
Sn 6.560367666910849 13.402243164260177 13.659595956728026
Sn 11.097611396971969 12.420500701997678 16.445607534814854
Sn 6.597468084045468 10.28932180967139 14.571550619981876
Sn 10.54944381947846 7.126968535881508 14.283072434404017
Sn 9.602248849335036 9.812212441355951 15.699837224236676
Sn 7.96412884605755 12.432798681053516 16.30027663979493
