49
Energy = -173.26989231 eV
Sn 14.847189327195359 6.05937105022994 8.647424396175538
Sn 11.912022262832066 6.817651318623521 9.309634815833148
Sn 13.936134305732253 5.988813407183825 11.671987091831854
Sn 16.688446581479734 7.324877152538687 10.952109723335985
Sn 8.60681965763548 7.598105875045189 12.740790319738508
Sn 9.38980293594535 9.144712824944621 10.098053676984891
Sn 13.557020301538158 8.377972830479228 7.083619308653063
Sn 16.373081496664092 8.830548945765583 8.175713299581867
Sn 5.85163182082999 8.993709519465705 12.89168676588419
Sn 10.500493156208549 9.076153024881272 7.233771224014528
Sn 14.708997929405632 8.27599555159027 13.649695919940884
Sn 7.313737953654395 8.181312019995174 15.599316265578967
Sn 14.183379955451985 9.018184455402672 10.146253561861124
Sn 10.398228635110902 8.746328582016263 15.254004537359979
Sn 11.84465362739196 11.156859188415734 9.208616370211281
Sn 16.84595073980643 10.122961820964878 12.490742636587859
Sn 11.942763276497919 8.585667046982921 12.17840876148833
Sn 7.4514693606518865 10.256222664010686 7.962795844545007
Sn 8.502322949687459 10.524857457623755 13.446839074943915
Sn 11.900395899348919 11.642452453401866 6.149506437592163
Sn 16.25278550202178 12.234862959865954 14.538061556943722
Sn 14.58216883040878 12.31559633758499 7.804500603484886
Sn 5.861499250894205 10.92516706705504 15.284924755006475
Sn 8.538105732728544 10.655292434837243 16.95097640695889
Sn 5.872592159538598 10.969446540448294 10.437416528286713
Sn 9.565856773911037 12.90204378186909 7.473443862443119
Sn 8.884732629663656 12.154070972652171 10.405499299588103
Sn 13.809397586635576 11.266949339244915 12.642941019734009
Sn 11.708143510355198 10.846339926147401 17.75576842386467
Sn 12.401397887429267 14.92262286469398 6.718958916860533
Sn 11.135721285906545 12.001080766660927 14.784298488289888
Sn 15.86478624212764 12.202764386195854 10.556279451190937
Sn 13.981076432664768 10.754170144853475 15.771804959473064
Sn 11.352117241773419 13.543986735031485 12.050958889826624
Sn 13.190228774661986 14.415526831515319 9.768931694087417
Sn 9.982458600101282 13.429908595556894 17.414213776775874
Sn 7.46436087153561 13.236026495162553 14.048001401172
Sn 6.679351862547548 13.233355303882705 8.230943766691878
Sn 6.519927016079673 13.885138093491614 11.214293904773024
Sn 15.249796545905973 15.589853823804628 7.8368583110836045
Sn 10.362176311463811 15.679219845714705 8.871023067534622
Sn 15.415112851055566 14.339040114753631 12.59403853158197
Sn 13.107965206179166 13.521174822014522 16.81988317468064
Sn 9.115178249997488 15.617569595961347 11.750106280764252
Sn 12.980399743005304 15.115843286217352 14.18867727784383
Sn 9.928814737979605 15.004987472454742 14.813068277591622
Sn 12.78512781191895 17.47376533873576 8.59088269481184
Sn 12.08536044356924 16.821000425399813 11.627355476340902
Sn 15.102947253169292 16.751758948141802 10.700240030508377
