40
Energy = -141.21234643 eV
Sn 8.540438941525913 7.933121171869218 3.532513737540157
Sn 10.93781556712924 9.8171600525958 3.995286276695893
Sn 13.112575576664536 9.217461669448891 6.076504775476601
Sn 10.90500191111141 6.989226533122029 5.492405864643691
Sn 10.876898914599636 13.453044439470126 6.8773605380874505
Sn 8.229219911973347 10.796602877954967 5.123324078233451
Sn 5.995428339219503 8.593869206478825 5.175893816495329
Sn 7.7680865174593645 13.557037574052057 6.8181085708942435
Sn 7.753152057363206 6.00539598811096 5.729530351816758
Sn 10.238909345264188 9.766023567463808 7.082376810975388
Sn 5.944074738564096 10.642866450710923 7.498031909950222
Sn 9.95295854721748 15.665348290052098 8.68930899450748
Sn 13.790561599869596 6.569959884851833 7.356272890556954
Sn 11.475514051666181 5.097636913955682 8.622013630373543
Sn 9.193042047344557 7.199790368072716 8.171425912876646
Sn 12.644215269892065 11.289593297182233 8.237875396518506
Sn 11.980463756501713 13.899228695081462 10.013752775122201
Sn 6.137134935126141 7.376689035523737 8.027777951144914
Sn 9.19221159054961 12.39122684776494 9.228486617381874
Sn 7.624260516312258 9.571556788514672 9.735654036116433
Sn 6.269486233284216 12.071428480048457 11.080914454048498
Sn 4.433791937761345 9.812211435073136 10.460736852811607
Sn 11.685541961291964 9.568182021937622 10.543076627867205
Sn 9.058857327613195 5.479944657810896 10.626371518532792
Sn 13.583631982910081 7.193690668400399 10.202856080234772
Sn 12.028245581050232 4.900947052102184 11.636702854482653
Sn 14.376895472091292 9.6328930237913 12.135178308583777
Sn 7.0586551802062525 14.649756435324848 9.697407325182873
Sn 9.866047380415603 7.792473992061878 12.269367954282414
Sn 12.331706689248831 11.865300133687262 12.641220643235455
Sn 5.291801343838334 10.301029246061091 13.477115708515054
Sn 9.331652842632193 11.022341432602053 12.062606279983395
Sn 14.165068308188467 6.6529448209924285 13.177851496388579
Sn 9.418283643743125 14.398011923259192 11.636259378320926
Sn 6.45924732717539 7.875003674736799 11.916589683479907
Sn 12.14471338466697 8.956572865831502 14.150681072220111
Sn 11.404442146341218 6.078600833820239 14.387882714816202
Sn 7.460732951966223 12.461048152641757 13.989292535511352
Sn 8.007696515859758 9.199346680952113 14.400505221020046
Sn 10.33856069061436 11.262455852840771 15.030501391326643
