47
Energy = -166.25024792 eV
Sn 9.631283739605651 10.33298271536093 5.014163626050481
Sn 7.229469966626122 11.113362649207046 7.209028612792015
Sn 11.281989927383606 7.5448311951296665 4.431073777649719
Sn 8.586503674121536 7.719273278841371 6.015084724815444
Sn 12.79705632721167 10.3080971971218 5.369349911178979
Sn 9.464903632862036 13.13789839978783 6.68102478259108
Sn 4.966049464093804 9.153973337590632 8.565364173370298
Sn 12.06350846353677 12.335845577605376 7.901106898875728
Sn 15.73981899222682 9.560066574319944 6.543347267224303
Sn 11.126492404265433 8.874445841227702 7.527949451320369
Sn 8.083726251002709 8.57138026616625 8.904754491570452
Sn 5.626682507901874 7.400848901930285 11.135065687177388
Sn 10.93201437175929 5.87722579355152 7.041097699687304
Sn 14.679813895526703 11.2188920936233 8.84446747133833
Sn 13.654729700305438 7.305311283119193 6.271177412070102
Sn 9.690083501662015 15.774968765867206 8.720154187997597
Sn 9.640929060290967 11.278546637593369 9.402415291787497
Sn 7.032144924537096 14.074617739786914 8.42635110829823
Sn 12.446300442664972 14.847250363063456 9.445897608033937
Sn 15.2738647497424 8.033859005655895 9.020922488939298
Sn 15.610902047873694 12.062587208966374 11.520807639214079
Sn 4.819239826234026 12.101133074225134 9.545177699814534
Sn 9.19867839759484 6.845561565348037 11.121143700102449
Sn 12.633419677122504 10.384185812503649 10.899809861388624
Sn 12.195195188558532 7.456856361733865 10.78556269591955
Sn 10.367949569755963 16.164504792926046 11.63631641085762
Sn 3.4330007946157837 9.702408587531611 11.210827497555247
Sn 13.547952478998663 5.57705789239938 8.92405278502336
Sn 13.368045800961973 15.955575362010293 11.960533778250019
Sn 8.582414591317246 13.551558282183057 11.046025481371156
Sn 14.305038432256893 7.106447016906258 12.97870065320607
Sn 6.719838606783356 10.349067912477864 11.128989930573026
Sn 16.178798029564906 9.090279013319606 11.656194145277793
Sn 7.84777592379776 7.336352384504656 13.748418435172045
Sn 14.04791863928949 10.391184745639757 13.642917041539304
Sn 9.674711264539084 9.72015362118377 12.51222713312591
Sn 4.805702800629599 12.185877720317688 12.703047067069637
Sn 5.247076516170594 9.20832414329966 13.634565824240426
Sn 11.741620022348753 13.187663820022973 12.013974984937821
Sn 11.288598413069229 7.272576296391219 13.820647525531607
Sn 9.467606956953793 14.670381651045961 14.113453773696671
Sn 14.440959426074038 13.71848871629079 13.808682644624279
Sn 13.564095108955447 8.288954693639697 15.690809441724058
Sn 7.724372381038911 12.224771238861017 13.736001099804461
Sn 8.177661100682393 9.785903123780454 15.444991962093923
Sn 11.161670508007534 10.10448534470782 15.112389125547633
Sn 11.802516822096278 12.994107323852711 15.0340603121891
