41
Energy = -144.55438036 eV
Sn 7.642356838012779 8.822577709288618 7.674776536212641
Sn 11.344031277154256 12.128368064385912 5.639577440259991
Sn 10.543508469423442 9.526183776934673 7.127216129858451
Sn 8.632012129646494 12.070479399936726 6.989119947219747
Sn 13.555210769516805 13.408281910245208 7.540235321243544
Sn 8.85959962377151 5.901740687859854 8.63757024293366
Sn 8.213443944953935 10.80205877801276 10.009714085923958
Sn 13.525337484583229 10.275935184076307 7.301332359173853
Sn 10.713942356067008 14.597614313745845 7.633744326608672
Sn 11.278987234824267 11.856579376709615 9.082920671791559
Sn 15.46277966784839 15.124860459618958 9.451379264356186
Sn 11.842516023010377 6.794694481835213 8.752549129100245
Sn 15.740235458206634 11.932758426737939 9.375941981850028
Sn 8.38562575576406 13.825869284576394 9.575739026091387
Sn 12.68753671615233 16.2486895868523 10.074112387489118
Sn 13.517257469990893 9.040848358896486 10.201237492628765
Sn 6.726354456421894 7.508702722895401 10.309539142665052
Sn 9.980996512127454 8.460728201160181 10.554537283562679
Sn 14.68312642592795 15.912445399658804 12.505171055547846
Sn 10.6404102996255 14.426593879560272 11.508603158470583
Sn 11.800510633234932 10.298461755755135 12.278442467330441
Sn 7.674748716268197 4.682036678390339 11.17444894028055
Sn 13.546115870648869 13.192764925342436 11.41246431546403
Sn 17.172108200868202 13.716218581576818 11.557316299301332
Sn 10.580925631787672 5.311821586252038 11.37865734420464
Sn 13.477670819457202 5.91720610838464 11.226201897364708
Sn 6.809692073707016 13.698339184700117 12.624299598015146
Sn 11.645220203522218 16.72717507353087 13.199942724694145
Sn 9.438914707953481 12.159907425693717 13.275494347041992
Sn 6.895833567735642 10.606659713934187 12.87723222287758
Sn 14.182053007191652 8.30293954058402 13.159432350553153
Sn 8.291889844910452 7.313114833884921 12.884322976569615
Sn 11.223055117925545 7.5580344900454195 13.624673029973987
Sn 15.64141378021723 10.944072298444352 12.267923887814991
Sn 15.429168649884721 13.432921644627607 14.13570165080141
Sn 8.721048856549707 14.974177703820494 14.626691969350505
Sn 12.037554892112146 13.940912774770014 14.282262387828837
Sn 13.363103810019483 11.155637800403438 14.664922498601149
Sn 6.933267698164096 12.462258188148978 15.48702873578783
Sn 8.812457696030977 9.900661403265758 15.247814689510214
Sn 9.950074186915344 12.640765163591414 16.271805561780596
