48
Energy = -169.74444596 eV
Sn 12.11126691034086 14.297626022391048 5.146628563631972
Sn 13.75851740468991 11.680669105560268 5.071059278254472
Sn 15.194449788098272 14.412515079372701 5.423614454908452
Sn 11.007941314816117 11.537700265700758 6.652719333446633
Sn 16.172914147507818 11.973974126159133 7.133126735707604
Sn 13.764983321173531 10.00413917107411 7.674565096380094
Sn 10.262804884733919 14.264055233354767 7.8891355529361755
Sn 7.428566164314524 13.153125379489547 8.731257242666858
Sn 13.23649984427441 15.857139850589931 7.524208618184282
Sn 11.015221616777541 8.5850985894374 7.761602534328302
Sn 13.292968258997535 12.892179985752053 8.57264155517454
Sn 8.48259978425176 10.311202710996254 8.370130643477184
Sn 15.859811470690614 14.663201064504333 8.526454455225547
Sn 16.862198381333705 12.039685253440533 10.572689806931315
Sn 10.286440894869875 12.10617443817895 10.283169768477505
Sn 12.056424557152898 7.656255258714882 10.47173261058568
Sn 9.017159510749856 6.8930788419208175 9.6925779110073
Sn 11.213397766532607 16.713100144196638 9.76426321951769
Sn 13.831686334103493 11.332445404560517 11.478449333108324
Sn 8.829941727271533 14.868950315045762 10.90760548267644
Sn 15.659858625636748 9.269956050172885 10.188503847466851
Sn 7.291677430920401 11.648858054956813 11.369157917384308
Sn 15.658326724963695 15.584206502833762 11.499260896159855
Sn 12.82156353551879 14.594433695534319 11.304939709756285
Sn 9.733120882737675 9.166739560767697 11.800942798324684
Sn 10.46876696999499 5.447531253977293 11.893957241480098
Sn 11.67290040054162 12.85623308848425 13.523447992389444
Sn 10.66803219811103 16.719062761317304 12.926445142945845
Sn 16.628865758071584 10.112724740293954 13.11663025061265
Sn 6.810292776088532 8.798460823539756 10.501315589930796
Sn 15.714563905945063 13.105427736680362 13.223799435503356
Sn 7.698717340862353 6.862524704476732 12.704388704884112
Sn 8.690391727435266 13.315529169617841 13.452290989095397
Sn 14.01189036559568 8.497209309585768 12.694010451791085
Sn 14.101684070912448 10.908164639640574 14.724028316467766
Sn 13.291831996622443 15.743926272029556 14.35697281737096
Sn 13.378335495523881 17.6652782573342 11.895094717679857
Sn 7.703855919185534 11.88045073259823 16.00676692969057
Sn 10.345942449297125 10.315095513668734 15.509822709769614
Sn 10.446132908897495 7.290039334693228 14.245211088175722
Sn 10.287086518594911 15.078371984517563 15.437911659311032
Sn 7.597345592231245 8.68661474932363 15.4867853965056
Sn 12.699311228404 13.342534695899001 16.352331668753216
Sn 12.768493150608933 8.298756827886875 15.885806433992157
Sn 10.121910203266506 12.40362495518589 17.81424024870117
Sn 8.411510090953556 9.830568938642719 18.331102274873665
Sn 9.707440991813275 7.2571323899380715 17.19123424616218
Sn 11.437259723908543 9.591130081286595 18.42887139352129
