44
Energy = -154.76401479 eV
Sn 14.359774436390179 11.292651154279067 4.8331706122073825
Sn 6.900669827334351 11.216894135393177 5.852130578603528
Sn 9.369588930435597 8.12463511958967 4.504807505848174
Sn 11.423842690348655 10.668242019460605 4.639217881407961
Sn 12.917316282788208 12.366836954113896 7.2175045098347725
Sn 6.592728950477503 8.115196966757525 5.92513648009526
Sn 5.59370284481048 13.417491509675695 7.621625478326381
Sn 9.605466429663839 12.209208803689492 6.494100611564737
Sn 8.227598447825484 5.472986897611328 6.3692954422830965
Sn 13.447353774931607 8.402814874933801 5.632102093722767
Sn 11.203617688672738 5.900415192664004 5.387811275355808
Sn 7.853002370487048 14.826859165849507 9.059818689183741
Sn 7.280877641908367 11.108686669318438 8.821146422524553
Sn 8.258362008232169 4.5257689032991175 9.273930444435438
Sn 10.904069532632432 5.99980545592973 8.347277771646462
Sn 10.735078131166294 8.903920506399208 7.084443933401691
Sn 7.91454829111624 7.691191712759373 8.677739275501374
Sn 15.546211905971868 10.069632448098291 7.36746264769414
Sn 13.345524200357518 8.429914005972954 8.748910197912666
Sn 10.671439663321818 14.538909823878425 7.958608144348854
Sn 4.778511499580809 6.860579173881549 8.100958915085826
Sn 10.803218252718462 11.159508150071959 9.242812045443378
Sn 5.3273459878928815 9.116687537131094 9.90217653374704
Sn 13.854142377586141 11.175211739773802 9.811287699686028
Sn 10.399405986773884 8.247805840194726 10.535599990871093
Sn 5.574284743153783 13.287913879773917 10.719628731468683
Sn 13.581677474799935 5.67637008056027 10.03461106425781
Sn 13.901433859220974 10.23037840201653 12.837675194509544
Sn 10.556186613811866 13.711380785943286 10.952220579473206
Sn 10.841081241620014 4.563018866961714 11.021639500669416
Sn 6.14915873874213 6.07371810960396 10.720507877570475
Sn 8.300590592908986 11.725003313101423 11.600971662943614
Sn 7.650303439622046 8.286230621721025 12.234135322839531
Sn 10.896805923466161 10.33179744492857 12.816133888366462
Sn 9.994264215824717 6.495034634670749 13.233164371898845
Sn 12.718782099251444 7.321100556348941 12.45341630319556
Sn 5.497620792585328 10.69368682414878 12.45841131157551
Sn 7.901645347562642 14.824838811653303 12.089062624424397
Sn 12.3819305628186 12.935684091903424 13.37701155560489
Sn 9.689213379504844 8.828680196301512 15.158752562012968
Sn 7.3059423727298505 12.632411174850075 14.480662527396294
Sn 10.148307057507353 12.174666076712088 15.181377710089437
Sn 12.315301632356519 10.179372272965063 15.66197277783924
Sn 6.7700965701203835 9.674883906142696 15.047594064166361
