47
Energy = -166.34487498 eV
Sn 14.871436760425393 10.83539180239821 9.404251261086014
Sn 12.490427662384164 9.856103070056744 5.598560875790794
Sn 13.899984233015346 8.30536101383241 7.898915659220986
Sn 14.977044714421897 12.416979808461056 12.056311352352118
Sn 12.325263931913586 14.30860766429334 10.006222667498196
Sn 14.769047962774517 13.91123258527909 7.988476405911328
Sn 14.886644095272073 8.539471305233562 11.4435781296456
Sn 14.270016345473445 6.01045750205681 13.132201923450506
Sn 9.46752702952092 9.317592769384444 5.446624057231532
Sn 15.123313374908768 15.389905281422914 10.811986830862354
Sn 12.49602621334824 17.057726452102752 11.393344169254023
Sn 10.838162751640256 7.960189089093778 7.994171393780478
Sn 13.82180396259521 16.91482545409169 8.420653205774547
Sn 13.385137309616812 14.953778457642803 13.617942660805419
Sn 14.112140591036821 11.969603154229969 15.043514360063567
Sn 12.124109610571747 9.637479120966496 10.238840876086368
Sn 14.735304124777462 8.929795185560348 14.501090737535419
Sn 12.70014670317703 6.379724229471494 10.448298803923798
Sn 12.139015534384658 11.890926437388055 7.894894357648012
Sn 10.764821585619497 12.20386651497174 4.995528922050211
Sn 12.062679484810046 12.182965113111768 12.625129024244204
Sn 10.42832979617987 14.781603417060525 12.99906319144877
Sn 10.737190857683496 16.70673072878813 8.765245020005846
Sn 7.167040278628308 8.524370332060776 14.371542966811818
Sn 5.9993008526211264 9.790024283982913 11.826155814872806
Sn 8.202595000245191 6.0113205736272715 13.11078680157936
Sn 9.094107401957233 10.32048207995104 16.178281430816885
Sn 7.0939048118603685 12.600477851085575 12.180547292429917
Sn 6.558333448690755 12.650624516456464 8.998139971291446
Sn 9.874222130111066 7.2480161520095585 15.644648331424289
Sn 11.240722669725281 5.408561471947488 13.34439165478174
Sn 5.598170455481388 10.186492718122658 7.705132912395641
Sn 8.28163941224101 14.824423595838601 10.360021760081967
Sn 8.333512156403337 13.373637038102443 14.927813670469698
Sn 6.680347362668662 7.964191636587149 9.462505714768218
Sn 9.339637372867038 13.962314301868929 7.527263083981267
Sn 11.260607505694134 12.793783231378942 15.661462804351238
Sn 12.225858749436771 9.734193433886103 16.435478319520495
Sn 8.854072061723224 8.590603202288971 11.52619919125403
Sn 12.991202465708007 6.714762215414967 15.881367510675599
Sn 9.603448749759805 5.939008010967332 10.241298254717616
Sn 8.557464522958979 10.104535726149017 8.34491877625866
Sn 7.731644680835743 11.794331010131167 5.8145999479313675
Sn 9.38630318063539 10.943019658544241 13.242226051622241
Sn 9.775090250711422 12.119467410423715 10.15261488003299
Sn 12.209309339453927 14.95866808039727 6.596747180330537
Sn 11.97106765350833 8.437552461355653 13.196186941407491
