47
Energy = -166.2976544 eV
Sn 13.713659894725044 12.33425802906548 12.4272012400133
Sn 11.254560280038048 5.889725204005471 13.476160234652092
Sn 13.216037605798636 9.570849618555233 10.357817808622748
Sn 5.3274264378293985 8.930769574898337 8.398190253684541
Sn 11.90208940540139 11.498161185023278 14.705393772006998
Sn 11.595329170340937 12.941072842370577 5.319386575693493
Sn 9.775949174973176 11.62039102121842 12.560528509501996
Sn 8.334643993688728 8.381524852434222 8.577140359444394
Sn 11.23586145367454 14.442260166304179 13.391400776440896
Sn 14.522111929512565 12.727294688527968 4.75394263469954
Sn 15.098723101888499 6.938746822443514 10.4715598925284
Sn 7.074476548312687 10.17345567681677 11.059096033558752
Sn 7.181453040278242 5.908193446966699 10.166779798488525
Sn 5.7127865371757425 12.885380013762875 10.811704378774612
Sn 6.135213356141759 4.049319306752413 8.076591248437174
Sn 8.791846083642904 7.793414140633735 5.532512870367466
Sn 9.062297619121722 12.175958897012203 15.63799030182499
Sn 8.041157304751124 7.5686985781608955 12.753812412991314
Sn 13.849471998742269 11.36162655280225 7.449698515346661
Sn 12.250015567672728 8.717458953032343 13.409599423986391
Sn 10.300164098891349 5.257029299652852 10.651750709387246
Sn 10.009767087096737 11.483638367269794 9.502092001223849
Sn 8.883697505990813 5.429894458550673 7.575214195153235
Sn 7.888619451285035 10.704361063406132 6.589551435973748
Sn 11.252441649286702 16.022367546603643 10.420685236674798
Sn 13.218555377370324 4.55831781737735 11.249502349420686
Sn 12.949475118877622 10.053311556249305 4.559086951169887
Sn 7.789794378687717 13.218931646487775 8.433613247681114
Sn 12.420057206661964 6.8551546372944285 9.086226382401795
Sn 4.921481611149195 11.320263602474355 13.51434418153338
Sn 14.324020527523913 6.186410899213133 13.51578538414055
Sn 8.841557698863857 14.335183471674037 11.271754884203332
Sn 9.865942831259142 10.72544063741354 4.2266936730132425
Sn 7.440302650826213 10.10439738029861 14.313472338238308
Sn 15.135231563178781 9.036892137294908 12.70771339589824
Sn 11.832717584440804 7.5075277794071695 6.1648221867612705
Sn 10.479142553638463 14.537604798827635 7.80203147977586
Sn 4.175357552036407 6.191187862245291 9.153228277103196
Sn 12.560233911552372 13.252878668964899 9.778529519126305
Sn 10.442482279260037 8.334182330642859 11.020371981969944
Sn 6.0347352174152435 6.6054177326423975 6.4956912819107675
Sn 3.8535728773175726 10.399417996853382 10.6688831760446
Sn 5.039399513648807 7.8049486737365 11.628919506883978
Sn 13.722643646523258 15.312593350100604 11.895415859009617
Sn 11.03337152038993 10.201740649148816 7.0288958084983495
Sn 13.618321902049939 14.47259836596673 7.080097261557173
Sn 7.171682811350263 13.459628329697674 13.609000884463743
