47
Energy = -166.23828862 eV
Sn 16.36233107381709 9.07987968669885 10.751764120856816
Sn 16.102667196476627 12.334165013628372 6.860770302373898
Sn 12.057179881720243 16.42759797893639 9.37840127451658
Sn 13.83868689715055 14.261564572509066 7.618407308295867
Sn 15.08547777217528 16.926828119574324 8.540471318668525
Sn 15.802594550497588 9.305042238453755 7.6648309209996235
Sn 13.613336803872905 8.374034737479635 11.64925897051629
Sn 12.946206040512509 8.468010916600562 8.60895461519215
Sn 17.649813086810653 11.427093257887686 9.386119075562982
Sn 10.617871124907165 10.324177262602724 7.738208077092611
Sn 11.197619808856325 13.17497651819114 8.81365664038108
Sn 16.883382377094406 14.485685449044931 9.021215726057305
Sn 14.230479442361522 17.651392124410318 11.408781621598042
Sn 14.58642138046824 11.371864087724337 12.310154750353021
Sn 10.05873740578784 7.762449374557218 9.483412970112113
Sn 14.082155143168574 13.981208060982024 14.35111639909501
Sn 10.479333629202355 8.196331143218387 12.613833609138494
Sn 16.102272547117053 15.989956548960548 13.23821688407674
Sn 7.663126409518562 12.081290299522406 9.927702973928072
Sn 11.243774238347806 16.87875054047506 12.286540875903587
Sn 9.134837876957228 14.859638232176643 10.201389794709721
Sn 14.315622125051238 14.548433174121813 10.940282217990182
Sn 14.192890772527331 11.438764378095154 9.254634442058629
Sn 6.023919792875972 13.599897071529305 12.051601364773186
Sn 13.42112674844611 17.24793012034674 14.446213688909472
Sn 5.063485940528615 10.716277634162951 11.275369355180471
Sn 17.408298980420916 10.505282929005086 13.272250318814942
Sn 17.160085337974262 13.356977334038085 11.866043081473551
Sn 7.735595373805073 9.504959799275383 8.3744252125197
Sn 11.481894029050137 13.580898999455508 12.057626864660877
Sn 13.271451729616984 12.353161685443835 17.648090526283006
Sn 9.001516942402484 11.830526669563042 12.639092169314063
Sn 4.355350576703843 12.00605886585042 13.981191034254675
Sn 8.547446805580034 14.93301903492448 13.313126488705372
Sn 11.327817567646674 15.018779991838787 14.935498286878667
Sn 7.771398680924787 9.162879100576083 11.447404150449461
Sn 12.555849190480293 10.821507551712795 14.904249452774604
Sn 15.622257323984535 11.685189545044372 15.691175222000636
Sn 11.426175060863478 10.388561260288368 10.720109671290418
Sn 15.06179553062007 8.698622108165063 14.454672105655602
Sn 6.29834942406742 9.76692508058657 14.160388468304559
Sn 10.348445696991504 12.48689717031135 16.44830238355775
Sn 7.159738626473033 12.724807290766181 15.048170118930546
Sn 9.309105575713415 9.941740456852806 15.064276151448755
Sn 11.406585623302863 9.794366592110515 17.803066530436844
Sn 12.299636577627414 7.855216608466803 15.616199210336564
Sn 14.433221944211589 9.40978863225791 17.460803870225526
