48
Energy = -169.4153022 eV
Sn 10.420846204744155 12.90860159533904 12.715515508622406
Sn 13.415157364027941 13.821918756793602 11.755321570039433
Sn 12.811012894623975 13.729287953351658 14.838318763624692
Sn 7.523359883356208 11.95764509324853 13.850867254055242
Sn 6.351608581484603 8.16973513182926 12.134139419624288
Sn 7.9610273309198645 6.748405697519891 14.17479794173145
Sn 7.742314706422092 10.78344069217956 10.814446402670121
Sn 7.135304539618428 14.616050099112089 7.489288504573057
Sn 6.071816401119784 6.930731732684932 9.381237254376675
Sn 8.550646124620318 9.591111535033814 5.081537277543353
Sn 5.684912763586452 12.977008284520107 9.895304762938204
Sn 10.626458230923543 11.669243641239042 15.817007171929466
Sn 14.319867662543409 12.576985594446045 8.110804869090765
Sn 12.791700036117682 8.164448164154484 6.135112244477858
Sn 13.610982219937782 11.17888564071804 16.54653150700171
Sn 7.216602880375622 12.520684104330956 5.044338768982817
Sn 7.691527223129014 9.136486641140314 8.102167967970868
Sn 10.080517920010593 14.757072077046134 6.363705306022191
Sn 4.875806416326984 10.163931009115831 8.968991425413831
Sn 14.910179039258695 9.157629010335146 14.479655128159337
Sn 9.119804449643562 11.910566417275783 7.46631743833512
Sn 11.612072538279739 11.404236291879625 10.121797924025753
Sn 12.55905662876835 10.797369801872609 13.358592444265327
Sn 9.294730006542832 9.479139013312015 13.97014256462819
Sn 12.868906469277114 5.155206137450364 7.132243215127639
Sn 8.820731122180606 13.612586191444382 9.960708071500719
Sn 15.352394463977602 12.14085729961537 13.977371230083065
Sn 12.015589923330094 10.9977333332264 6.913132736310778
Sn 10.288184199455559 6.660165139249579 5.329069758395955
Sn 9.985166515114644 4.8376641224871415 7.8942918097063215
Sn 15.415155418703726 8.3525358010703 11.232355813548619
Sn 4.760994140157313 12.634918299662276 6.925180122307302
Sn 11.95832234056572 8.661140767086135 15.58800299430775
Sn 7.343427539652161 4.210660034913885 9.034842949326448
Sn 13.029262012001015 13.77334668794211 5.79596595220488
Sn 10.507752359599259 7.860547065970677 8.243961426659247
Sn 10.415695706518866 12.153634013961648 4.570757787651842
Sn 8.663634702863463 6.0505769057643555 11.182209681401076
Sn 14.576550687348533 11.213331982788187 10.795663021928855
Sn 6.442335789118126 9.322742080699035 15.094547696774297
Sn 12.820949295407635 7.5316454569598426 12.459222089718237
Sn 7.406728284771942 6.336997440842391 6.636482555347603
Sn 13.52907752538213 7.537470528064259 9.041854834216597
Sn 5.011492624197562 10.76191391713348 12.421754444336557
Sn 11.785535603905538 5.4280313687067645 10.263632399705093
Sn 5.577520911083865 9.794041040355047 5.956923484941258
Sn 11.923971775686251 14.299394539785593 8.844538376913347
Sn 10.289508576309252 8.688445899331285 11.255548160473792
