49
Energy = -173.22679296 eV
Sn 8.769074648122638 16.74313372222467 10.234239075984265
Sn 7.215142817115713 13.927004125151532 11.240528043620374
Sn 8.295132951990487 16.016728278161352 13.250190466971963
Sn 8.311428828704026 13.122672046847974 14.395443769801531
Sn 7.660351538256551 10.624943455132005 12.679458513967965
Sn 7.6090991810374575 11.29476015777361 9.587797320193012
Sn 10.706895694795401 10.75647737903119 9.687000797176404
Sn 11.78466457859214 16.77731942331682 8.130268432029755
Sn 9.358965299730595 14.062312441449127 8.979331591839516
Sn 11.518129490188844 17.045602771558563 11.410314423289721
Sn 8.430176754097674 13.919426394024141 17.3521244025812
Sn 10.372570523530605 14.238582577959807 11.83469745653597
Sn 10.202145945945801 15.765109359027527 15.804335760391721
Sn 8.77401091545585 8.60552207076895 14.78727194482699
Sn 14.500483498725192 15.8962420420727 6.8763267150158045
Sn 10.505594851730079 11.058358975771233 13.580708071701572
Sn 9.954741360517616 8.23504004743594 7.811224338814207
Sn 9.60852998301934 11.116565727846117 16.73305121254234
Sn 12.387944150704927 13.477860332129092 15.081842145657344
Sn 11.297424804044265 13.5522117469412 18.185997991643138
Sn 11.626257841946245 14.314563356806175 6.3570293901117685
Sn 9.282371949665142 11.850363399411163 6.999869765682737
Sn 8.527027910006035 8.334162347941408 10.482675351944614
Sn 14.367832681955074 16.626580005398548 9.924187931024719
Sn 11.959331414031526 10.418753444647912 6.798801059969537
Sn 12.726419691737027 16.750389042282467 14.356694020061392
Sn 9.783560516115319 6.579290312389649 12.668740957695142
Sn 11.061866926470717 6.200823916960056 9.858633237410979
Sn 12.973440321656113 15.929629184745279 17.354923798483217
Sn 12.853861166970237 11.137722837755568 17.415951478165027
Sn 11.647912539675266 9.054056772123221 15.569263415984935
Sn 11.994580402947541 8.597575564962261 11.88840812817704
Sn 14.246157463731867 12.693275255965204 6.680043991520939
Sn 12.892287566712389 13.999588993370423 9.171464709688932
Sn 12.94359017319778 12.135851861660502 11.760141840671189
Sn 13.032448014996918 8.394151496767424 8.867501256745372
Sn 16.145589783098593 14.112757128510513 8.744794624808026
Sn 14.340940678239015 14.753634472821048 12.575545611350366
Sn 12.618152854954165 5.424870200737232 12.448073968907531
Sn 15.246497384712276 15.217361116634494 15.513408661814557
Sn 15.241575456208283 12.239134430761837 15.759015764129645
Sn 14.546392817628469 10.25146694041189 13.512783113485346
Sn 13.88409546527055 7.360545702186239 14.418614577437749
Sn 14.782963317164187 11.13388908809794 9.504526820099157
Sn 16.807854027905574 9.671468200048745 11.319552649879009
Sn 14.966359600391588 7.180544030884261 11.335791962615536
Sn 16.391111571538435 12.814647413630775 11.670913811132534
Sn 17.567147769464405 11.097663150292044 14.051955049259615
Sn 16.82180270397661 8.057567777206055 13.926550010409743
