45
Energy = -159.18367622 eV
Sn 11.413844455351706 13.957432811919793 11.651491618704485
Sn 11.290977142586858 7.614876383618818 7.317139404186683
Sn 9.602623845947512 10.894216030808025 10.496783919534623
Sn 12.90458744084617 5.449068137795665 5.209491097909097
Sn 11.564768708180985 4.7072915320402595 8.022104530700231
Sn 6.857862399202787 8.537455031372225 3.1510038748148133
Sn 8.698944700607806 12.064492844704741 13.429832122541551
Sn 11.179692309462805 7.508240433627942 11.086132155626565
Sn 3.800072804980193 9.283398414647799 10.091622471711425
Sn 7.628376855296635 7.131060374905566 12.657957438335705
Sn 11.425772927302415 13.410514951188524 8.78021380896204
Sn 6.11968660793174 11.110776082277939 5.02981892887869
Sn 9.744740093148677 13.887725235248361 6.465400861802703
Sn 10.131668980571488 10.794062588695745 7.360519608139633
Sn 14.112455442359815 6.450576795756079 7.917597151709968
Sn 14.40157932454772 7.8258160246845705 14.744676117434036
Sn 11.274347384984383 11.995388893116798 4.703902402426527
Sn 9.798584158399157 9.14808374722758 13.221531092180664
Sn 12.227022749373978 11.11583068874404 11.936160370493871
Sn 14.074411836970125 6.773996715281357 11.757307702400993
Sn 13.345974950687397 9.182181074950813 9.757700782045985
Sn 8.041444348550426 7.549568000544898 6.046978557762682
Sn 5.007070060721298 8.084848005778438 5.629647321642292
Sn 5.9719954768549215 10.824671299511722 14.410212965829626
Sn 8.559542022530534 8.244032199778456 9.064314649672458
Sn 8.980730294328383 10.113598440565877 4.610443522287107
Sn 13.656510432783845 8.483734815079588 5.628759530633291
Sn 4.804157168972892 12.265814218927504 9.873352326627202
Sn 4.180301090093816 9.816966041150078 3.3530629197449446
Sn 13.044181899404403 11.276028989906536 7.25033929090677
Sn 9.854372375796132 5.151984739526422 5.51638599622004
Sn 6.016336056231817 6.9181909468660026 10.172678303777314
Sn 12.238354924126128 10.015006145718527 14.793550604169441
Sn 10.992358240435369 7.722068257765508 4.2195092426509815
Sn 3.50155436103611 11.236511069463567 12.60536750195582
Sn 14.825226215059823 9.706001480961167 12.42232390536253
Sn 8.479354485380108 13.756487047717897 10.754505640592583
Sn 11.774194559941327 6.815490464319905 14.03887626877808
Sn 6.106088448073245 9.699416500786011 7.9934317591917035
Sn 5.808591376119129 13.344521788715618 12.561138348463274
Sn 6.5976541966257765 10.381801747790664 11.427555163542022
Sn 9.320035741266075 5.402704727024375 10.114785975228056
Sn 9.589490109464943 4.97199509790503 13.06314647489338
Sn 4.766159675647478 8.303225308325649 12.973488660244145
Sn 7.659173060957045 12.445719612400062 8.060629348424225
