45
Energy = -158.87861426 eV
Sn 15.494306009856878 8.362264182668307 14.29685532191126
Sn 17.333165134367174 10.937679785062558 10.038081172031662
Sn 3.612554776333733 9.419467886094534 8.262681486994547
Sn 12.22788037518641 12.554704290187846 13.787497951505806
Sn 9.363059539054815 11.415862549690061 13.489987895782638
Sn 11.726895790000803 14.818590501834272 8.794110227442037
Sn 16.520292665858445 10.855044824572065 16.030902178080964
Sn 12.056173007180261 6.0200314080042485 7.2964577274561835
Sn 9.09608314640371 5.457262336563106 11.66018220574575
Sn 7.3130426010025396 13.701519505381889 14.118722496889118
Sn 6.290517098490258 10.609132552034506 7.325238945632899
Sn 8.516298852753149 8.866345614069537 8.368575538878401
Sn 8.259083551202295 16.583317810925355 13.246098897559465
Sn 14.3157051972984 11.179535649123133 10.379181875182121
Sn 11.327705084162048 16.233883342686934 12.55829934883842
Sn 8.883959510946577 8.223768346754241 13.446423704905287
Sn 4.233114110991255 8.592592007021825 11.069699837294145
Sn 7.156395064724291 7.8131874615853745 10.994114581204379
Sn 9.358151892818194 5.896639585728003 8.647507864370139
Sn 9.5850257499276 13.882431322095217 11.85017147716925
Sn 11.930749878189122 6.4814107969014865 10.288963373020493
Sn 8.743425067283116 13.662787588050923 8.454445880474392
Sn 6.7452474202295765 14.677000130197847 11.18276730312094
Sn 7.829417716458498 11.272658969910667 10.044532951834757
Sn 15.22622903198803 13.124449660410619 14.471362134289425
Sn 15.611047998597293 8.511492166029457 11.263959719099152
Sn 10.715292046340688 8.607813207477951 6.238641782165717
Sn 12.751879124600018 8.870174432487397 8.408971373606594
Sn 16.193383929220108 13.471845569951354 11.555497407423847
Sn 13.560258446944884 10.52458344991153 15.57794794067864
Sn 17.028193019163588 10.804230964413003 13.091806607587634
Sn 10.117736540142658 14.684204241133752 14.965975046956109
Sn 13.23242970114195 10.39550094282158 5.450228980747869
Sn 9.173408576903894 16.46033657501482 10.238613898738052
Sn 6.271912118369204 10.418073673084907 12.488999956265637
Sn 11.59078408600047 6.564814218369057 13.203868060972795
Sn 10.432184587757042 9.041716477529047 10.978960256916197
Sn 15.368002592912081 10.079065259929225 7.592582725203401
Sn 5.812309683184329 7.404830745654986 8.266045484480022
Sn 4.772932026053801 11.619866076033933 9.977339348556212
Sn 11.200976633748065 11.838467718805129 9.851921484542002
Sn 13.681261583023423 12.656754394838584 7.5559916425671805
Sn 12.98968582866898 9.413916607598402 12.796229352288023
Sn 13.179813531787742 13.918191825414532 11.29961441718186
Sn 10.857906595500198 11.758430268714594 6.779819059176371
