48
Energy = -169.53524479 eV
Sn 7.5959427152595485 13.406426144736095 7.473726011991383
Sn 10.832561517304377 13.779510698457862 7.541608616737231
Sn 6.097810423732203 10.739843899701095 6.476046396180063
Sn 9.22392441419571 11.07442765367659 6.027148364668595
Sn 13.888925587234231 13.88895205469468 7.89154407147875
Sn 12.171374713501997 10.999448083333679 8.075974562305037
Sn 15.449984058143947 11.324366112626258 7.568811749536031
Sn 14.18953773298813 8.843788926847955 6.352057073516395
Sn 11.135870605969552 8.400293368363512 6.490103890985571
Sn 8.008894092571012 8.410483676609026 7.167876896566317
Sn 5.475412847237721 12.057975372278115 9.219589801765448
Sn 13.30182170675012 7.453194407198781 8.874452810070594
Sn 8.67532283735739 14.808868297685807 10.11994579241219
Sn 11.644466836532148 15.822221260339651 9.77927117793993
Sn 12.438241372547274 13.034874669676292 10.674729971651754
Sn 15.454062606094826 13.842025386351024 10.48108792612557
Sn 10.0130277001818 6.595840139454932 8.711806682033757
Sn 8.439830972581943 10.865318217730781 9.112380788337271
Sn 5.805817365063058 8.992257616563803 9.192572861368298
Sn 17.020106124035017 11.085337014622489 10.170557202454214
Sn 14.11567908873262 10.13948813474022 10.323124779129744
Sn 11.08259508053412 8.927401659732446 10.501276966360965
Sn 16.35237998971683 8.305262571361089 8.758557680699514
Sn 15.35415388668765 5.851453155296503 10.646951587766958
Sn 13.350890187203806 15.564494108077634 12.380992104161486
Sn 9.22971779549607 12.37314130516965 11.931715802205813
Sn 16.36630260563583 8.509278686412548 11.992180722561878
Sn 12.199460655785021 5.397085030784582 10.78087094274613
Sn 8.297055281679556 7.812532907138458 11.247916430712866
Sn 6.44675176242103 10.495490161664003 11.925162704673141
Sn 14.585068947098364 12.603634148245 13.17861656832425
Sn 12.19965707486658 10.614946065713067 12.804303710694978
Sn 6.25372448612049 13.564063015067417 11.914972440551988
Sn 10.652319049138516 6.907636681113934 13.076777379937123
Sn 10.147394720728427 16.99417952950248 12.133986158572592
Sn 13.72491291287206 7.136107441709514 12.904311528528654
Sn 14.700345371727373 9.58458885381055 14.534290087967868
Sn 9.072193687892755 9.742705422337606 13.670616742775438
Sn 11.080564567697321 13.194729549429315 14.490111727009056
Sn 8.374619903151777 15.133442188972566 13.592837404829197
Sn 13.83063659699892 14.659412989314134 15.446383232472494
Sn 7.621605694253933 12.34526867951619 14.769827828798881
Sn 11.741182347553227 9.001640836665807 15.35865354369856
Sn 13.200924192380006 11.74574067973075 16.4491560033835
Sn 11.14046346927015 16.250543046721294 15.10554158753965
Sn 9.981751822087292 11.546683982272265 16.858739533383122
Sn 8.878169666667533 14.67294165504989 16.599186811588236
Sn 11.668330279043458 14.012441866225398 17.73343269352441
