41
Energy = -144.48306847 eV
Sn 12.955979361692739 10.043004466279449 16.4820629403704
Sn 12.364880938326367 14.69182189312839 15.961150230966924
Sn 13.1416735695705 17.623560487109323 14.816508036961302
Sn 14.204356810164219 12.398669565138935 15.096405958143654
Sn 10.533188905738237 11.848566511363687 15.640698477004209
Sn 14.86303537832675 15.35506965249273 14.022735569447331
Sn 15.951129353120706 12.818534316500088 12.538025651560973
Sn 14.872089362812748 8.73974201555313 14.558391497518041
Sn 16.44999997994571 9.729268991799705 12.18445725580956
Sn 10.355922707572535 8.808977301973199 14.91450107304373
Sn 10.431110089240846 16.40896791068903 14.403610161844785
Sn 10.008685001842595 10.8554954852544 12.673833258196812
Sn 8.468093724001156 13.3097076779192 13.999667636536797
Sn 7.739899387720416 10.425772432926182 15.219021057232125
Sn 14.199897338227704 14.64059113948492 10.898857423743399
Sn 12.028664592289992 13.801444211294507 12.972911343909335
Sn 12.532734313056336 17.009878759395978 11.891795120575628
Sn 14.62602116255966 11.254494658309767 9.81671526180971
Sn 13.366885011667343 10.673465776971945 12.568224191035984
Sn 13.008315406376918 7.6259584211124265 12.594538851663845
Sn 14.867191802097544 7.87656573012959 10.367497101701861
Sn 11.703730529541517 10.152224421209441 9.314042555772847
Sn 12.707693776953707 13.482896229877156 8.32021849014383
Sn 10.297710914793779 6.479710481808858 12.743002399999677
Sn 11.163448605900655 7.189662327324328 9.689275351605716
Sn 14.29461893958193 9.194022327548302 7.574661055856358
Sn 7.715461882089346 8.39138897215948 12.890694474138071
Sn 11.179787394314058 15.997985027554805 9.149544918003297
Sn 10.282742462745219 13.080344109767756 10.174322051989614
Sn 8.247259918371162 6.6005941559944015 10.362967437180952
Sn 7.031158533625725 11.360401600895216 12.158433991783932
Sn 13.578736256605048 6.187013016550814 8.250161463692763
Sn 11.944239286378473 11.03765182915888 6.278537378725435
Sn 8.819326438912277 7.5536007553593425 7.60073951737195
Sn 9.409098742157921 15.554447234553326 11.748085195869704
Sn 11.633786742497458 7.982981850687961 6.516789559079231
Sn 7.190252949553822 9.500214415480535 9.47493271330226
Sn 9.64095652720502 13.836889567053273 7.115416716246219
Sn 9.206305731997766 10.649506761244604 7.458178718723278
Sn 7.474394130372011 12.712654008730317 9.200344139403729
Sn 8.14329285185447 15.7500103140169 8.99180058383662
