43
Energy = -151.46487157 eV
Sn 11.078138533611993 9.067904046344582 4.544945856991563
Sn 10.172995357142474 6.233492654624219 5.716397805304441
Sn 13.215980205902508 7.065323631801123 5.764200910803346
Sn 13.392833032202065 10.17258509822246 6.225070377958602
Sn 8.393253527943672 8.74654807221913 6.172725649125339
Sn 9.634417856285193 11.83458973602585 6.638313065482996
Sn 8.734190790969823 15.110823777610591 6.605627614869518
Sn 11.11644096646276 8.875883467173084 7.7688791908791925
Sn 11.893654364372711 14.483354448465564 7.126988925569041
Sn 12.004644899053034 5.617167051848172 8.191445782771641
Sn 9.2038281604183 6.7335640777734085 8.834200061504148
Sn 15.198557020751188 11.209626093308861 9.594686088045831
Sn 6.93244732133902 12.981054075021252 7.986348973844485
Sn 14.211145832213239 8.254642026465897 8.569208496154772
Sn 6.6264700797856735 8.337200400565063 8.777981646403594
Sn 12.05864181631867 11.669001101688712 8.958949487486578
Sn 8.581141989136118 10.596880863928327 9.468440596139862
Sn 9.732251508017352 13.75871676096014 9.250995970464974
Sn 10.37297397365112 16.675448275938137 8.941356029161788
Sn 7.323085018113731 15.749517927132908 9.351123631705459
Sn 11.951866210271664 7.734717109300719 10.638581114956411
Sn 16.382772118899112 9.551080450131387 11.926019180547906
Sn 15.288120029250841 12.567151432973818 12.522003882097943
Sn 12.45317907305879 14.384900899251186 12.003518401854437
Sn 14.285942450603136 7.62347205766247 12.998762652099238
Sn 6.983852734155294 6.915705123220631 11.708750303541583
Sn 7.168550575166786 13.016879617496897 11.293418061568428
Sn 13.915705001461669 14.058282395069098 9.438998568192229
Sn 10.349454561317476 11.996671040179965 11.719731936342283
Sn 9.875149650546957 6.1074958607014365 12.052413791021923
Sn 9.075651970665625 9.20909134773784 12.613416529472547
Sn 9.54502272533258 15.405693809450794 11.801810500627152
Sn 13.257549789190316 10.270676441097368 11.817052005788064
Sn 6.17259030842186 9.898879502180622 11.613372794704325
Sn 15.151054958083161 10.283269007472791 14.658434179204407
Sn 9.618276530631459 7.2963838134791885 14.955435680211677
Sn 12.602333562711609 12.199974272353222 14.290916649438577
Sn 9.030402781955205 12.716356621223493 14.304731417499806
Sn 6.338284481322283 11.423357263013012 14.25789366741961
Sn 6.6496149714004416 7.917771222487037 14.567439693203859
Sn 8.755903152034078 10.083470622855216 15.887858411849225
Sn 12.178595542122613 9.09980738091494 14.544697507299377
Sn 5.83943030864548 9.81198486356869 16.643252651330286
