48
Energy = -169.86822348 eV
Sn 12.0485819836689 12.73648487286639 4.933576445318512
Sn 11.206148606327385 8.060987299244443 4.2559909361762465
Sn 6.608733969108258 11.878462962906335 5.249095473534204
Sn 14.057731875994223 7.026874297644769 5.639217594787224
Sn 13.103180460747065 10.05797715197632 5.448710527070457
Sn 12.23381692398606 5.20682465160363 4.285822025243797
Sn 6.588757739515765 8.950122398899584 6.5745814369550315
Sn 4.169722264368176 10.889494027186412 6.962077466125665
Sn 8.594505132946455 14.084156118637717 6.760439941344355
Sn 9.602368259785026 11.381580948581998 5.94639793388058
Sn 5.565807443986225 13.782465760073961 7.659820620245425
Sn 12.566759623207442 12.97002922285928 7.835503133715472
Sn 15.585324762648979 9.28121451549283 6.909235100599635
Sn 10.219717380499082 8.716925120744039 7.157664303161012
Sn 14.554903390052548 6.899122532045181 8.796556771594581
Sn 7.2071654651598935 11.343326888852028 8.37841036615468
Sn 13.037058391625694 4.518449727705466 7.3341903765365055
Sn 12.897094169600258 9.508344791196617 8.468982815957098
Sn 10.116355581154389 5.691986090057935 6.4448241399329
Sn 4.827780445482351 8.777251639342081 9.11654592618796
Sn 4.459306934087613 11.74239818248008 9.993913114303389
Sn 8.070026230940329 8.327968959054138 9.503778985087163
Sn 8.008590163656658 14.316225901379498 9.819801425737126
Sn 10.093831633526355 12.109551408477547 9.311130013502055
Sn 10.82295777846485 15.239698041121784 9.042730754478628
Sn 8.919219557319401 6.993611339396627 12.663990119651062
Sn 10.710543335426973 9.287705127746783 11.196840485577901
Sn 10.4641970679868 3.579842709241968 8.923618522866413
Sn 11.074938674909738 6.538537968485747 9.534388463558292
Sn 13.080973847909002 4.532038359712797 10.63943387064425
Sn 12.569285219103874 11.987218453358983 11.669698916308374
Sn 8.141713741165189 5.285349714843639 10.089384222497872
Sn 6.7998597369319045 10.311314282305641 11.437651491515751
Sn 13.88535966640986 8.977200197179723 11.331851241272945
Sn 14.683752636068464 11.753594682957738 9.593402070589706
Sn 5.885434734470833 8.746976105417613 13.849430138205244
Sn 10.744768711585667 14.310299876879109 11.927965810356664
Sn 4.4922192434998545 11.439214450648537 13.28957781931073
Sn 6.198128321694064 13.692997374356874 14.50974994573278
Sn 8.304006754731887 12.720695985653382 12.651315192638409
Sn 10.3267104534286 4.302845991117597 11.999580520323029
Sn 11.35534470567394 12.946334629502605 14.664672496983401
Sn 12.065795373895412 6.755547611660411 12.763864948858657
Sn 8.062370320066199 9.117176381798325 16.026189921993716
Sn 12.649632011807414 10.227239461731317 14.0996846301786
Sn 5.684722088631025 10.968942554762819 16.062713847661062
Sn 8.517269279673092 12.301950536491184 15.90492241812274
Sn 9.670191348764918 10.258106136013456 13.873738719215165
