40
Energy = -141.39579014 eV
Sn 7.4680057299848706 13.540534507950166 13.039529580737785
Sn 8.690506452191029 9.606264718011188 9.973257699687242
Sn 11.482760275447072 14.806025989815359 8.75983264300707
Sn 7.178799717813234 12.61086075486999 6.896938791244686
Sn 6.495780930668928 8.539034976457941 13.254871585929775
Sn 11.35983293133044 8.292803010218018 9.183504708102806
Sn 11.868240497788987 5.828480348534946 11.006015486765978
Sn 6.198760765079003 9.221856954583561 8.386578136497628
Sn 9.453495938021598 12.534666071013223 9.058752121842963
Sn 14.907352743287882 9.937073209202401 11.312711863797116
Sn 12.122625632788985 9.648555073149685 12.580519256458198
Sn 8.926936284554921 10.850212321660592 12.758082986983128
Sn 12.06266842523682 8.206737960367919 15.203679288485974
Sn 6.764495588231638 13.826472436750006 9.595837185056396
Sn 12.35448680674491 11.238622503441295 15.329629447609916
Sn 14.958449115662047 9.701287544535083 14.4518478007785
Sn 7.022978557432264 7.023129956179268 10.468668587754562
Sn 9.311687363046033 15.199243471889176 10.846927355139286
Sn 12.289916309949621 5.248071188541684 7.887228031355618
Sn 10.076174079629364 13.678425913731472 6.181064778167115
Sn 9.21527432720969 12.232276356297941 15.618226185604236
Sn 10.304377974943192 7.194972337150354 6.238784773463668
Sn 13.528333712118853 13.815007517450962 6.680692681093868
Sn 13.486070633074732 11.059868526382594 7.770262218117756
Sn 9.483828151448558 5.817791615254693 8.953989809572638
Sn 10.897609218170803 13.185442333347662 13.001342956241668
Sn 8.811784305345904 9.08783730643143 15.285505418192585
Sn 8.561240733295342 15.67104800744711 7.780090042335534
Sn 10.603783879508782 10.442968267173669 6.922377584072333
Sn 7.992214888096575 9.52694982090696 5.8840230252849945
Sn 12.074820656571317 12.002168738090724 4.803459570295054
Sn 7.3179140594326775 6.750037768971692 6.886956069125012
Sn 9.581526986941377 7.706226611864903 12.36157292384009
Sn 14.035465533717495 7.236036801371237 12.917984922460056
Sn 6.079430033784958 11.099997066644802 11.55061791482223
Sn 13.207490798793248 8.170260430917924 6.638371004902292
Sn 6.365449805973919 11.261384296329812 14.744431785025611
Sn 12.278723980825085 11.855004179879904 10.502268855324148
Sn 14.208836015969597 12.365083572498065 13.060437259299688
Sn 14.21364541176137 7.223054786557907 9.46490291739855
