45
Energy = -158.74302213 eV
Sn 5.793276904402549 4.932491560550111 11.62950642348898
Sn 15.654774618649443 6.254249136970668 10.408993887464286
Sn 8.369931328848441 6.376492734602485 12.638902213945064
Sn 9.115199599365614 14.493159803408705 9.756032363425062
Sn 4.650407554984805 12.233777334260498 6.537254460929603
Sn 12.789019817414921 5.523698253072589 9.223262845889716
Sn 13.54899168272306 5.59320044417634 12.495900528067011
Sn 7.400639968744764 10.46268055807988 13.368473209415688
Sn 13.143189258799627 10.704864579686083 12.551770893295076
Sn 7.384019724551328 13.60600768952416 12.381364161309184
Sn 9.894843971972797 15.402726858598726 12.681706110118219
Sn 11.897098694384837 8.284562100997189 7.3985020720678
Sn 4.484148954623969 10.100648949231067 12.163900967935692
Sn 15.576033922931805 9.436110458933596 9.990749592545216
Sn 9.866914923276564 9.072185828221965 12.070863963163507
Sn 12.137715621601645 14.247493752041471 10.5636668589257
Sn 5.453563150258201 13.469268444964623 9.312769308325088
Sn 8.26395902827322 5.244369757288411 9.708012454780793
Sn 11.139809207991123 7.775387490954412 4.414040517513437
Sn 12.319363175299705 13.587549058283226 13.5436631312877
Sn 10.204070094537329 12.254251757832117 11.75216516728509
Sn 10.475286333107467 5.722004568235269 6.54862830573344
Sn 11.383473003164442 10.090735822704666 2.592034522001377
Sn 5.596717139463845 7.396182096933856 13.596598400320193
Sn 11.68840678633098 10.854821230008259 5.431144810012852
Sn 9.90313418001038 12.287123241993733 7.474762678363396
Sn 8.144724250387092 6.99383985344269 4.900734876968714
Sn 5.393028441400989 6.127591725198739 8.681566618658945
Sn 7.345873792652239 11.114290838529467 10.35180049316526
Sn 6.676432390307852 8.058903522357308 10.71842067866477
Sn 9.42231261600245 12.940314060738203 14.611729998699987
Sn 9.918293332266582 9.795537783370763 9.149305872260832
Sn 4.612462658791268 10.52552070674531 9.151841056889525
Sn 12.25057393596726 8.049091702470708 13.798387169575518
Sn 12.827387546834608 8.07529289912908 10.695676371473
Sn 8.80812917529066 9.788240475944809 4.007619238605508
Sn 14.213268912572078 10.274515778833264 7.196881189028257
Sn 3.684899570678547 7.186384260104953 11.080381851844473
Sn 7.160621307308964 13.91012499608369 6.824804279663396
Sn 7.452127938053781 10.927683183368867 6.400886019507625
Sn 15.260533975846615 8.24776754961969 12.8475978430514
Sn 12.697542529388146 11.285037778935159 9.62847297305781
Sn 8.24014920072475 7.644202352106668 7.823102388952365
Sn 5.342369758325758 8.883376677421086 6.750070013263792
Sn 14.858276502033172 7.209236824590547 7.589047699606028
