49
Energy = -173.20061688 eV
Sn 11.633219946109389 16.51986869102894 17.507745276324872
Sn 12.301127080984111 13.414517655880779 17.692701857619493
Sn 14.616431888107487 11.229109889257671 17.30972128035186
Sn 9.53536681493381 14.3275919035143 16.8237225557351
Sn 17.70548943195719 11.708569747079585 16.501751850721757
Sn 14.415982001621598 15.45816080577049 16.774070887704436
Sn 15.54188411387442 13.231533701345398 15.039933972761212
Sn 13.036491333596935 17.24262918818405 14.704887365848146
Sn 13.376841308559454 8.541333059511702 16.429498640428925
Sn 10.900541720882048 10.17417332093726 14.720762363968277
Sn 8.235254145520395 11.848635361174757 15.108441301942326
Sn 7.46701304546076 14.655048308662817 14.254607743455507
Sn 9.972348144589573 16.700424773234964 14.847295393622764
Sn 16.45571460304923 9.074162417942908 15.812191564184838
Sn 9.90498009853706 12.963736723432339 12.75947480191095
Sn 13.75589939409368 10.86276714333297 14.248285647567965
Sn 9.633822630349268 7.71748346320071 13.429095124757655
Sn 12.978599348355576 7.541505162899206 13.402444272664594
Sn 17.5094879928211 11.107826712570201 13.503723583250848
Sn 7.032344911070892 9.190937402614562 14.015519439263088
Sn 15.255552052724406 14.436817525643017 12.277192136717892
Sn 10.296536563641714 15.909682552641291 11.849923270931479
Sn 12.086363273238922 14.340876732132953 14.810689917752367
Sn 15.291830195586751 6.472124257864164 15.191789601261046
Sn 15.668353449912182 8.767490272435298 12.770978458210372
Sn 17.015823409970903 12.519335604666747 10.879981186355531
Sn 13.982908869508599 11.748705866965391 11.393774559013162
Sn 13.301009315307011 16.614682504361525 11.529007196687278
Sn 7.8250220819169405 8.914513533763406 11.054483617614931
Sn 8.739475249034582 16.60492202268794 9.359480806259455
Sn 7.493342804200801 14.441058305816972 11.15267410145307
Sn 14.553247759573352 15.537088989810897 8.946395786349768
Sn 12.208926180602838 13.818146100295241 10.069808429764429
Sn 6.731037231000032 11.694859550062372 12.312096520568714
Sn 10.885486011433665 10.083697113876061 11.57199169786393
Sn 10.194415030060341 7.027780763699457 10.391118250499412
Sn 15.7344371291671 9.82100403728622 9.767835688227152
Sn 13.005286519722153 8.342160595865622 10.263802047541958
Sn 11.700339889324818 16.86696909285607 8.604375433726421
Sn 11.70485383859237 11.135237113888522 8.154388836962744
Sn 9.010410004459573 10.23159139091904 7.094277946079865
Sn 9.863728290709751 14.058052502046612 8.179280731781562
Sn 8.7619911947046 11.582539624613627 9.906476276819134
Sn 12.560605412238349 14.689325108970676 6.590367220526364
Sn 11.125498838629664 8.116825661750623 7.619917320989917
Sn 14.672186164133898 12.507338089514686 8.18922964787981
Sn 10.34640467112004 12.458551636800332 5.571191878863026
Sn 13.900630544603246 9.17912658190071 7.166012061193674
Sn 13.324241275958979 11.74807293210851 5.511598879322205
