43
Energy = -151.91139918 eV
Sn 13.293654395887158 10.746457413866814 5.185031832040373
Sn 10.00487737913128 10.535542418934192 5.557266026321433
Sn 11.553330005446409 13.21170551625768 5.762094126987113
Sn 8.400546244868613 13.412452743510041 5.761250929109068
Sn 6.931430675231873 10.84052968341892 7.071149498548496
Sn 14.226453822267613 9.517613784308411 8.06018253168619
Sn 11.844322808194807 8.255231476883948 6.6240733910580865
Sn 8.556457624829408 8.091140898703568 7.247943407376195
Sn 14.423242952004339 12.590385546053769 7.440771279535022
Sn 6.944789619540282 14.034045472524381 8.382169633584228
Sn 10.425202967369247 5.652395071244797 8.137282680939542
Sn 12.73110734264981 15.031742263469756 8.028299489114714
Sn 6.199206247241586 8.954005975402971 9.507715555437663
Sn 11.59123701457826 11.076239134933463 8.10962702675483
Sn 12.775637466515084 6.590446308536238 9.831039963186386
Sn 9.700080000784956 15.446625912327352 7.803871728117688
Sn 15.720812720032137 11.551243314942862 10.08181511180838
Sn 5.0965167015404385 11.849261657993555 9.48952895069841
Sn 10.09358671169962 8.276348783820646 10.088814672418241
Sn 12.629090129064537 11.069244028356541 11.191437640087731
Sn 10.415609076048156 5.120975249621572 11.189301759095413
Sn 8.425519102886312 11.364918638078723 9.746017259260375
Sn 8.23488448719227 15.944284094834666 10.462624523963433
Sn 7.680754350920082 6.106763141953272 9.549203772769442
Sn 10.579890823489318 13.62244244260563 10.124235772289541
Sn 6.662552876492389 13.501726574751778 11.501565171832361
Sn 11.052371106361583 8.432514707253421 14.140755330730379
Sn 13.73992150736335 13.801817934531966 10.698591115792611
Sn 14.526375605259345 8.83341217681066 11.444234592305381
Sn 7.106098679820443 10.20860506049119 12.187360399991405
Sn 12.871963117286478 6.2703755655390605 12.935506756821313
Sn 15.024249432290873 11.25100567306175 13.450886667954375
Sn 8.098230001943362 7.301298703427607 12.255179741332505
Sn 10.228470856643506 11.078304866422958 13.035552269533033
Sn 9.700373842846963 14.464657118221979 12.877641042996094
Sn 12.590559459837984 13.160175403832074 13.709680339165509
Sn 7.78269216495533 12.411755268924376 14.262618079473809
Sn 14.006190032696123 8.693855731538473 14.877555487576952
Sn 13.756260392017731 11.594446617801095 16.237086345866746
Sn 8.94254004897732 9.786229174824873 15.816671982813281
Sn 9.88985685947275 5.706638431196916 14.102010526271545
Sn 10.749171226386387 12.263354409503929 16.044222063980683
Sn 11.777293112972934 9.33119660232005 16.973544516411593
