45
Energy = -158.96636766 eV
Sn 9.174918784204538 11.875635745649754 5.04377414153732
Sn 11.926862950439938 12.454230512451172 6.291078599513579
Sn 10.582653325931902 9.446729013735121 6.183296032568424
Sn 8.837308213664183 14.602232290508018 6.123739048341005
Sn 13.664227419895074 9.96614370101753 7.188247694676261
Sn 7.504957966787999 10.094775712471002 7.070630114430428
Sn 6.8148362479177225 12.96785616182541 7.8593287232451425
Sn 14.921591389913113 12.138617163922673 8.873428929201442
Sn 9.716373304409005 12.106107692886317 8.436514016023574
Sn 12.985330910160549 7.104599358571488 7.739850902084873
Sn 6.583759622242052 8.695115629417407 9.835753818859054
Sn 9.038770551976766 7.6864390331820065 8.330460175891513
Sn 11.361715671420322 14.98529742920127 7.993077819313024
Sn 4.963978088889412 11.396389263693063 10.274793572060968
Sn 16.329686419445338 9.582747653304015 10.099680744801557
Sn 8.411786462618922 15.430258634660083 9.095918327002716
Sn 11.42732708688171 9.351876170468211 9.28537611601777
Sn 6.353822287800758 13.97392538126501 11.046387678374215
Sn 7.907364573527668 11.133000162678128 11.33240856394846
Sn 13.380804004732187 14.398774884758751 10.35768968933025
Sn 15.4554551262126 6.705668035741535 9.438597126062087
Sn 11.403086406585768 6.290039898453711 10.282811734011267
Sn 10.855529742179208 16.147984361253823 11.056704391714234
Sn 13.866298623588214 8.426245978746545 11.533539510172963
Sn 8.037505466252675 16.25952741193573 12.299638599347459
Sn 16.90348859219237 6.880021118941429 12.114513057025519
Sn 12.81660131069745 11.45417596308994 11.15513329244642
Sn 8.581050891763216 6.98086618813387 11.66366031218744
Sn 14.25014146421436 5.343857819896298 12.087498937813285
Sn 15.918577490978222 12.297549775568733 11.794883211780178
Sn 5.257698255056428 11.853773249267027 13.339218230976634
Sn 7.331840059851536 14.012861384149339 14.223223644349195
Sn 10.330024581236735 9.448958053406331 12.49319653974242
Sn 16.59815803708501 9.730044170524845 13.266181959715219
Sn 11.745710722992504 6.656900906571592 13.323198596749881
Sn 6.097847543947329 8.942078435939436 12.90140207544603
Sn 13.096446416839573 14.132382835644743 13.412966275350108
Sn 10.389409500087908 13.248728756696686 11.727174385217658
Sn 10.195487455301782 15.336174547652067 14.321107654513725
Sn 14.605204677064968 7.547886105973654 14.422996721188195
Sn 13.816099422798736 11.143794914148332 14.011046926778373
Sn 10.694114326701039 12.3606678179733 14.711503636121046
Sn 8.648919126573837 7.840610154257845 14.600222167860773
Sn 11.617283855353998 9.123320540329555 15.197899363429103
Sn 7.994096656406484 10.839281014858354 14.55439797760056
