53
Energy = -188.06842605 eV
Sn 12.94303049091677 11.634158634556751 5.586046353361785
Sn 12.289463620492779 9.278221183576933 7.257930274808535
Sn 14.85398679267205 8.263228427201268 8.430891200767013
Sn 9.397156828224762 9.102112908129953 7.806231076971514
Sn 10.118334328912777 6.964596618069084 9.981222558602788
Sn 16.707426767434047 10.78033459356083 8.227981687090796
Sn 12.869791210874114 8.065468716926024 10.78583851425706
Sn 10.123280846734557 11.964780576354507 6.740043675617687
Sn 15.281815926672149 13.08005418971513 6.782962243740295
Sn 15.67655810654222 9.986481294394828 11.062011100722147
Sn 13.720939646395077 11.442805195724093 8.952401083663197
Sn 8.192413560391973 8.985838516589123 11.60297190038768
Sn 8.283444997177938 12.257858264875193 9.493356290538879
Sn 17.930901340725995 12.220278129059189 10.716668539411321
Sn 11.739463041228797 5.343231971626559 12.135657823165879
Sn 8.548342675130932 14.634182509503995 7.112582509582958
Sn 13.042594411674205 7.509974979154111 13.82787842474948
Sn 10.752028701098306 10.316577503139122 10.277451948919579
Sn 16.687183357683242 11.697089800207364 13.667892801370412
Sn 11.729355518575737 14.51596329896554 6.397605375608995
Sn 17.044327826082647 15.081560596748279 10.19812613767062
Sn 8.69481812251275 5.872102958773503 12.409221620834419
Sn 13.194836487956243 10.674265915242875 12.757063721631887
Sn 10.436500637828516 9.35024179333996 13.733786521012519
Sn 14.928722917991323 13.34868500119797 11.830623849930868
Sn 11.135473151355963 13.703524597418582 9.288268691743239
Sn 10.437192400833968 6.404711842274292 15.016496929671948
Sn 17.617995053792832 14.5977075088772 13.18037252934794
Sn 14.86323234109063 9.528591402904489 15.076025704361266
Sn 14.246667512736936 14.728605536542704 9.094883306320714
Sn 15.239139749423428 16.443880719602898 12.36812068462848
Sn 8.535836609588818 15.35892321020197 10.1332627516906
Sn 10.596465835965972 16.725004744400948 8.302927179256232
Sn 10.077321784727411 12.583241254007378 12.827914919323414
Sn 7.769380024071261 11.042013727190794 14.397709106509149
Sn 12.372893240043936 10.417636713767008 16.509776945060807
Sn 12.153245737083486 15.024941797065402 12.142754133854329
Sn 15.128220871461009 13.50245952586959 15.864919334450532
Sn 7.182152953686738 13.47300896640059 12.198673530839459
Sn 7.719515844378317 7.820329537266231 14.497059214821544
Sn 12.063024784027819 13.046577143914272 15.218941947412679
Sn 15.973872002982382 16.385530660406424 15.38740629778161
Sn 13.190829740591399 17.3258257104344 10.185847790480153
Sn 13.787875494617284 12.426082318963127 18.46178709545283
Sn 9.425506760654958 9.64528180247305 16.649623660833107
Sn 10.366292879493932 17.59369422812147 11.388601504656014
Sn 9.022997650194828 15.657118664999986 13.348563430125786
Sn 9.039311851430389 13.695300941338642 15.70919877847561
Sn 14.026951088633693 15.560388521057494 18.030830732870285
Sn 10.51516505509193 12.421397895248502 18.11495898023781
Sn 12.963768726604503 15.9833055918997 15.059287858060587
Sn 10.893762635700018 15.596152076162289 17.294176667730742
Sn 11.886713068697171 14.359722257872857 19.896722013588075
