53
Energy = -187.89224036 eV
Sn 18.26683556796188 14.572917313066993 14.197898675110746
Sn 19.44393842766882 14.127616272493118 11.21041424016771
Sn 18.987625943053494 11.695279499087246 13.27851212339307
Sn 16.801350540170212 12.537436189860419 16.017356138653604
Sn 17.135758544021016 16.084393974118317 11.572012375863366
Sn 18.238782722930498 11.331287764111577 10.317860871604822
Sn 17.133311877569554 9.549984178930503 15.371210699426381
Sn 16.2594423221791 13.08894299202466 12.165072036521654
Sn 15.85616836202838 16.501366354181354 14.729409091586849
Sn 17.075658818090293 13.917573770123164 9.162660709034725
Sn 14.752414342257126 9.989182274951952 17.378131018295402
Sn 16.32595633057121 9.870798869293102 12.425139460046315
Sn 13.835285405315986 17.728996642219446 16.816310821139634
Sn 13.764076137171372 18.345302212017717 13.297402714850708
Sn 15.665849021300902 10.143016596059795 8.371111400430946
Sn 13.876061792406984 11.919660162853745 6.617644120128995
Sn 14.503013770624042 11.392365799827061 14.507850951084063
Sn 15.579992484156238 16.779355455784376 9.077071056068917
Sn 12.101032823993261 8.503531594432717 16.84888440890427
Sn 14.798446566629607 14.753876623859938 17.13373177773029
Sn 14.111727429457218 12.336482038143789 9.780310336864472
Sn 13.533995422963622 15.41015131012342 11.096427663305473
Sn 14.415956864718325 8.20115365119182 14.741609643374083
Sn 11.3020224191638 17.94059138230565 15.110780031422458
Sn 13.08939753566795 15.360800992913335 14.458269424374953
Sn 13.618027892416757 14.792478840712938 7.906085120579386
Sn 13.185376241607695 18.353023690070437 10.179395229714247
Sn 13.886986808264917 9.115425316999426 10.737292980159385
Sn 12.383758788030798 6.932632875224782 12.36086624601545
Sn 11.479313291978393 12.761887792291176 14.06171284943053
Sn 11.652456724333819 9.567910339730275 13.875214527177206
Sn 12.704293240218199 12.391607675874262 17.074751248874243
Sn 10.512683338172433 14.158872979120217 11.074351970915986
Sn 10.017068802280374 10.643996244978569 16.319563935389056
Sn 9.55629672699289 15.396131280050561 13.931004701397695
Sn 10.655071093534374 6.72633347252379 14.881175363612442
Sn 11.110724969781646 12.482349166484676 8.15822250623576
Sn 11.426559882746592 11.05000324229408 10.902772557965987
Sn 10.9101613405165 17.415930162544868 11.954753738945492
Sn 11.713796528551523 15.5245930627431 17.360515582648585
Sn 12.438798832699467 9.604315253068865 8.070335219494453
Sn 9.813616459899237 8.237242891548357 11.461257596780424
Sn 8.497125533387385 11.886353009146733 12.88868835534114
Sn 11.197290340451275 16.24821692880875 8.900681765058936
Sn 9.407477043905972 13.59231257645063 16.41021934093163
Sn 8.519139642918462 8.870817142609354 14.22823636346947
Sn 7.364523882884276 14.763796856326477 11.783595220640938
Sn 7.760482578785039 12.317164042193328 9.839026667798768
Sn 6.605272838086423 13.543524087815408 14.605470896578625
Sn 9.454925496134202 9.682460487598528 8.823582375670243
Sn 6.799284835337112 9.712368958925364 11.296683587111298
Sn 5.907947770687241 10.50980500102795 14.208811770552597
Sn 5.349647277148758 12.443282212995994 11.856759609928885
