50
Energy = -176.98593571 eV
Sn 10.108053110297469 13.162455515618872 5.641328953071015
Sn 13.3205875128682 9.530262216110664 6.962286743220177
Sn 10.678078166457116 10.00122051445892 5.527458775601562
Sn 14.608579392595294 9.739672193105033 10.076225111586576
Sn 11.233506708506487 7.480983786961214 7.521005922948753
Sn 8.678132882330363 7.486411502465352 5.994115350874404
Sn 13.082986757328097 13.936900430801868 6.172416499816074
Sn 8.59598582668214 13.691687581943931 8.29310013979165
Sn 14.551736710202974 12.680422717552425 8.741688728358286
Sn 10.652311778938536 16.14532687202619 6.828192807753329
Sn 6.134692630891684 8.525691761823316 7.399739707944236
Sn 11.525690776447034 12.017456028116293 8.02341519960785
Sn 15.067380420775311 14.879116653847015 11.046913842130522
Sn 11.52403357471383 9.605816574439368 9.687470030421848
Sn 8.803333818791037 9.892594215509321 8.04676651959378
Sn 12.682183879612769 5.187548990663253 9.086258424058155
Sn 8.02633965038413 6.28964854538928 8.979787347830738
Sn 7.796617709219947 14.716097641133782 12.599633284525863
Sn 13.38763261005498 15.946064931047012 8.49730418192855
Sn 14.810124865411368 6.557900253550268 10.853299135810609
Sn 5.158319528319173 7.10073288930484 9.97320823844116
Sn 12.93692871941406 12.555212475750519 11.398055908372308
Sn 8.50772867832787 16.72203638016609 8.965960824542044
Sn 5.7350387631805075 10.35322375000151 9.921891722011312
Sn 11.307861468373655 18.059852347437875 9.192950778921794
Sn 10.92934106469981 14.90776063331754 9.880385197454604
Sn 9.728691308230099 16.986332106241363 11.779420624293364
Sn 8.015847116634546 12.186434334653852 10.96890476377375
Sn 11.798008329752047 7.070717904156696 11.374628560498648
Sn 16.223863284552795 11.987520670154879 11.715859119446435
Sn 8.117815732449815 8.582396150867854 10.921194142996121
Sn 10.16004116918815 4.505168639311842 10.813148418314947
Sn 6.945185629047515 6.0492218037742616 12.226261415097648
Sn 5.427988887807368 8.85937053852099 12.582261097921329
Sn 13.932461980984316 10.196125777858773 13.090264772214539
Sn 12.522592023759985 15.471251204249462 12.759726300169568
Sn 13.038149268751543 4.162826476578824 12.005489043856805
Sn 7.275165189482618 11.178185136222268 13.811460539939695
Sn 10.305843696441224 13.384217770605636 13.255878015289987
Sn 14.817012246316663 13.648808917085205 14.124950976411556
Sn 7.937519821827001 13.640030314289353 15.41955653685734
Sn 16.327940340247114 11.161954044001565 14.731180434396578
Sn 10.207238932381198 10.443209781501666 12.431091826949066
Sn 10.716988746376796 5.495847384650005 13.706070197524674
Sn 8.376754042676202 8.204201376083898 14.007846319125338
Sn 13.734037239335462 6.55224131709696 13.767274133162129
Sn 12.058681309976945 14.121985947137295 15.639318859712874
Sn 13.407784361871759 11.30972490150509 15.884299200533537
Sn 10.124718935366161 11.471111573008075 15.634211900891305
Sn 11.52406832826853 8.726623454453309 14.60644835055665
