53
Energy = -187.52531272 eV
Sn 11.177202636623539 10.91225020134139 5.6425154564311555
Sn 12.984796081379201 13.385083103517275 6.297530425095458
Sn 8.606374436122433 11.06804629089759 7.65732170451581
Sn 12.762958262233512 8.433724845600626 4.4991338444433175
Sn 9.751065736375754 8.106082385644394 5.971041887282522
Sn 11.937938407826095 5.9186294534071475 6.044404244384121
Sn 12.489479813618638 16.004525543467217 8.07296349743671
Sn 10.032898225191426 13.73855376593006 6.813880860523388
Sn 14.356030492482054 10.2614067810259 6.42615124975197
Sn 5.529638261500766 8.883316392003504 9.408941839038574
Sn 13.035822836291032 11.160940862048731 10.272036843076812
Sn 14.782945752689983 7.093453227654855 6.437172793939939
Sn 10.234681653058317 9.907478547804793 9.98843923873903
Sn 7.806885680322669 6.822919302157657 8.602626185151987
Sn 14.488528604210044 13.759169759165303 9.069032738250565
Sn 6.91191513171695 14.923716550704722 9.763544385080436
Sn 12.093436677252674 8.592584265789483 7.784578270461329
Sn 11.445886016833569 17.42212957887933 10.832302170495517
Sn 13.079964999235871 5.876813506885709 8.952541717975148
Sn 9.54953833479505 13.273576873391432 9.750129861051914
Sn 15.543465212090643 6.161028160256502 10.6412067988354
Sn 14.600264494080822 16.86350703443769 10.141565043049116
Sn 9.387455611954238 16.216602092065617 8.499432252373882
Sn 5.354594663160253 5.872542167415002 10.547815247910108
Sn 14.887914300172648 8.799791373244233 9.255091177084424
Sn 7.686106600163953 8.175218303349197 11.36920004151057
Sn 12.195218831156186 14.464844709253741 10.891328008159162
Sn 10.680059512556221 6.956682974826599 10.644466511008323
Sn 8.290244687495253 4.962602439806557 11.055531874430798
Sn 6.7270000101241285 11.913689120884005 10.059961081744323
Sn 8.208498570839922 16.342011308202377 12.168255209721773
Sn 6.515501298358664 5.958458307445759 13.431966165442734
Sn 15.560399413946175 10.549079589495639 12.267092770205522
Sn 4.761810548190737 8.328546977064992 12.360474186947311
Sn 12.811173617466425 8.844864556242058 12.304574503026174
Sn 13.053225925830894 5.838904038200728 12.53835298359883
Sn 10.427225149732001 16.86266276264463 14.18853407392143
Sn 9.94418700208566 13.910633670472643 13.182257915694846
Sn 15.305465294247103 14.235738921388865 11.956713355656296
Sn 13.51140243234337 16.459736144983975 12.94670588042077
Sn 13.049247805477055 12.277186433596022 13.13834815216217
Sn 6.585976157530021 13.729166725983832 12.926559288065215
Sn 8.650255113680647 11.15270818428016 12.374703758508183
Sn 15.537578491324503 7.645001059711283 13.36345031338313
Sn 9.607631754017055 6.93751771416856 13.579432461826961
Sn 7.304407239198377 9.193859325838899 14.251976838411066
Sn 7.625401912121987 15.528012154818684 15.15908300184072
Sn 14.577859283608907 10.108721540107247 15.131019959862776
Sn 12.83334989211882 7.451863858453956 15.164241964743715
Sn 10.381091611564182 14.389560506055522 16.160042927097482
Sn 8.168998188969214 12.459339131848107 15.418481551019967
Sn 12.191683943550236 11.846667624960038 16.009922829233282
Sn 10.779325633616518 9.82085809371187 14.387930902509309
