51
Energy = -181.23065288 eV
Sn 13.01330221892674 10.305261334230282 8.043498828858919
Sn 11.990943552867549 10.897196057988218 16.09827364633944
Sn 8.548718623577983 5.592825794793928 14.291131217442702
Sn 10.760387554150368 6.602620259044453 12.233833332835498
Sn 6.773909143752551 11.560439009490802 12.6607624995636
Sn 14.865190046438496 12.30092033079033 15.935543459143659
Sn 16.29020746134021 9.21941517975917 10.669937115347814
Sn 8.218131549553899 10.584034279833375 15.214945663522123
Sn 10.612489061885327 10.826457561278705 13.192431190939702
Sn 7.839693877537172 8.23889244240035 12.458660781043234
Sn 5.531752008487113 10.357432539119477 10.152319974649135
Sn 11.046880615169167 13.870104552714123 5.343884996255337
Sn 16.296151332741054 13.808491996750119 13.434651330902668
Sn 6.699108352719689 7.826196490423024 15.472585729766475
Sn 10.418541714023863 15.249930105561523 8.134225953240113
Sn 16.085892753644266 11.275693822605895 8.43543354022405
Sn 13.197175741496059 8.851394489491932 14.09935749498229
Sn 12.94850319884419 13.232889593656628 13.643889468001845
Sn 12.186871407392703 10.890701645313847 4.683714076458507
Sn 10.231818558862022 8.216985572365138 14.963179679612834
Sn 12.295883016661742 14.036980313176304 16.83933452236763
Sn 15.390315493045737 8.288383470579664 7.681239026921099
Sn 13.199526001749609 7.990499531657225 5.35053692324622
Sn 7.957282129652527 13.796715324106582 9.092512329331408
Sn 15.425507962052803 10.822152270139284 13.19883335807619
Sn 12.41533000038028 7.31490522445686 8.367417978874782
Sn 11.214197354484108 16.532615791185552 11.022234051499739
Sn 13.656312194751713 13.02182801522443 6.700636465444377
Sn 14.981987756006951 13.166973826163035 10.743655423241485
Sn 5.630765335819875 5.885568555955997 13.384943007455709
Sn 10.285624817966278 8.87006360292551 6.285873531156813
Sn 6.755173633926777 14.389255589935951 11.745672471311062
Sn 10.410833227535656 11.953260478825364 7.681733064196884
Sn 13.7911376028501 7.625933755289147 11.16415644410719
Sn 7.844255217706454 5.368384653892651 11.23132164808196
Sn 13.160544261333834 10.578993610097163 11.183458083375664
Sn 11.719167330258312 16.057571219347835 14.378234416095772
Sn 13.364881597912154 15.227722448416747 9.205660229434736
Sn 8.689178216152058 10.988852171078486 10.358785202639204
Sn 14.14866412104905 16.06538569792652 12.366097586117814
Sn 7.441599160308268 8.515737436804827 8.441896247029634
Sn 7.130986287578038 11.430592811522544 7.432112862988508
Sn 5.391016039343334 7.210304926151716 10.480568797116645
Sn 11.402400919198287 13.22919794971707 10.43328889770412
Sn 14.684355810470631 15.460507359155656 15.483901513339365
Sn 15.192348681621816 10.528327549065368 5.471389496637628
Sn 10.044219818459403 8.298147941822211 9.89522880558961
Sn 9.56441580279169 14.472011344407242 12.50845590245925
Sn 4.843860514234272 9.031559380267662 13.082659193282378
Sn 9.132751988330554 11.42873313599599 4.935881988560934
Sn 9.835676585026727 13.260819209168577 15.245888205255769
