5
Energy = -15.02044479 eV
Sn 10.532220297668543 10.906377332070385 8.599544639032532
Sn 12.447771799065544 9.764589880138216 10.413963169658496
Sn 10.00500349903421 10.40677953311136 11.794213020156915
Sn 9.514478094423344 8.246556054519553 9.70570707577943
Sn 7.958651541399082 11.171357130152822 9.900328300546546
