5
Energy = -13.10619035 eV
Sn 13.483800653459651 12.532853405029096 10.967505252151321
Sn 10.942835423227598 11.722924308645336 11.524302941475508
Sn 10.847243126695457 7.898483818955622 8.304628159601059
Sn 9.525675937712615 9.561474109377057 10.006883810708022
Sn 8.19691960586037 11.14107187134699 11.950700583414477
