51
Energy = -180.32895622 eV
Sn 12.209736556362754 17.574080558690373 11.396360487440125
Sn 14.057347085126557 15.86367514945126 9.239908124232889
Sn 18.243429428540587 13.251204629591484 10.593865429562973
Sn 15.947843294420947 13.33415942884448 8.393533260660407
Sn 14.210587501209352 11.416745138160517 6.491905246434221
Sn 12.645313329048728 13.858655199830372 7.377383853359972
Sn 15.546635885241763 14.389279183738708 11.377573072502262
Sn 17.493254540882926 10.76011426512121 9.05600737248861
Sn 9.178741889868949 16.922590265132822 11.7993342239519
Sn 17.89383832042942 10.573306116030649 12.129344622511137
Sn 16.932235573698694 13.029230940378413 13.73633598188467
Sn 13.487261810877389 19.473204253926482 13.624471583143007
Sn 9.834438833849951 14.836005794987495 9.590876472330255
Sn 11.729894515020193 15.041567434969995 13.167530165231913
Sn 9.634582448576657 14.289338625302817 6.677758600704317
Sn 12.469624332366793 13.635097174373954 10.633709115235108
Sn 14.117010932945664 8.724870364983952 8.12605699251884
Sn 14.450709389100263 11.596767014492745 12.287184059938394
Sn 12.414465212004172 10.995677608817992 9.172461650711757
Sn 10.930983327293783 18.166028176784632 14.320163181620016
Sn 15.636391381039715 10.547503757633473 14.943593966309367
Sn 15.418108240737514 9.30410745719769 10.774832453786768
Sn 10.972428383740219 11.492810557202505 6.297999115811959
Sn 15.516386334787175 7.930215525646646 13.422197376008251
Sn 14.48546889425885 16.65851152169231 13.211268957429853
Sn 7.457874260227667 12.85374741460124 8.343083650230898
Sn 12.115103120968653 6.873622259629922 9.632489395055025
Sn 13.921586653385106 14.316343969677275 15.276585669081365
Sn 13.567548610664602 17.539321604227606 16.035432318765917
Sn 10.997330094183091 8.545126217666033 7.2487000678904
Sn 7.089368478528249 14.461509427525664 10.970272081134913
Sn 8.817888134000551 14.859760394570461 14.02685692359273
Sn 9.430638413208998 12.333104971662305 11.714888309921859
Sn 9.387203716300386 10.638139082829126 8.989282702414114
Sn 12.15044005324491 11.713085103308552 14.335021232033842
Sn 10.981204286125617 15.716069129378802 16.149682722878037
Sn 12.929587648454659 6.440172267752238 12.569699845387989
Sn 12.693541022575404 8.771943065830413 14.715646584518987
Sn 11.478495951190057 9.146078771796505 11.748374217046809
Sn 13.512596585447563 11.13020961864407 17.063029080177422
Sn 9.229286788597749 7.753125683588723 9.808184580645499
Sn 12.399421726590623 13.791497076407607 17.994579167670395
Sn 6.603790805422436 11.260502828092116 10.909366971984412
Sn 6.609287586784029 12.861970534825526 13.572655605923845
Sn 9.071039414229435 11.504138052880842 14.776636604319966
Sn 8.536445066197379 9.208168818918155 12.680931468697565
Sn 10.325356491451467 11.583696140893656 17.46617575050606
Sn 11.588214515903937 6.4551322516953515 16.203169547197582
Sn 9.370117155054306 8.554753731054817 15.840021285221358
Sn 10.078867627358651 6.58693389694879 13.486519180945027
Sn 11.645497396394667 8.956583718553407 18.069324711459434
