52
Energy = -184.40082078 eV
Sn 13.848190551683443 14.622063575956657 8.762098163912217
Sn 11.390798869741703 12.485040295500069 6.968255802331238
Sn 11.33899094434042 15.525650744350678 7.157159912944129
Sn 10.354537387093604 9.716321214866513 5.977954892280655
Sn 7.511897229078528 8.918185710065597 6.999746583504491
Sn 12.8823712098923 8.046619059668986 7.222057769413218
Sn 13.895972109012376 10.891433340887703 7.18401757993647
Sn 10.03631027886016 7.174635770272398 7.918631936028662
Sn 8.332427496216164 12.00851808656716 7.419853509352851
Sn 16.687157712663247 13.886495563610431 9.635824384247982
Sn 13.393135978631905 17.76973037282401 8.237927217954368
Sn 9.002813989084116 15.951540443851208 9.109934114715804
Sn 8.003928300751841 7.786807497812941 10.099317370368189
Sn 16.05591049438931 10.697237908796254 9.32935971377337
Sn 12.94352259690844 16.038504385722515 11.207381784698475
Sn 12.708530510041241 6.883160835803368 10.036926890704988
Sn 10.797689033377663 13.534790602957091 9.773535872230765
Sn 10.947988847759223 18.27537481749096 10.077259883437385
Sn 6.6776716478603815 10.48290532264132 9.532771317595236
Sn 15.788707890023112 17.024272105507446 10.119597462564279
Sn 9.86141430064876 10.04006808615763 9.21664265685474
Sn 12.920947126012962 9.99642767825233 9.920604599803912
Sn 15.262128100065947 8.301064399511171 11.085135203723672
Sn 10.65695443243794 8.010443093959399 12.038216573754998
Sn 7.61847564600643 13.448701329329543 10.351787614208268
Sn 14.380333263294492 12.644307832528431 11.387361917890699
Sn 8.931694140342502 11.364674558451068 12.114084614393965
Sn 13.75994553903699 19.323155271188362 10.94092271609058
Sn 9.873531201911081 15.831970082546956 12.06633474400782
Sn 17.18244874741202 11.225519728248033 12.145018115706995
Sn 11.810222391165762 18.16587656215548 13.115065670682045
Sn 14.936532026304546 17.351634566024092 13.120823589662425
Sn 10.499394398991363 5.274051424821796 13.532007650915896
Sn 11.307699598306982 13.06470075343533 12.947567679800589
Sn 16.669271482405136 14.458364865562594 12.595202024267106
Sn 7.9956273080287765 7.285210512757172 13.482236949290222
Sn 13.095287964647426 9.978357715797406 13.109806267238504
Sn 13.223578808706451 6.906413341123826 13.709824298881962
Sn 13.712508957428643 14.559898082482368 14.070289717994962
Sn 9.923010746870856 9.715748431778113 14.645847830753297
Sn 7.144022111721965 11.023223505557395 14.665343147992381
Sn 8.572560254003788 13.868286876518614 14.188094056681349
Sn 16.136444360143265 8.965773734974182 13.971040584201251
Sn 11.002134788131032 14.130976814442626 16.01580081483253
Sn 15.310325104628976 11.940787061607349 14.462735691654347
Sn 8.33669082050441 5.348073281331871 15.73285326917139
Sn 12.138531325108893 11.355595292648161 15.935232291657917
Sn 9.00957398449783 11.950123627066935 16.896748544232526
Sn 10.8541525562419 7.0375032730897855 16.05765944872038
Sn 7.855954457358517 8.351526497688068 16.539150573739267
Sn 13.819632502377132 8.786103878911165 16.08585995775784
Sn 10.4322961917994 9.408027898851401 17.916966735393498
