5
Energy = -14.1827387 eV
Sn 11.360606236778581 11.042676739733498 11.263803552273105
Sn 12.875633063703946 13.034303576019497 12.442809087420331
Sn 11.020320574413487 8.897938645951664 9.415899192625664
Sn 8.637968811177698 10.55818658217443 10.574934372908753
Sn 8.325039805505275 8.590425968151203 8.554970209942773
