50
Energy = -176.70474174 eV
Sn 6.055785016811804 13.050795229238398 8.148276000410625
Sn 11.19305335210651 13.825405269602518 12.306279671736062
Sn 14.472416256751984 11.66197946602256 13.147004092332514
Sn 8.477673954975366 14.940177468829654 13.49248712782074
Sn 10.269022168720749 14.618759937693158 16.15686424720915
Sn 16.626935299253844 14.65609185314287 9.50286423054191
Sn 5.557784826463628 11.788340853243948 10.938564688192765
Sn 8.111096717596407 10.747708235495589 7.764904410587319
Sn 8.440559626786959 8.05891153833127 6.003522213507368
Sn 11.636411529063679 13.266273233528317 6.927602479745817
Sn 9.450767737363252 7.416584113887522 13.538626932976369
Sn 12.548389609394386 6.651655404857979 13.711707932334999
Sn 6.249580250780495 12.907727245398696 13.803505365979486
Sn 16.436110959878373 12.072098961966995 10.893843771729378
Sn 11.823919302183462 9.602036534019968 12.651632548439347
Sn 10.56119874511659 11.84973982141287 14.627589770728646
Sn 12.356241347734732 15.00458136003265 9.571532395883214
Sn 8.580642126599512 13.451589860273199 6.013662828890416
Sn 14.848402524061393 7.792067649327965 6.990058343962833
Sn 11.049917051618662 12.092856045119508 17.978327798615442
Sn 13.50317348561362 10.64508880684487 6.157437400563068
Sn 9.431469040849711 13.455867627777359 9.162921625915091
Sn 13.04679853442778 13.213283018704828 15.941688375868706
Sn 14.64723681443749 12.937047970013797 8.042661108066325
Sn 14.221127632862544 5.588030971056422 11.229162779288247
Sn 7.618420644331475 15.707242483155733 8.049145220593976
Sn 12.725014551676823 10.14302279797285 15.941578917902884
Sn 13.28244310345968 8.498470778448258 9.886585368774432
Sn 14.773110392277895 8.45302071946671 12.686867158601281
Sn 7.928059433996201 10.19984955239399 14.26522024039626
Sn 9.399778655051708 16.16647694218613 10.676422092975752
Sn 10.12582438407883 10.707736675951562 5.437292728947731
Sn 11.632120216780843 8.16885540618351 6.9484238884772855
Sn 6.589982937037938 14.731272044985474 10.883455950428885
Sn 9.683723501756297 8.615837813964147 10.494275974134965
Sn 16.286712152843847 7.5172948958185835 10.198217910369987
Sn 8.592409156437387 12.067601930994417 11.894621032896191
Sn 12.82410979212909 15.595375547762123 14.123511050087046
Sn 7.73118589847643 6.060330232457524 11.151572186770519
Sn 8.158438712216155 12.364789696555935 16.62604630637966
Sn 13.08462986775987 12.041119257974644 10.507991126147784
Sn 14.599008046089384 14.72557718561855 11.703600091573842
Sn 9.79993327135854 9.552075071647478 16.702753971422112
Sn 10.891605236573032 5.81008975582787 11.107160255602617
Sn 6.879871867614854 8.970239388637628 11.546385029600406
Sn 12.810233925291122 5.727561940060079 8.545325148262373
Sn 11.090453001083436 10.663331853189767 8.518008076979772
Sn 15.79142598380555 10.065674199994067 8.66063824343463
Sn 6.874474086568731 8.122847956161626 8.636506402968877
Sn 9.411211325824093 6.209501452741087 8.285561540917527
