53
Energy = -187.39607284 eV
Sn 9.993077237072036 6.722197736081812 7.939399439016751
Sn 8.322690486096672 8.787714609287201 6.351853896998666
Sn 6.663629222063928 9.010867401186317 8.997586057040998
Sn 11.295470917020587 9.109159072977858 6.359509139188842
Sn 12.171169669038875 5.750338734739082 11.469094118851238
Sn 12.639337272433966 7.836719227403373 9.10368899411469
Sn 8.55684687013046 7.15178670272994 10.520442414437728
Sn 15.00514820348391 9.316180274933327 7.7763853840054455
Sn 14.768765220347431 7.476620749604008 11.46891014412727
Sn 13.102942985586251 6.9769484256424805 14.126554139254488
Sn 9.764498995972462 9.73312987560681 9.168789407725125
Sn 10.752123906210285 13.361214896490582 6.333142579069381
Sn 8.224391793304706 11.743612976848171 7.157642965707324
Sn 9.829014178498042 7.023729107235556 13.228372222909792
Sn 5.349212920205233 11.304891430498843 10.527332077581736
Sn 13.311620563498717 11.306380226446517 5.938850069254894
Sn 6.299972329135323 8.706675508398442 12.172774391938058
Sn 14.188005223826407 10.526158011027862 10.591467168006305
Sn 15.111438394892527 12.660674844218363 7.9593410951277175
Sn 12.049125497140931 11.866011431146871 8.734883383193388
Sn 13.946930841353405 10.013510419481179 13.97860495631163
Sn 11.667045733679233 8.979976478404083 11.883223055610408
Sn 16.174732841086673 7.725335744067826 14.256724379461643
Sn 8.255931633078369 11.170825645672966 11.91147561243055
Sn 17.08740644641131 10.913039528251726 9.42587367128842
Sn 7.612887043649098 9.569187467010956 14.698106229508598
Sn 16.785177120193737 10.137406721754331 12.551873267452562
Sn 12.250879309751946 15.95253274377548 7.15216717522842
Sn 6.22211540728675 13.749662836915917 8.762745354662751
Sn 5.467416067128654 11.563114196960669 13.78301459805343
Sn 11.002491980756169 9.146021334118846 15.705798755066265
Sn 16.43393701334472 13.425816863007208 11.193434641072367
Sn 9.26930264101317 13.814572139975082 9.17754623687149
Sn 13.251705264345897 14.6751495786287 9.673218307043607
Sn 11.033172928394587 13.417989066354089 11.520932576193587
Sn 9.214226148501464 16.152199592701347 7.227376658015639
Sn 13.760848833207755 9.763056002423824 17.105668477757764
Sn 16.584807809952157 10.338601430126955 16.022506099101253
Sn 8.972218288804726 11.10938306016714 16.995551664218322
Sn 10.65981863568486 11.693227642597005 14.236130306619131
Sn 13.909259736524913 12.952530721274778 12.772260382358127
Sn 6.600448253092111 13.837401129516797 11.898875514453906
Sn 17.203970488437765 12.733663807691842 14.123198814950118
Sn 7.586621705385856 16.385391515971676 9.939476051806064
Sn 10.755707595145408 16.684037683186197 9.88392774388818
Sn 15.035478051074406 16.1463165554399 11.58483304076886
Sn 12.191032382191779 16.0977872604502 12.82794689450379
Sn 8.013259767341708 13.09236449415955 14.725603158204192
Sn 11.80437395756414 12.109113408889748 17.41059547227541
Sn 14.797947012737204 12.771092362186714 16.638089394328922
Sn 9.041523097396157 15.64223138228987 12.643405701095556
Sn 12.282795253301535 14.210609444240108 15.27938757299806
Sn 15.211558475754305 15.142371066132414 14.571993238444891
