53
Energy = -187.66256149 eV
Sn 11.535240459031282 7.448500403208163 7.1550787878689395
Sn 14.113643483917015 8.966000337252414 7.780466969891827
Sn 15.43283741513221 11.797175116785079 7.734666863188798
Sn 12.767710997397026 13.115762077198585 7.658806171682198
Sn 15.526574064900307 8.37731530965989 10.448076378855534
Sn 12.840456416378135 6.710063860395762 9.881918577301745
Sn 11.167793475408057 10.504017892555677 7.843530169022041
Sn 8.864071890845702 14.238202084975825 8.092440496558552
Sn 8.609664335501991 8.449633153574023 7.4276280524492035
Sn 17.15503826852933 14.316524088791137 8.89320015649718
Sn 14.640498747964008 6.230235923358982 12.423318814604425
Sn 8.36725643299455 11.544548086461795 6.981162064446746
Sn 14.447190389511537 15.661635300710918 8.578317800756777
Sn 10.458479020286248 8.631349514762716 10.040332639173563
Sn 16.59529539898329 11.403899881717157 10.503933662406023
Sn 13.400689326874565 11.031608936185133 10.138138450198154
Sn 6.427241153421361 10.485373064336155 9.048527398939871
Sn 11.312057235969014 15.872227191695835 7.93120015330658
Sn 11.811921721773489 14.046062662588566 10.4886336961651
Sn 15.821718058538558 8.826741293587604 13.700856736325418
Sn 12.753428543587932 8.761297474061713 12.535180460931779
Sn 18.386613082135895 13.919987270572966 11.59045017714584
Sn 7.5306555563200686 7.838830815263028 10.169374893949458
Sn 7.419653370481146 15.016501380993484 10.478274646943886
Sn 8.861693713244316 12.061049215625873 10.23129648973467
Sn 14.890040547203277 13.891499380277125 11.258475696780996
Sn 10.187878417678416 16.772719142655248 10.744322687220977
Sn 9.322974300474137 9.830007159411233 12.737216596270216
Sn 13.835853929071936 11.503763149393226 13.929056079488834
Sn 5.772712657168096 12.569778712619794 11.218301756080333
Sn 7.826891073992184 7.91868050049601 14.607676338548202
Sn 13.203719314519327 16.995562930022775 11.179968837284791
Sn 16.969520554470446 11.97726542058475 13.567111785906633
Sn 13.74002801875575 7.002432692886999 15.232497158023623
Sn 6.237623505082539 9.548525314921275 12.30960438560984
Sn 10.788016506134682 11.835539581051195 14.623375697973508
Sn 9.607227363502716 14.138395056447465 12.763870129885886
Sn 14.713902170049755 9.743755043399572 16.460143491464063
Sn 16.429818615754947 16.726752650645363 10.884627830448657
Sn 10.749315174526616 7.628607093785317 14.740507851811344
Sn 7.383482335273568 12.20222413535964 13.724740150407735
Sn 11.769545898462113 9.632703017751957 16.65109388932646
Sn 16.34269035595972 15.178404059868015 13.525961285707565
Sn 12.74503971447097 14.782792394123453 13.84567369959596
Sn 7.935921964707395 10.527250402864714 16.035472973963962
Sn 15.718355119333427 12.655173229755178 16.24413363804936
Sn 10.342859007233402 17.004878940254848 13.942923458280344
Sn 10.044626356661453 11.787214627004916 17.708849132916345
Sn 9.602521026228574 14.491170724782595 15.949454311782356
Sn 13.366602957674582 17.809639468089994 14.154612055103058
Sn 12.73871230769923 13.479536608066285 16.7757641444704
Sn 14.847629008268086 15.894989071098657 16.085079794193867
Sn 11.833560305279416 16.45926057727322 16.667942590790528
