51
Energy = -180.36537368 eV
Sn 9.947040262203444 16.276491079663092 10.830027420417457
Sn 14.086953755672047 9.554996904978125 11.675590783437752
Sn 8.184775693626637 12.956903607042088 15.97341867288117
Sn 10.151167149780115 15.302061918691875 15.09532978775953
Sn 10.858803491639376 14.029303034880279 8.650427032968187
Sn 8.940126639066401 16.565633511886933 7.902827745608741
Sn 14.39369978954981 6.487101551080789 10.65950506176976
Sn 11.254562030841154 6.413269330640583 10.12258334377357
Sn 11.344814190931006 8.367728923975237 13.438889658296274
Sn 9.067009411067781 10.958234410452063 13.738087198371156
Sn 7.1189753642524005 11.288354496439572 10.43930157823357
Sn 8.53226554677647 9.747672574397384 5.113913711834505
Sn 12.636170947855264 8.941112565788949 8.69390035459897
Sn 9.86102928071368 12.662905882874417 11.232137416513437
Sn 8.03486703521488 8.119923979120953 10.28379602906616
Sn 13.4000838433136 11.333338944578506 16.18868958411826
Sn 15.727935984914849 8.961998288319169 9.130010846993034
Sn 13.31959683549882 12.373867698158188 9.941889590417782
Sn 13.915804239116795 14.47878933923183 7.455866909307051
Sn 14.814023963179993 15.390021054603723 10.286146552158995
Sn 12.227013098850723 5.257816912254793 12.900230687839768
Sn 9.621836833623076 10.846473473114193 8.06643793387131
Sn 16.33102041060936 12.796059230596406 9.258723847557835
Sn 7.539438644724582 14.211684863264107 9.186501565171387
Sn 11.15597906576222 15.597468558955109 6.059485511464325
Sn 8.291401909542838 8.19871375243153 15.073551116644989
Sn 6.099783900505981 11.94471541665954 13.767506304115786
Sn 11.171279950233169 13.222436456479368 17.016242738553558
Sn 13.204501032002316 14.277582671024158 14.96352162462943
Sn 9.876129510772493 10.386790280354445 16.67872686297748
Sn 10.597123766135274 9.698983097776237 10.796842192403796
Sn 6.800665403513054 9.381643501110814 7.601980402905146
Sn 12.492376626613916 8.373487373790647 16.21155372789793
Sn 12.30645144891141 14.724532512670057 12.087192607973277
Sn 12.18186284875386 16.8231717644035 8.851932138654373
Sn 15.354165852106199 12.94470903831361 12.304461771592187
Sn 10.090137479191199 12.627343090410415 5.64195650997131
Sn 12.340661344576178 11.753080565851773 13.37469468655222
Sn 16.813052522691116 7.590869233165713 12.166667943692302
Sn 15.782103134448464 10.307741999602692 14.063139657260201
Sn 6.553916242275309 9.105945495780059 12.840740765242552
Sn 9.68935208571733 7.855605187123651 7.212234180881016
Sn 5.641517540279826 13.974992809714443 11.522899167586077
Sn 9.250649373083965 6.202711850381928 12.63344221415751
Sn 17.241383845296614 10.535223470961526 11.27359539290991
Sn 14.395179282128518 7.330094426878364 13.93536615122787
Sn 14.321575962888085 11.405639908758626 7.259642651429585
Sn 11.588664332316576 9.899723841863908 5.703750951773984
Sn 10.482144736192192 6.096898995365015 15.474275166429695
Sn 8.226912139653024 14.559226217638848 12.883447546693805
Sn 7.206302395104866 12.323213080219132 6.8012048751304945
