52
Energy = -184.04028811 eV
Sn 18.999066910895284 10.660417086273542 16.001759383470667
Sn 18.55034008941364 13.518617662140448 14.660786544997222
Sn 18.43635492834751 9.135387804269724 13.282686251190691
Sn 17.2379102477606 12.869441704703084 17.435682523919905
Sn 17.345191809562124 15.242507113854353 12.162687344030466
Sn 18.01639282415951 11.92194926423423 12.127672909386
Sn 17.042683180688602 8.394546250939783 15.937051909758958
Sn 16.774741887430046 13.366541968891541 9.691260050610834
Sn 16.16014040397207 7.122732193593351 13.209460790434793
Sn 15.708443984622486 14.630922770420428 15.199955380921853
Sn 16.019134743882407 17.24843054934609 10.00138455979772
Sn 16.120968542423658 15.819496738917662 7.222488116018297
Sn 14.023730354031917 9.346893802986283 12.444556279056195
Sn 16.170730992241428 11.116087981003963 14.512720205138772
Sn 15.075935252979802 14.9133629552019 18.484590424950238
Sn 14.077044753443031 8.353925362419824 15.520242856456866
Sn 14.102060783125644 11.565066483053476 9.722460977073379
Sn 14.969521135127547 13.150236256208279 12.305532417953978
Sn 15.071330642829235 17.17942548353817 13.213721767475336
Sn 12.192446854407955 13.693089807436587 18.606056616839652
Sn 14.770951601265578 13.045861258435776 7.037600691426196
Sn 13.993527989225361 18.111180466254794 7.864870315749044
Sn 14.384643978496024 12.023118233968077 17.19928100266212
Sn 13.88307286529235 15.175295515035149 9.476577398197717
Sn 15.136283697736253 17.343635482715538 16.442333911956208
Sn 13.191329298163613 6.410624097731506 13.512482837058746
Sn 12.656639112391636 15.36530881931091 12.517326899592693
Sn 13.133383419195992 15.597326312467889 6.199593464155265
Sn 12.618128198815834 14.302597985899538 15.450875613026684
Sn 12.339495101419514 16.598874580151435 17.51083686344544
Sn 12.602789382294082 11.152652068839254 14.537799684526806
Sn 12.564775487898123 9.759019549393123 17.71246525995461
Sn 12.32695194099547 17.664544954969767 14.658418508632066
Sn 11.811762860898371 13.354339446389778 8.142664366032397
Sn 11.481560688644738 9.421500311378104 10.467337667190277
Sn 12.812808141802984 18.00841916148186 10.839455215283495
Sn 11.604070844591394 12.427039328736946 11.382642170083543
Sn 8.996419519647668 12.336881854550377 13.369720059356709
Sn 10.148376737680968 12.810343749906208 16.422905916888404
Sn 10.982289513439374 8.444605674351685 13.41951681719243
Sn 9.994675709054622 16.794295632955166 12.245173832943918
Sn 9.188405420785084 11.447548274371323 9.399139777689125
Sn 11.217298266409655 16.664361264499387 8.415125533305464
Sn 9.686366499792372 15.793812453991718 15.164021725267027
Sn 10.145410061080527 9.844550339524982 15.94299233148571
Sn 7.4389180555735965 15.017670236814219 12.866018435391089
Sn 8.627047789014407 9.575092440251018 11.699689299719195
Sn 9.483365017523258 14.453894667055902 10.224099726659315
Sn 7.40018132030936 9.820664347876786 14.41799362462464
Sn 7.335660799614958 13.83479289056591 15.799015467538352
Sn 6.8621738738256965 12.72159516147921 10.92701912175695
Sn 5.760570913360529 12.271786145069052 13.772451130995323
