54
Energy = -191.459566 eV
Sn 18.243222401170488 14.464680321179086 10.682220631056556
Sn 18.689844191312112 14.347175066807164 13.719816640810699
Sn 19.411174873703114 11.70191057657428 11.727401148394451
Sn 15.218464957136304 14.59879478750213 9.201487312647833
Sn 17.986974195441476 11.48161610708115 14.447127027826657
Sn 15.969677991891498 15.56047321368964 14.80469572057512
Sn 15.991522453426143 16.95436481928755 11.105300754189459
Sn 17.221274303523167 11.704177707349759 9.506882213794217
Sn 15.581407897429653 13.447708787737245 16.93104302659878
Sn 17.11732183606793 9.70756688892897 12.069132227458889
Sn 14.319294448495246 17.393179367898032 8.4294575927541
Sn 16.208173163391926 12.960556473144607 12.399856222119082
Sn 14.706334214923785 18.206547494088753 14.036127052699987
Sn 16.150923972488325 10.384827904725741 16.69287206531571
Sn 14.381209025841887 16.85345337171757 17.155182393208502
Sn 12.971389384282952 17.797857549243414 11.234776179448948
Sn 12.83753519254059 13.149434989967494 10.319556036925599
Sn 13.217012177620406 14.291050485331596 18.65443060685187
Sn 14.347362037635405 11.94298069800595 7.76456424525458
Sn 13.441180771824293 14.887439217153707 6.650543887516809
Sn 12.961911601074373 14.205858806888953 15.45622350999318
Sn 14.34831916429866 11.302473241319035 14.357766629846989
Sn 12.533255584892304 18.9468283028194 16.101788029639582
Sn 13.826316166572738 15.17708537413328 12.626496531156421
Sn 14.45949472217062 10.697152450627168 10.833899757920662
Sn 13.19189984589126 10.8510841068531 17.789380314655993
Sn 15.204836958559758 8.317947618032559 14.586244642893785
Sn 11.193100960146147 16.2220776560135 17.007657425227322
Sn 13.119612710358696 6.414966057530769 11.32071277393313
Sn 13.328098611823728 8.507939637674731 9.195979739828974
Sn 11.64023878478389 16.9189449807576 14.001614965392761
Sn 12.662238253958407 8.111817110775197 16.37237409790959
Sn 11.287240814352272 12.796858401902927 7.654485282170815
Sn 11.402410362047757 11.419251138093633 15.275050409818896
Sn 10.588894212123263 13.299667990551947 12.456184288119953
Sn 11.728644914619844 15.798257337036707 9.117242539156146
Sn 9.553977791830846 16.12816153902872 11.61878240209085
Sn 11.028967125426888 10.288825221652147 10.937667617812927
Sn 12.505882063482732 8.731484000583917 13.16148189400158
Sn 10.634030449174942 12.503738766096154 18.222565823620442
Sn 9.380096940775035 14.369393997843869 14.966639155512
Sn 10.395998414429704 9.384062213581938 17.927614606946598
Sn 10.501020734614405 7.226303378278652 10.247180106162205
Sn 11.105403918863049 9.692188112123539 7.679260960973297
Sn 9.87685947512724 8.63311335981928 14.918725131116833
Sn 9.066566273487702 13.428483670133451 9.780772503696793
Sn 6.845786831797637 15.405226591064448 10.08677059814827
Sn 7.119643651958543 14.594906172007423 12.979046042390227
Sn 8.497820660037418 11.326086022995373 16.132107971465604
Sn 8.11618299707626 11.612583078970665 13.037549916389993
Sn 8.530493680297289 8.611495132278792 12.002490328101059
Sn 8.727137021312542 7.999234545684968 7.9869069989532
Sn 8.230848415133615 10.489652941260172 9.61131919851329
Sn 6.151406863831656 12.485818157712211 10.796052691785992
