50
Energy = -177.10412557 eV
Sn 17.90137083863007 9.008047734407384 9.399239216361474
Sn 16.033389607956387 10.876674268961938 7.856280798502389
Sn 15.160383893132764 7.811860323472666 8.167939181983474
Sn 17.03473995617211 11.689119277129635 10.840907503947395
Sn 16.386245635398144 6.738735475824826 10.790506275381377
Sn 13.254805230673275 13.253065059836068 7.153453535096346
Sn 10.023624785392236 8.94818114176653 7.346428335718396
Sn 12.942587997936007 10.135320260018615 7.878934503027203
Sn 15.422069499509625 13.875394881183874 9.194137263579671
Sn 14.767087530945801 9.597255311678481 10.651613406127586
Sn 17.316439458597802 9.147183421208311 12.575011333995864
Sn 11.894462949754836 7.271269695970886 9.174407435794175
Sn 13.800076815854842 16.618428311509888 8.174682727382582
Sn 8.740342027908353 11.548481573101121 8.32524640485898
Sn 15.288416063545393 16.44578778548602 10.958415262960171
Sn 14.455863187104585 7.399790847736544 13.07058280082519
Sn 6.9390139132746755 9.095982851355512 8.188196489274928
Sn 10.331575269696769 13.917496705735777 7.614727473118213
Sn 15.918569701722367 12.011319562916324 14.018247668774947
Sn 12.318866566959484 12.515787173117898 9.940337982976544
Sn 8.813376185170615 7.015065163258335 9.555737383839995
Sn 11.123450816994557 18.089719218639182 8.444877457213192
Sn 13.208045699319207 18.71840018835697 10.5674508940083
Sn 10.550412986990535 9.900430611366446 10.40113451958428
Sn 14.202687293655789 13.67620139451975 12.14705561099006
Sn 15.481384631725279 9.195255875064962 15.186563052794504
Sn 8.864059479982098 16.13520314126191 9.123584295892666
Sn 11.907190988900654 15.65761062435432 10.30538166489097
Sn 13.43778941419939 12.561118671832162 15.930034847601258
Sn 9.35222980520347 13.314330008912375 10.722160957138167
Sn 12.892598052105129 16.71294051119687 13.074636920442288
Sn 13.14335818124952 10.48313436950434 13.389668349976084
Sn 10.235312650779278 17.996206389172297 11.576261690842193
Sn 11.56550108989487 7.4703791262958426 12.20317731460142
Sn 7.414720416501877 9.61391416094242 11.093640160224718
Sn 8.187001922821597 7.048364933481042 12.646945908539319
Sn 11.515593168801876 13.587944406520837 13.756659183913097
Sn 12.623876577796661 9.44995899530123 16.36800012967825
Sn 7.928124974850968 15.637711884599428 12.074900175704794
Sn 9.581924870212134 11.308031163502227 13.22942072129337
Sn 11.067374119253877 14.44144232135379 16.79535593862248
Sn 10.008982359226588 16.240534219967355 14.298391801807442
Sn 12.051956265548972 11.65542631887139 18.400047829712605
Sn 6.655220457470864 11.936371146740749 13.016836553593476
Sn 9.895308001220751 11.502516746976386 16.39641468054963
Sn 10.210580533541183 8.735638968256813 14.63592877670537
Sn 5.731777425734906 8.684109101697546 13.445677387998078
Sn 7.603504270514653 7.523568706248668 15.612151604435205
Sn 8.319580503349401 13.749891571925366 15.031067283517777
Sn 6.9697060631586 10.479981387902194 15.670061320980041
