54
Energy = -191.41380231 eV
Sn 10.490384850480941 17.213032155123425 11.606324245951194
Sn 16.737935369253844 11.366265990101123 9.138863094171201
Sn 7.422848304574759 17.24045037654891 10.732552317020074
Sn 12.30811759359798 14.810499326330566 9.053548166844015
Sn 14.119345299907621 13.457432652929755 14.671879910446588
Sn 9.674269268676303 16.416630124997692 8.810640328213303
Sn 15.933275609363278 13.447822240557413 11.15037076642895
Sn 8.235562144690615 17.14507346126781 13.713082103614516
Sn 12.8187180176846 16.178447117290755 13.530753957182627
Sn 14.34981729851027 16.055104606624635 10.896693466632154
Sn 16.841185893066214 12.398284876782494 13.786833486363324
Sn 14.229721959193686 12.656002838507707 7.991656305793796
Sn 13.135839449446959 11.143358935354296 5.534636454772836
Sn 7.236854979882537 14.415028708365998 9.34862602181826
Sn 13.7228011851107 10.871642376496611 10.587011768267901
Sn 9.828613841963449 13.9678900765854 10.801775172517107
Sn 11.034841372906728 13.044447873198864 6.734593367550741
Sn 14.80833704974231 10.195265786901441 14.622101929224543
Sn 12.810882863892322 9.890939178988212 17.128124666138874
Sn 7.031841762214322 14.686707420336754 12.495324280263688
Sn 16.316835802963393 9.977137581000886 11.85076485899724
Sn 8.153445031499697 11.986879601416609 6.874543295799277
Sn 8.792338347954935 13.178287539078843 16.151110607902766
Sn 10.06836234037588 14.70257446612004 13.751254431003785
Sn 11.869292666658017 12.72323852694524 16.596522718015624
Sn 12.034943082470663 11.138343835757738 14.010087748456233
Sn 12.846236761338703 13.544297350327799 11.849969403375654
Sn 7.979091165957648 6.1367867031092596 12.172290997466884
Sn 11.8952814042569 6.437970749963144 8.730813987343657
Sn 6.005201006704546 6.17871399726502 9.273932959087807
Sn 8.395144414116912 5.198324347658612 7.653569186701937
Sn 10.845229845428209 5.836093829732093 13.344465906074293
Sn 5.95826003664647 6.827527618762417 6.31919462046113
Sn 12.869482654862832 4.9199355065088355 11.329763566572918
Sn 6.41385448705713 8.619792684782492 11.14831582319966
Sn 9.179385460731137 8.710139964531633 13.678250928250435
Sn 9.142064450236537 7.656112789427049 9.679155826980987
Sn 14.827447245115032 7.331496384884847 12.96564418043416
Sn 9.892325144592439 4.533220285881399 10.302821134570818
Sn 12.083745606404586 8.179552162445548 6.093940217207862
Sn 5.433696564161652 9.192764613799037 8.27397986794224
Sn 14.605035294980585 9.42300318961102 7.813574910819507
Sn 8.98156836238431 7.908820469372622 6.606405352030177
Sn 10.12100386930099 10.359054042718816 4.986152797956419
Sn 12.077676449617256 8.080779146742264 11.428666276898653
Sn 12.294480048985088 8.101292451016748 14.672986512833134
Sn 6.009167600776869 12.076986684791507 11.421208523222974
Sn 14.651807173586846 7.046226608690493 9.877532909244987
Sn 6.79754350799448 9.604783856787508 5.433308910894786
Sn 7.805650809436766 11.647269558087872 13.791319365825318
Sn 8.007576508328043 10.705693370139734 9.512281542430301
Sn 9.859491695613709 10.282810263620124 16.29587903657936
Sn 9.933067980832792 11.02897186422561 11.814691105764593
Sn 11.373065756639427 10.414784523679005 8.250201372608563
