55
Energy = -194.87902417 eV
Sn 8.841128404009417 8.348622480264398 5.464779719568275
Sn 14.08574696161069 6.595734324846335 9.806100520208961
Sn 10.37022665829929 6.578781280721509 10.245506273068262
Sn 9.723287460110113 10.284742818430157 7.843081931050017
Sn 7.746923349152068 13.131730349130208 7.800290984107256
Sn 10.780082381402039 12.661908140449635 5.914992000188755
Sn 7.636582797891665 11.102171442989082 5.597798393088486
Sn 5.6642597875883665 11.486069399604286 13.739627666219782
Sn 12.0731222879862 9.876948638544615 13.176262903768897
Sn 12.367214437965862 12.636195222779827 10.054541838379997
Sn 14.54000732546033 11.323649099984095 11.827557845626506
Sn 12.697607368280197 6.900143705321582 12.583882105092652
Sn 6.29999922142277 9.903930176345503 8.073159343541743
Sn 8.798817028379258 8.763399845261691 16.544390857411816
Sn 6.503354062854333 8.567721835033044 14.482992985996349
Sn 16.957883543067698 12.402152076327294 10.212520417073769
Sn 14.404107967151047 16.064742103159876 12.553381762718914
Sn 16.606981077854616 10.504303855675682 7.718025019570545
Sn 9.290542177221376 12.920078637348048 10.675496805787526
Sn 6.772837415769153 14.258357591822435 12.288241439708003
Sn 7.941626620995113 7.335997798228682 8.376123315717948
Sn 12.153740660047538 16.98003761543081 14.553804197090551
Sn 11.748784066395011 9.664631233946164 5.442221597486347
Sn 16.962195332546855 9.565480311643753 13.07845475319391
Sn 16.0498951100885 13.47024904744051 7.399478970538619
Sn 16.100088657070057 15.380680644714124 10.028718140917771
Sn 10.330142785363485 14.745088734806913 8.319270055126351
Sn 11.912289712392461 14.093516736559332 12.838028773892214
Sn 8.755031630778529 10.942784100373839 14.14184188519475
Sn 15.239486423426994 11.382292126413978 14.915503362637972
Sn 15.794660634329908 6.676184028025381 12.471928725940135
Sn 5.754425897723124 9.360713272052926 11.246739057252707
Sn 9.504359834457624 11.74080982444758 17.106021819183653
Sn 7.532061311458981 13.50331325199086 15.456089430260512
Sn 8.923632585461556 9.586732369204146 10.763777082639558
Sn 14.056142088951704 8.626389614664463 7.23546432816354
Sn 6.321949889265635 12.120556960214314 10.22413855849032
Sn 13.54782812149544 11.586124416227541 7.497668287924856
Sn 16.37753689934903 13.560576589363036 12.977567233433277
Sn 7.539932327933986 6.870907789213154 11.690176883653557
Sn 14.629734804950171 8.206848621857583 14.76940521837429
Sn 9.683506269246976 7.936837118056256 13.631744589233836
Sn 11.835682394469837 7.83094817898744 15.955698841499778
Sn 13.167168055653715 15.52336375753292 9.389340342068879
Sn 11.39775393906248 16.953702575602637 11.540819706165147
Sn 8.619678868142595 15.93150190067243 10.561143902164186
Sn 12.344419535964558 10.839181025868342 15.952165483523288
Sn 9.358644014409256 15.790362592126053 13.77457916769059
Sn 13.292103327921533 14.396099402176958 6.488312843415936
Sn 11.040119203385183 14.172232999776508 15.778463335593234
Sn 10.997582820540226 7.257912883747485 7.354379010630248
Sn 15.859175976586599 9.044993643916087 10.3229354274112
Sn 12.237767950966502 9.094236116674518 10.028453505581227
Sn 14.046995175032574 14.399392754229297 15.087867237255603
Sn 6.456870360659985 10.791661939773707 16.672769118478325
