54
Energy = -191.52057888 eV
Sn 9.509317031276813 12.738754972307888 4.508857737812226
Sn 10.500358128833255 9.763238778475216 4.427313051690539
Sn 7.449837093203405 10.459781437118352 4.840565201015971
Sn 12.45546249110172 11.996428307695794 5.608440289420019
Sn 8.72665944435332 7.863214784019903 6.2638381997068615
Sn 13.750722226464989 9.87226214196311 7.578573231135522
Sn 7.462537481003503 12.873740223107433 6.933483482973521
Sn 15.277013035694079 13.068907695365294 7.603436023394875
Sn 10.503749190842958 14.24717449005596 6.971253607364981
Sn 9.713362369307422 10.762332808702315 7.23883656384831
Sn 11.463519822162237 7.590845459031249 7.784718259089814
Sn 13.761195487342798 15.065323468894283 9.426605757152414
Sn 6.6607631908016165 9.711529454710487 7.74662155561034
Sn 12.403401255030596 12.457364002593945 8.682028421579194
Sn 16.626515896053665 10.697373876641214 9.113552984486017
Sn 8.362642956733959 15.499315449709814 8.963354393850294
Sn 8.678673519918004 8.052205210668799 9.495399791003198
Sn 14.067573643654645 7.808427899033773 9.826900277696836
Sn 7.573366773610709 11.027237805047804 10.402015826572807
Sn 9.774420421660773 13.078216017777835 10.106194013928517
Sn 11.288571330466482 9.82218195905258 9.902286282409618
Sn 10.936688975566467 16.006142922641097 10.588389991285357
Sn 16.786425654124173 13.707701218767262 10.241569638598046
Sn 11.381765199502892 6.2006142072293065 10.581226967334056
Sn 7.148450528151334 8.934630883823242 12.591310792670862
Sn 14.450911390970996 15.208634344266542 12.373933154533708
Sn 16.50718117161419 6.419993733661749 13.224504003268041
Sn 16.94073586552605 13.583935948763346 13.41273121778575
Sn 11.831689029431042 13.431775604924745 12.379552964158274
Sn 5.766026659347933 12.141595617493355 13.511299542190887
Sn 16.13187542018584 8.930380687429917 11.701113860813432
Sn 12.399719452439683 8.663571977188644 12.455562181182508
Sn 18.199755756705855 11.293538074562566 11.744625175173303
Sn 8.147941108712276 16.468494349348106 12.12569489673244
Sn 14.671742465396989 11.763302794886345 11.660895645092868
Sn 9.69452187935144 7.1525811145049145 13.035866418081985
Sn 6.205707339042111 14.055616963458602 11.060726855646186
Sn 8.549693141882326 13.475061458064523 13.125238404148668
Sn 11.40873969586467 16.43218790685919 13.52617561524157
Sn 7.258071771684376 10.051036939918761 15.450456980102373
Sn 14.26055305991159 13.167777598196325 14.822456562725787
Sn 9.750272237387065 10.348607853228042 13.422209962184104
Sn 11.869173285036812 5.927358330196155 15.127615652751249
Sn 13.668733935705168 5.706736917380441 12.59054267233118
Sn 16.240778034085817 10.601213300138268 14.280850466624448
Sn 14.451829881533412 7.798933085530936 14.927740935043518
Sn 5.890368537009422 15.226244530826234 13.978702114454595
Sn 8.609931903524496 16.126909056702075 15.1773680653669
Sn 12.328644609871576 8.458062086551212 17.050363013756687
Sn 9.58744733978778 7.831812204935281 16.02514699909396
Sn 10.884776744989304 13.90655653266003 15.249503262172574
Sn 12.78577345269426 10.517279877869461 14.818899374892228
Sn 7.441713664276019 13.229519478995929 16.017996961370603
Sn 9.979101983291534 10.95274012114554 16.471858665570892
