55
Energy = -195.36489371 eV
Sn 11.312679258906888 17.37906714173451 16.331522192533313
Sn 13.41790843020341 17.995215274481325 14.030450578820217
Sn 14.260076780442049 16.160639961383257 16.862924915712583
Sn 14.295473260301183 13.051278134935012 18.345073565132825
Sn 11.685513127254081 14.464450100394446 17.42440062650386
Sn 15.448338670756721 15.835279860434385 14.0019409869573
Sn 16.382060191806854 13.610897289396034 16.122369655330566
Sn 8.70396800075938 15.459902177622517 15.952745245517296
Sn 10.48964699618328 16.846013772380164 13.449559971198724
Sn 12.09783407924829 18.04876954155291 10.698415916588475
Sn 12.751758460660364 15.133527669390249 12.391707803692617
Sn 14.987770963829643 17.291661597270345 11.177523404417478
Sn 11.975118646114574 11.211298914343038 17.262483102786145
Sn 18.012246297119876 14.263021449642492 13.334771428348322
Sn 13.31229732686513 13.406224583161217 15.068055505546372
Sn 7.4426107237141625 15.805578486083158 13.103900285782482
Sn 6.5972850983153215 13.04472797298522 14.775201498792589
Sn 14.927344179744656 10.94749434555487 16.083323248256733
Sn 9.186927283850762 12.496444976488885 16.456461594408648
Sn 16.791199551287523 14.922356516013023 10.260078086385915
Sn 15.407021810000861 12.783389091911964 12.002848111769785
Sn 8.90767203601056 17.818943989492766 11.038309393291877
Sn 17.429186814425243 11.152848679623663 13.654425477472865
Sn 13.25785484387186 15.302966891377931 9.446799105928456
Sn 9.711234284233042 13.529892533382567 13.567813006606098
Sn 10.304993488784438 13.324053714462046 9.487748823110177
Sn 10.45901630017174 16.357638151608768 8.73053777337998
Sn 7.804173459634725 15.20657716638614 9.738707306195197
Sn 10.215628883525014 8.928097079038471 15.768371588478194
Sn 8.222585651146419 10.586405140789353 14.022340819733293
Sn 6.9779380352186795 13.101936297767262 11.805545969347046
Sn 12.287122285941347 10.478903936817835 14.073678380810259
Sn 13.276147917521312 10.906309158950734 10.292932040956176
Sn 10.296355033878958 11.079578408482309 11.669139352503691
Sn 18.529454342017452 12.473394722308422 10.830909525882745
Sn 15.989729669213823 12.309696877312268 8.904703925259843
Sn 16.734946567176664 10.01675400944446 10.786491881254449
Sn 9.355610916812772 6.955142725322692 13.591011255233168
Sn 14.730432177653606 8.939023992943353 13.165224479014576
Sn 12.431731979464837 7.113743170854236 14.753086052235458
Sn 7.93377193698716 11.182291158182856 9.5653875987314
Sn 12.49752687803791 12.43378093110245 7.437410274401579
Sn 9.234446551857584 11.652468797859461 6.736723443220428
Sn 10.914227768246176 9.71689183219113 8.507361533576088
Sn 8.210004062643758 8.64168413528759 11.251885534334475
Sn 11.503695797994343 8.029007693872018 11.559221982654948
Sn 13.916329363025945 9.556746726897085 7.287770533452753
Sn 14.333310154339015 6.0255864884071935 12.496990077814052
Sn 11.417102692928198 5.016208240358273 12.523534349014241
Sn 14.35494120332405 8.018057148203757 10.028226260454591
Sn 11.545969714332049 10.152720655155276 5.30432315592651
Sn 9.047191786555356 8.526652774382772 6.245312506076888
Sn 9.414351979021294 7.028950315946925 8.973239404629142
Sn 11.885957268704434 7.332424065952577 6.735430595973218
Sn 12.12292534677916 5.686029861519166 9.62229519740641
