52
Energy = -184.5605014 eV
Sn 13.416705473860075 8.37928657314538 5.983535557493051
Sn 12.131421947742355 11.230656771113628 6.074457510671625
Sn 15.216224941398673 11.004222481075235 6.51030205081321
Sn 12.238063418409165 13.887527543902978 7.905401104993413
Sn 9.267883908960892 14.731414994890454 7.730315039405179
Sn 9.217108791559257 11.567549640140017 8.234263384957009
Sn 15.457620320599103 13.161590412399066 8.7277566968569
Sn 10.74524702840595 8.766604654602162 7.417437269219034
Sn 15.695042029825249 8.542564257025447 8.303260088484285
Sn 6.685697575930281 13.807277566742256 9.05665533005172
Sn 13.031012852679437 7.0004804825579505 8.665615236514673
Sn 6.57151116770026 10.776748479422439 9.465886865107372
Sn 13.225752846609184 10.241445972906416 8.787375430375599
Sn 14.42381430892417 15.876927535295385 7.7129638104673965
Sn 17.064527118154164 10.928995919002928 10.524278256060384
Sn 13.169753695392291 12.897229492850187 10.705669345889502
Sn 8.592806317826653 17.324391904252057 9.870401275490359
Sn 11.409835010209248 16.98686501320716 8.24315202152531
Sn 8.084965769167534 8.205772389147501 10.678317038770375
Sn 10.573266543263365 11.28582800246501 10.852224510199049
Sn 10.33669448294565 14.850596608654767 10.744728555791514
Sn 16.442560734101924 14.864056639694999 11.077405737533693
Sn 15.793356808113701 8.198482282491591 11.657215478854223
Sn 6.866719086359327 15.396133868795319 11.59717024675553
Sn 11.137273297337865 8.323602156023401 10.771675594804481
Sn 7.86442651709014 12.399422460129186 11.7522967027601
Sn 11.382958690543912 18.081445675866256 11.284322701180333
Sn 14.8484987631164 10.96400751717048 12.697331635547444
Sn 17.423706622479582 12.731000299134717 12.997304922374557
Sn 6.035384569058447 9.759771779649553 12.46348010670652
Sn 9.071525823711687 16.933953664632405 13.0504772507748
Sn 17.972423058030728 9.66092042732882 13.315814028786448
Sn 13.551448743689848 16.106576422520256 10.57794919821522
Sn 9.104516545546412 9.628192927967316 13.383062700139345
Sn 13.065740724931306 7.7738203935180685 13.157983645107763
Sn 9.568229819711496 6.493702930990029 13.149968972865336
Sn 10.981015416896376 13.36358233861533 13.540099841128185
Sn 11.922804162486335 5.4242605630177625 14.550820458849604
Sn 14.26469379617791 14.239827155463141 13.213439866361659
Sn 8.02417055791999 14.131377719916355 14.290982783897267
Sn 11.992044688873143 10.398491084239211 14.217657340193682
Sn 6.6428714467401555 6.739284150297814 13.171340555971236
Sn 11.970065203807515 16.200000006186727 13.973414837470612
Sn 16.12217379209889 11.6222390062484 15.526808743373572
Sn 6.9387866714331805 10.709221341087622 15.303685204515673
Sn 15.481318649065944 8.766068739402092 14.841113569561083
Sn 10.998042771216058 14.549126386881733 16.540058343350392
Sn 10.822911322113562 7.626850734381653 16.111580274982853
Sn 7.891268835191271 7.87647387202312 15.69510895182879
Sn 9.593641006104356 11.892059328935193 16.031295934025003
Sn 13.252388372133002 12.750525078678232 15.868729521382017
Sn 11.678278222841719 10.201746622398073 17.256608740049078
