50
Energy = -177.11603766 eV
Sn 8.506734203570616 8.898195688300415 6.119076325909846
Sn 10.380305579271424 11.183150262509399 5.484651588638904
Sn 13.138887094120422 9.884835646247652 5.434902447257131
Sn 8.047434022182442 13.0705915623061 6.417968539388759
Sn 6.131364106319872 10.610010589468995 7.340678065554176
Sn 14.161231879227147 14.617665906902817 8.481362224755658
Sn 10.987613697171154 14.225858246446732 6.827971209715649
Sn 11.432920505435604 7.9698686174576485 7.014009256207469
Sn 7.778846349825174 8.357311549422707 8.961977652322316
Sn 12.55310523708085 11.463511892232491 8.002727321341109
Sn 9.331892427597024 11.018494218780623 8.473242055413504
Sn 14.420217004644178 8.78559557651088 8.090786478445363
Sn 15.515972858506467 11.740664753404218 9.223893378823794
Sn 6.9056150826651175 12.944511962903904 9.234886479775028
Sn 5.642616615160992 10.123562261497717 10.403767350339402
Sn 15.837382810373164 14.218084057962683 11.25167333270062
Sn 8.92171891859157 15.359147459753844 8.754298444194099
Sn 11.48176881831844 13.816440057045149 9.88033438486801
Sn 14.02803842995692 16.79594044759448 10.944562563567699
Sn 11.854050383405959 9.087028929116697 10.074589155425423
Sn 10.117817008786707 6.583551291781063 9.872579445819866
Sn 11.822287722168108 16.73600062792594 8.58775948534132
Sn 13.060334683406412 6.1155566678927595 8.976440142097196
Sn 14.473438053383953 7.920982989332849 11.238143708514889
Sn 8.747165401018549 10.397291851813884 11.731443178256129
Sn 6.74541604251594 7.617094423784947 11.824294175823788
Sn 13.76632619753872 11.259048112493264 11.71856434498504
Sn 10.638861503479216 16.759792026389498 11.417629647750987
Sn 16.66256181313271 9.893779796261597 11.254139776216388
Sn 12.246300262662858 5.851224048201099 12.149613338252605
Sn 12.937032710230262 14.288899766870928 12.655156640652988
Sn 6.485627928598957 12.526028002970333 12.2736898554475
Sn 11.256157389356355 8.65908031322324 13.628199097801097
Sn 9.239446612984501 6.0703446281542455 12.850562223541754
Sn 14.073335313317953 7.119093811704174 14.241871565902418
Sn 12.501759065801965 17.225568612561688 13.871426971674186
Sn 10.904122459844208 11.96996261463798 13.666820914687898
Sn 9.167150515658246 13.920436533338318 11.871209140894125
Sn 7.815724203685457 8.600512213943794 14.463521980605266
Sn 15.42274290123846 16.216884890295237 13.731139893273774
Sn 15.294401606871123 9.902808856530141 14.000965378594342
Sn 15.4838024303969 13.0425748320738 14.2108215770506
Sn 10.26268650913253 15.122963671402427 14.593500310116038
Sn 9.815297163269747 6.702277181224039 15.823892701697048
Sn 13.002139257097443 11.33436669871252 15.864800020947841
Sn 8.081112892726031 11.666409794221535 14.8298552810785
Sn 13.382265548306444 14.694343963036477 15.734734955324663
Sn 12.483080253531794 8.254405341491305 16.535441811052657
Sn 9.924210683189628 9.760743232683387 16.617128863563053
Sn 10.424842388285569 12.912666064224343 16.642457863433492
