52
Energy = -184.29017869 eV
Sn 18.774043061970886 11.678883401662352 14.397274660922685
Sn 16.526429429749204 13.684510672767681 14.893793455354652
Sn 16.655270434281537 11.053255675240681 16.669050693533
Sn 18.0713129690093 13.396746260739675 11.90737184725363
Sn 18.348178079277247 10.204088222010082 11.728479500165488
Sn 14.674118180002035 16.094329083827173 14.996138710149719
Sn 13.89445688722096 9.425368089025534 16.891402929196285
Sn 13.982126509989595 12.611031553184027 16.479146175245464
Sn 15.363578005688128 14.92294422616056 12.063274182564008
Sn 15.439441276797632 11.535038490652267 12.294574256548096
Sn 16.43319431357581 9.367073227342967 14.100998495130941
Sn 11.636300271949333 18.04346775083031 14.809963636765994
Sn 11.947509052186277 15.060386392618998 15.986811876775198
Sn 16.230777834095406 11.984669438155947 9.45625087811125
Sn 11.137567991339266 8.111872931700418 17.882009226067474
Sn 11.32445975240423 11.066428947375012 17.718960911362576
Sn 13.517251244309007 17.550406119638755 12.384877846848665
Sn 15.991610309075565 8.927932444003503 10.388678426656147
Sn 12.47990198197715 7.293602749025996 15.168802379100999
Sn 13.129822989734212 13.431973014874682 13.580433646231825
Sn 12.591309312263228 10.442105182160345 14.273362561428163
Sn 15.207821980775144 9.565846547281726 7.519088564200745
Sn 13.943978271268264 14.398267560234588 9.355041147609596
Sn 13.663733464689766 8.414812760116806 12.352109493776343
Sn 10.74493832526964 18.951635104043966 11.903830830965662
Sn 12.079659316348991 12.320153377817979 10.461241685755471
Sn 13.481442199492786 11.952405805427576 7.39995925309843
Sn 9.947848821257631 6.623992959360235 13.263832535616457
Sn 9.748922522692068 13.897405574515114 9.310917853056164
Sn 12.852146060109712 9.454401348760094 9.550662416052367
Sn 10.952304578458486 15.708710575667844 12.868747207009305
Sn 10.011148560388746 9.219740648399194 15.303314714172119
Sn 11.555010643126497 16.471756624241642 9.931589309399621
Sn 11.63419215907476 6.633970094496939 10.672151286342144
Sn 8.68246420484195 17.93373789499509 13.993800159153675
Sn 9.905009480564738 9.208401274053978 11.49859664609802
Sn 9.476267446453026 12.254869448938495 12.428200878679222
Sn 10.141395370917447 12.595916741581942 15.33571243653765
Sn 13.69831056335233 14.807201711678518 6.375497579252243
Sn 7.275306665262221 8.092106855872624 12.890376654771542
Sn 8.554425368294666 16.907958929877726 11.066696535315916
Sn 8.14429935173467 14.900480870898404 13.6913217305217
Sn 11.528143260919464 12.7389469737568 5.224380181401085
Sn 10.809963366925361 15.397303189055975 6.7922486950478245
Sn 10.509926467584759 11.212654705848736 7.874852723875637
Sn 8.338345214941539 6.331085942671638 10.551689081512103
Sn 7.215306413497979 14.008402198744832 10.902721409622815
Sn 8.76085056109204 13.24869326087631 6.4344295262169275
Sn 9.964189598345078 8.150301472488731 8.521495436484003
Sn 7.512433196992303 10.86031724289815 14.908189649463697
Sn 6.655285268917651 11.146824048935686 12.049717006244071
Sn 7.215495435761173 9.069610240581484 9.841383807361327
