50
Energy = -176.7186577 eV
Sn 17.71246076993776 11.539403323650797 13.395035959572883
Sn 17.23400471503556 11.410920147213679 10.243228459795539
Sn 17.40380998644691 14.30240533114016 12.077355300076723
Sn 14.690828916830153 6.651839411311518 11.419841260750205
Sn 15.698574503831978 16.200268839568277 13.799104897191881
Sn 15.350799349735922 9.841753036091065 12.186934803340874
Sn 15.776377723712173 10.42491400377807 15.638108783661822
Sn 15.314399308790676 8.914982690153066 9.111409413093929
Sn 15.048627575900568 7.63324737706067 14.359988958528923
Sn 14.400989523199392 14.783206799423418 16.32293625898092
Sn 15.06087191377428 13.03422950218733 13.923723243876433
Sn 16.513436253920666 14.191182775157998 9.150149665293345
Sn 13.500429867930713 11.978107315003975 17.068979026121497
Sn 12.889815483671073 11.746758549449966 12.3040198486541
Sn 14.187980616151542 12.069572569481695 9.534056889223912
Sn 14.245978809847788 14.927556974129368 11.179935531177376
Sn 13.359300697381999 6.621172752964603 8.3716845065107
Sn 11.699717582353138 9.540639921849534 17.59480331227097
Sn 11.648029369263915 5.789539714228852 10.725500940289823
Sn 12.765191989823707 9.7994054754149 14.735370415530655
Sn 12.46447925978896 16.485751422234753 14.787963185787868
Sn 12.457104532822862 8.861760114433626 10.827790300204182
Sn 12.110283154760447 6.994862859702064 13.479200770644573
Sn 12.794486801968805 9.512779644689356 7.206871668456095
Sn 11.157385100994473 13.233833116959556 15.511647383678481
Sn 9.813957473455877 9.67358244701961 6.151757248891815
Sn 10.331570138734717 7.844085452439505 8.605664520937456
Sn 13.734706006057134 17.893439664649364 12.177807277795333
Sn 9.656790665547181 8.361494026692045 15.8014870386752
Sn 8.847217657141806 8.376065274748756 12.835543422905694
Sn 9.814687534674615 11.007286275498254 13.854603543290995
Sn 11.662885664023394 12.332004276568245 6.526258319512956
Sn 10.796424655316045 11.055859041310613 9.230246567118144
Sn 12.591260992523845 17.10383498334706 9.411483894610758
Sn 11.313735611050781 14.40260867618232 12.68801810391895
Sn 13.721528612361368 14.611425564255768 7.781332258928876
Sn 9.172326086252266 11.276965745550951 16.99437417330681
Sn 9.248380762433118 15.600480757714756 15.2531785624688
Sn 8.615812802438002 12.240884748365055 7.176668573952398
Sn 10.677203083127608 17.613643514573813 12.660686822261791
Sn 8.008082222087825 9.838852661761582 8.967023039889755
Sn 7.027716165667431 9.906148202267564 15.214202247789562
Sn 11.103851868035653 14.262545784264306 9.493677078327499
Sn 9.537281328741544 16.95596740956722 9.688429200118346
Sn 8.97471947366371 12.53133863693405 11.37075977776481
Sn 7.386240560318986 13.02112922536471 14.338454771183391
Sn 8.247067779715058 15.53367285010766 12.295685719271372
Sn 6.689538338021349 10.488922831988562 12.109208029976067
Sn 7.810055272523772 14.459414525219719 9.175289136484503
Sn 5.981922972559446 13.47045419060154 11.65077991688702
