53
Energy = -187.62482765 eV
Sn 14.24610914662534 7.0778121735718 13.587087555240487
Sn 11.73004796253839 7.142555924895813 11.82109582679605
Sn 11.371574570292168 6.466412244708544 14.887216503603533
Sn 14.380816960291062 9.538025704991947 11.016085449127754
Sn 16.890524632408933 8.744075130801686 12.578459931039584
Sn 13.588937329488541 8.139153621971415 16.367659792873596
Sn 15.803155089153444 10.312567976022066 15.104666329277082
Sn 12.297367054748413 9.583299629295306 13.76125646509544
Sn 18.09592835559869 11.501720300123054 11.735420558069958
Sn 14.492320437881167 9.475949284958288 7.8378879855169306
Sn 17.19430648049979 9.03616021080718 9.55539124806227
Sn 8.8586142264861 9.547597689822366 10.273165784515578
Sn 9.418237290993886 8.526312312297886 13.409217917682478
Sn 17.73255855641567 11.327635694907684 17.174877980457204
Sn 14.590047792252983 12.277316101733396 6.554757188629228
Sn 16.094230100189264 11.793019122885507 9.164998016530298
Sn 16.642819896407822 14.364149029226681 11.205754169639281
Sn 10.518943051937205 8.965642123152886 16.358640551849902
Sn 18.78583423621303 12.53902644461377 14.623735461935853
Sn 15.16133066155689 11.906293713365175 12.627823377030484
Sn 12.767020966897645 11.276418799497613 16.406505904616544
Sn 11.797263969472205 9.256262502968339 9.408047968134584
Sn 15.134527121489011 12.787358957658103 17.77255431991047
Sn 15.541046494387492 13.953545448703355 15.02039915804578
Sn 8.970356733320326 12.172773421250254 8.669813302705883
Sn 7.31597900568108 11.854100847155262 11.418248490915046
Sn 9.919831699973727 12.155663306513368 17.130807971297966
Sn 10.9530809023862 11.610447349350196 11.482624790288478
Sn 17.93270343839771 14.509882726941887 17.03966074679248
Sn 12.39075991372663 12.25533264909625 8.599289029370627
Sn 13.314357254840726 14.012833106676265 11.356174585150297
Sn 9.160947134877707 11.788636468914254 14.096197600041435
Sn 12.014113924331907 14.5840985121654 17.34834163987185
Sn 14.797866180468985 15.89015668838002 17.70433212250252
Sn 18.02262409964371 15.350833353942315 13.956834076491987
Sn 11.826931784879823 13.39137682848107 14.454273347998349
Sn 14.873060469967893 14.515130960179363 8.658365228233865
Sn 7.165261814276179 14.34010346277417 9.692884618328362
Sn 13.780905563596356 16.403729911827757 14.49062626519243
Sn 9.291516900695397 14.800886696590117 15.596791983310228
Sn 10.192243234095523 14.418777327653677 10.44736273532004
Sn 8.180498888602553 14.645822629999655 12.635366088788517
Sn 14.839659475688435 16.918129328740594 11.444591645486861
Sn 11.041672852772212 16.54095565434694 12.996340762897326
Sn 16.83735200285402 17.403653300757167 15.97932459647814
Sn 11.39107118679638 17.382006519972634 16.24957169589287
Sn 12.180465985722504 16.698518175054144 9.876933924385806
Sn 8.401078670635457 17.408005452853654 14.322561056436253
Sn 12.610568966764596 19.111664202576293 11.750768389249936
Sn 14.006095827318262 18.936775309437884 16.373474218774508
Sn 15.475487326445108 18.9447193197195 13.573732498749767
Sn 10.642716865929247 19.49017557692667 14.194489230572549
Sn 13.312504908047408 20.968533374336843 14.1258914835131
