52
Energy = -183.88913589 eV
Sn 9.361644239405758 7.7808111307345555 5.948720882857281
Sn 11.367352839620644 12.1710236600573 4.630208322569424
Sn 14.846133907278647 13.316570403483546 8.079814938044645
Sn 12.012444809020131 9.020022400554536 5.0937397454561575
Sn 8.653417687960694 11.740311315813756 6.064046382188859
Sn 14.193903380298975 11.23251335804472 5.944889728905334
Sn 11.095591828452498 14.16285252598141 7.003589031329264
Sn 9.432697575885182 5.076748559949794 7.358195287523053
Sn 8.145563487718222 14.43900284638493 7.202630178231219
Sn 6.815117020421385 9.354743414936506 6.622417178013666
Sn 11.432174362876887 11.038035630273143 7.44009689089774
Sn 11.926863486612865 12.756975718404178 9.879971695150997
Sn 12.128983285795618 4.437620289126108 8.877667594157963
Sn 16.831480602765986 12.579044517404647 10.279275473151321
Sn 5.96564880541427 11.43609652210989 8.830685570273234
Sn 12.950972757260494 15.530366780720524 9.028889490515304
Sn 14.700825852359081 10.522691984553923 9.214764219721141
Sn 8.709627892965967 12.830886537393727 9.718399732939874
Sn 17.09123868448762 9.471543518523017 10.820942012209445
Sn 10.122642409928938 15.623363744491389 10.418689466770525
Sn 9.534599180847872 4.546813334973348 10.454522695629887
Sn 7.595426319511047 6.93823494439917 8.999128990777075
Sn 4.499177910101788 8.820024381673951 9.857372370782834
Sn 11.552697622587138 7.312544468753963 7.977916805674536
Sn 9.001615966318235 9.793964542973088 8.730541638475515
Sn 14.323638128997189 8.31445578409641 7.1135311568716
Sn 6.950737456585638 9.953478869676664 11.431881991235123
Sn 4.300309543557816 11.722948139392198 11.429728027024705
Sn 12.442525954460509 6.210302283698971 11.303687560536488
Sn 9.572500706675543 7.522405611233231 11.382697561990716
Sn 4.222384340351738 9.036375882620938 12.919206308526123
Sn 6.249665776995015 6.924839959704279 11.807552453345089
Sn 12.122273854428432 16.452412964404157 12.757964689803071
Sn 10.651637483297721 13.700783832156732 12.868977830358945
Sn 14.600005991455415 8.395074625610716 12.146141200733812
Sn 12.126851675368497 9.251099806530547 10.266474991442387
Sn 7.135851673542974 13.4396366298064 12.254569870519505
Sn 10.577698483354848 5.4097700141705225 13.534177631444068
Sn 14.361613514191301 13.806224702266952 11.655733677375904
Sn 16.2249718855463 11.303033492550128 13.084157496264927
Sn 13.140858464192526 11.119592272617048 12.769251490877208
Sn 10.018836565867039 10.643999444006926 12.114105394959266
Sn 6.068839024105928 11.18329314605465 14.061242122458083
Sn 8.809582947787241 16.28376658251651 13.147390089391498
Sn 8.338073736657735 7.409214312519478 14.096059661465386
Sn 10.784587235663816 15.69678522799721 15.427848967896825
Sn 14.365316235711742 9.243937312565436 15.0291027065323
Sn 8.504665215677795 13.704823591887301 15.002936454787529
Sn 11.57082520694642 8.013166758323237 14.819810130721743
Sn 13.268865630884777 14.009216513230335 14.56417968312138
Sn 12.130258072868859 11.262545264814268 15.571837012900446
Sn 9.288639046487992 10.173866211391765 15.082493282726658
