52
Energy = -184.55088024 eV
Sn 10.542270009435427 15.403021699490644 7.826403373157364
Sn 12.67229935200262 13.881774659910137 6.318477158354402
Sn 14.862659574012637 12.364987049000522 4.940954861856626
Sn 9.696256455352756 12.516413424439019 7.243517433557564
Sn 7.706323741113908 12.511777230000089 9.680597771185944
Sn 12.301922588220654 10.69473795542824 5.933883878450543
Sn 15.432203715475813 14.589597104962667 7.353209668872945
Sn 5.813984693280385 14.194322502642734 11.322043119376794
Sn 8.479514383103977 15.46329945795211 10.24607165672846
Sn 17.150480073420823 12.021426554927421 7.06595197880429
Sn 10.749861035143576 10.105890582903823 8.808080729874478
Sn 10.909554977214121 13.271916206306818 10.096851371315244
Sn 12.44363417062197 16.441796287737258 9.963687986657376
Sn 13.920944096708189 11.979013664766768 8.386815920035025
Sn 15.33083301026028 9.597514820924275 6.336504205966239
Sn 9.068123405410766 10.808666925442541 12.225990604962043
Sn 7.607970226527991 15.918250338193603 13.196032186772813
Sn 7.841901068215397 9.458904977089205 9.679072209793068
Sn 5.8699240877139625 11.084260138927409 11.908025879786699
Sn 16.648272926814442 12.975774732853209 9.976222278614008
Sn 13.181759196505459 8.25854927102062 8.065481893720015
Sn 10.36640439040566 17.107010300394325 12.117431141476521
Sn 15.454103350499766 15.97714126690914 10.181877259067527
Sn 7.260413979866889 8.115933205500177 12.26142492637628
Sn 11.353482092078842 7.261429360860699 10.701031354431143
Sn 13.425956969453306 14.462141442805814 12.103349453969194
Sn 7.218485586711662 9.848944898148067 14.701716639810229
Sn 15.813419082345177 9.805850032862898 9.448472394366588
Sn 12.864922725261891 10.04622330700307 10.977484739242142
Sn 10.248721569947554 14.071489625066787 13.224111765262625
Sn 9.695737170648544 6.337005766094764 13.02934554761169
Sn 7.41909801093279 12.91689401434349 13.995453124926474
Sn 15.174912839055855 17.12122033903639 13.180858880398596
Sn 14.37451740284178 7.343909310622351 10.989324976238901
Sn 11.182795877464162 9.03259426128844 13.578742308743415
Sn 10.202094976979824 16.701141109433806 15.141951110464042
Sn 16.704487858898613 14.522536900998036 12.94873837593456
Sn 8.484147587789051 11.809027152978091 16.675435741114704
Sn 12.879971110974994 6.071313839841728 13.445031324084434
Sn 14.905115673620902 11.895182629369101 12.361948906624395
Sn 13.018750682605416 15.846155389468498 14.781014057709315
Sn 12.554496410649687 12.042695063393893 14.57394056605413
Sn 9.397785342794528 7.756048794398196 15.849153520277085
Sn 14.22930591855766 8.87309531935581 14.03499010524728
Sn 10.859428820251667 5.10830090350418 15.591760245354708
Sn 10.583394291672946 13.93637794201986 16.373035282007073
Sn 11.045519294545862 10.150108998991039 16.64590878515501
Sn 15.872946456880783 15.482668910223545 15.828948050594562
Sn 12.700642555396865 7.367544980164615 16.408874419681723
Sn 15.826170588717352 12.419258489258317 15.204820696029339
Sn 13.544507890466846 13.668787661429825 17.06903947278509
Sn 14.05682333134094 10.297474278430569 16.927578333552493
