54
Energy = -191.51731731 eV
Sn 17.97821022316163 15.64693798059267 11.022718934095137
Sn 16.74024617765645 14.728099491815922 8.083591309181543
Sn 11.724545352208407 16.897006412248423 9.138244614224208
Sn 14.560562914700125 18.19306967005952 15.086204051139909
Sn 10.102183259557085 14.366738541525283 9.164104384818481
Sn 15.3113458614217 16.90499188104171 9.913180772187626
Sn 13.52658958174666 18.226382645161895 12.063266805951523
Sn 15.744366337407554 16.233906361020466 13.148666923572007
Sn 18.06203412196594 12.698485480071454 10.061995743121079
Sn 17.872758335069946 14.228403586800862 14.082708161641735
Sn 13.594146541291842 14.284167404129194 8.44635829986897
Sn 11.62090986663883 17.379732036020698 14.508379426679126
Sn 15.293784472151739 13.729698606663833 10.928063118217604
Sn 7.380960956117896 14.273347553319425 10.513081388477232
Sn 10.072697374398988 12.718103893423812 11.771447633856026
Sn 7.5587633726963865 12.33036221058329 8.040183966472469
Sn 15.710998823922433 11.849016843894379 8.105385180652869
Sn 10.460754733613426 18.0609271232797 11.640689662209567
Sn 10.24184563841782 12.542302401803738 6.844558251147562
Sn 14.007771638849361 15.505791740941813 16.31834694157914
Sn 12.21757811229163 15.35977640829518 11.865255858498008
Sn 9.004466000879981 15.711510695304714 12.881208407139004
Sn 14.506686232132775 13.584887196489746 13.944824171033016
Sn 15.912636107297935 10.520681984969803 11.041248988471468
Sn 9.093881648008626 16.237019538440844 15.93734317409429
Sn 12.768636233100652 10.720671583727025 7.236432019931575
Sn 13.039213735399931 11.483058475293141 10.196891532785251
Sn 16.6437907602335 11.50983217644163 14.005263737311646
Sn 16.356689803656813 13.652536436791728 16.64402995669012
Sn 9.866700773050257 10.447001160884742 9.25483984350936
Sn 14.498208428265487 8.803488270020617 8.904469327534452
Sn 14.210009957670026 9.05517346321984 13.887093114556027
Sn 13.301171440054603 12.051737325060309 17.146547217332937
Sn 11.421492842732508 15.392086551276492 17.788144558752546
Sn 11.30686747142174 14.22382282775839 14.722786292193396
Sn 11.868237747717869 8.790475911496866 11.659672337627258
Sn 7.32978578074377 13.007862878935814 13.315606806060726
Sn 6.593335580938207 9.650070458005912 8.802444947106302
Sn 11.444679318946822 8.00704661154687 8.021420903570892
Sn 7.480000160574712 10.788956392095491 11.343177611968382
Sn 12.099405344892665 11.053046937987522 14.586572149710834
Sn 16.002742915697134 10.555369688424626 16.830331485895655
Sn 11.185202529172072 12.69932201140941 19.209870335367583
Sn 8.967416708495893 8.370284265359627 12.593812249754917
Sn 8.617913494037403 7.488496222380665 9.566673669930527
Sn 9.134238210330277 10.794192235389882 14.752456292622352
Sn 13.216730324236892 6.283001010571661 9.997349832893333
Sn 13.287098059440769 6.231593680956489 13.040570949057866
Sn 9.21969699859564 13.202351806553859 16.890231382982893
Sn 10.624527220543326 10.278026798066447 17.37852366713599
Sn 10.526721396975585 5.286060400176873 8.692574575627331
Sn 10.460823804456346 5.846250126305654 11.750196365760427
Sn 13.348196053043834 8.836569362128525 16.845847953472777
Sn 11.2148400935924 7.705049237892152 14.767778418044816
