5
Energy = -14.19550204 eV
Sn 11.457672695646133 10.075130443249602 9.929562708935425
Sn 8.975776331284328 10.899521573256788 11.078034786360282
Sn 9.252882802735833 12.88936053176845 13.087487819057715
Sn 11.726079601179718 12.074795664667922 11.952650760911027
Sn 12.812077002196526 8.35199594692711 8.244898710906334
