54
Energy = -190.97058587 eV
Sn 12.738299589486099 9.743490649137446 17.033625933758223
Sn 9.379703789615867 11.045889692958719 16.517282931358498
Sn 15.824780123614621 6.127211045792444 15.165253700507776
Sn 13.020030153839569 7.000933507528336 15.57383992105708
Sn 15.702426453246062 8.852632010327882 16.702244447916453
Sn 10.085299189534599 7.971842074377931 16.198489152238693
Sn 15.045339862488083 11.992897847764594 16.277093314823393
Sn 11.986325375236072 12.296185224707505 15.308113091299768
Sn 16.878815190432412 14.025970297933984 15.030461484215687
Sn 14.514760813105848 7.208142494584232 12.654174551388701
Sn 7.109498420255343 9.349443448168996 15.416072335742538
Sn 13.87057675756193 9.886658941506882 14.073666261204027
Sn 16.99238672775638 8.683007975748646 13.82677524824484
Sn 10.744933158914947 6.662905964920012 13.529553783876068
Sn 16.317105146568696 11.663566187944626 13.133424373567376
Sn 7.831453279078696 7.297634182780752 13.414562584242743
Sn 13.856795480095814 14.718395390810926 15.000523343194171
Sn 9.919878032650809 9.83468813731934 13.626444774282692
Sn 10.499277126360779 15.437991613710313 14.216456069670619
Sn 11.9492113689273 6.608717901669265 10.74031157426583
Sn 12.418924427888703 9.56510431112912 10.848898665261741
Sn 9.146451527257781 7.90819016165449 10.027894322511168
Sn 13.075385544634235 12.548553238493703 12.467197371228412
Sn 15.557219803939974 9.723938413465596 10.714489472991383
Sn 15.530885339487726 14.589903444460699 12.346212837640353
Sn 6.944386958548067 10.337697207255422 12.607437797691906
Sn 8.274022818164466 13.539383889968873 15.021633051724312
Sn 6.259188705605847 7.75849426828715 10.942985207017204
Sn 7.243271005531656 16.341555154785514 14.137990028643909
Sn 14.213337842778408 7.971914137567933 8.56298644202704
Sn 16.391716934708587 12.660013623610029 9.736824655403154
Sn 9.583206130656832 12.923327492501405 12.308590400370656
Sn 10.063171953928578 10.957968800401469 9.448129357382108
Sn 16.362648614253356 10.177450245333606 7.658504430699585
Sn 13.571872132007142 11.96947329351435 9.120553302325895
Sn 6.21079873062265 13.490276371558007 12.882058626795205
Sn 12.685259990033257 15.899459882939022 11.933240153400169
Sn 11.567878277266392 8.961973103815225 7.467572019170205
Sn 14.466395609456088 15.097597729549364 8.974093975253316
Sn 7.112471395622218 10.392233887765919 9.536253129995895
Sn 9.002260742934526 16.073159837516293 11.641309576803632
Sn 11.507116855162451 14.11534631217771 9.775011640371643
Sn 8.677400702761554 8.586287629477905 7.097428792569459
Sn 14.040079198150114 9.543644565884478 5.73816334687058
Sn 5.899437290827247 16.152900903683765 11.356295846326129
Sn 15.187941193524297 12.792619195384491 6.495691074031762
Sn 7.529720683331704 13.753692919006582 10.062746961597247
Sn 9.346119584365997 11.480218404489806 6.49630641563187
Sn 12.276914067664002 11.962102451773175 6.385862859720489
Sn 11.013287915629691 17.3138686346078 9.618095504279971
Sn 7.821153314210934 16.96064173810034 8.939776815561629
Sn 9.287707159380778 14.334280708489816 7.594008929697588
Sn 12.290343426873603 15.13274002335515 6.850888740912578
Sn 9.939459596151721 17.154207580946363 6.782488347020642
