51
Energy = -180.73933382 eV
Sn 6.440438945840134 7.770997932745466 14.657978163506241
Sn 4.897543378034375 9.960199601946288 13.308387482234822
Sn 6.837555990913006 10.72879861235535 15.769460295998181
Sn 6.680822104903109 8.137703607023566 11.438168201879977
Sn 9.199994133001136 8.542126726453636 15.85872991786301
Sn 5.8929246764684144 11.367232290913067 10.665046674007435
Sn 9.125457334118765 6.974656383429318 13.189983925981887
Sn 6.005201727729462 12.904830133803594 13.482589093480907
Sn 8.430682124089207 9.569478209632415 9.139886154515303
Sn 8.223196046175872 10.276576109153627 13.035926576583025
Sn 10.578180326279616 7.7920671718272505 10.538922094713978
Sn 8.981294721213446 16.072240852094303 9.05000615421894
Sn 8.68347944261961 14.194195126017132 14.578602446960838
Sn 8.399889118073846 13.145885196678197 11.475774587853738
Sn 9.707450966148471 12.463682294922243 16.98043346199518
Sn 11.652079005737642 10.10868573125659 16.638425330762033
Sn 10.706174573292403 11.3087391327818 10.44272949184434
Sn 11.289921136399885 9.336448174464413 13.451104472437725
Sn 8.03628935013887 12.513263972813586 8.55582677774203
Sn 13.76312911895636 8.068470604758518 14.826652583793281
Sn 7.999212960463501 16.13057729110378 12.061309170606924
Sn 12.666293624271326 6.428967085648579 8.576873352965325
Sn 13.257199796544668 6.636248722947657 11.713036337401386
Sn 11.403499478501264 9.381593793085887 7.730295993401849
Sn 11.152178325371072 12.443865310664593 14.172501153918452
Sn 9.975012479647427 18.29906225465033 11.044895870517669
Sn 14.686106572547535 10.779777854022088 16.10250567493955
Sn 16.07725442858418 7.667986732924207 12.750899135699624
Sn 11.044451157630021 15.09263774223509 11.267113726536488
Sn 12.935919029071856 11.762311448990804 6.392616944158076
Sn 10.490337126212614 16.91344522999023 13.877883723873033
Sn 14.377715595421627 8.73493377945123 7.258744382044992
Sn 10.93763943415394 13.671535903979526 8.387602225903716
Sn 15.55620065723967 7.103950191064825 9.715267632257062
Sn 12.688621297052043 13.089712532114941 16.84058007504268
Sn 13.38519185868389 9.392685604098423 10.193482755702389
Sn 14.432945212512559 10.376864107828693 12.96111427783365
Sn 14.208849534294146 12.382875257306592 9.195556238907365
Sn 11.963829410968913 17.027460782019265 8.999014679988898
Sn 13.42366389564891 13.184608275367584 12.169773451646432
Sn 12.940992325395547 17.377525063813156 11.852717879364217
Sn 17.50137712871539 10.415472045841357 12.383862469985786
Sn 15.976710951391015 11.349824466800207 6.51106536124316
Sn 15.26507816539045 15.338670509693403 9.894580325253791
Sn 13.624376412722585 14.79009150919149 7.366828442728522
Sn 12.881084795130548 15.131094864138532 14.680726814522862
Sn 16.596018777323312 10.440384671397423 9.436415640228757
Sn 16.217504237728928 12.577185236522912 14.176314380798
Sn 17.493670555035436 13.364139377266392 11.209572014089156
Sn 17.134039326159936 13.50370951485854 8.280444410705991
Sn 15.508827845748234 15.308280013663795 13.044505870244423
