51
Energy = -180.17312088 eV
Sn 15.906330374730862 8.761735097787048 9.756019206229965
Sn 18.006952389619688 8.725835213996698 12.408713395342739
Sn 13.809518091693999 14.268425319819858 8.176396350996052
Sn 14.435894831538274 10.912310170189773 7.626081161819189
Sn 17.91957068091223 10.99856203923463 10.325513141787036
Sn 12.163739352716041 9.553360204632652 5.950342944592749
Sn 16.64585753385588 13.638588369431973 9.045297169770214
Sn 11.933856603710685 12.554771826711182 6.450856241077617
Sn 12.918844886540096 7.7442805440462275 8.628624536306829
Sn 15.42023026742477 7.219905801144159 12.452627266165218
Sn 14.854113781816448 11.641401296070818 10.65542242890529
Sn 11.57252137566574 16.32475052440825 8.078741901511616
Sn 16.602047172232975 11.153750528818453 13.250609849013943
Sn 10.01249481631556 7.9910433377211385 7.704096011605551
Sn 11.886043305058143 13.752947461948642 10.43496947028897
Sn 17.91690725690162 13.843444189874447 12.288884586776508
Sn 9.32661441373681 10.952402505999633 6.783852212028372
Sn 11.613505258795659 10.661291402765904 9.061629927282457
Sn 12.828957396588333 6.030585381938925 11.407341600893204
Sn 16.12167516654784 16.00385930797537 10.928671019875864
Sn 9.696841908858483 13.952888239057186 8.328284628769108
Sn 9.970550456816497 7.075522856373228 10.72316044949373
Sn 13.061370540571435 9.200250619938618 11.5041486818326
Sn 13.021562486293478 16.51469066901045 10.805420735406468
Sn 14.5120267734253 13.908896381254928 12.917238734859682
Sn 8.60655542684535 9.771217028687314 9.801728892611461
Sn 12.792756130853633 7.45019543030065 14.174030709946951
Sn 9.554472508752603 12.125891184863756 11.750590751945428
Sn 14.680410839141999 9.696854051606906 14.971735742460114
Sn 12.25744582569604 11.165143909097067 13.898795053302152
Sn 16.528587294914313 16.245494016731705 13.97263034671947
Sn 13.419940039304139 16.673458704924403 14.24243525399895
Sn 16.697927212492957 13.416576609266237 15.224310160640893
Sn 9.848312927536803 9.168527126035581 12.835929149335575
Sn 7.3437918486208495 12.515392753167808 9.66103343487384
Sn 9.931302130556347 16.057401274131152 10.995204045762403
Sn 11.434615155460374 18.32313215725909 12.581385237562285
Sn 11.578388447475822 14.16160749041614 14.179934067618277
Sn 10.885191866191084 9.37549581336121 15.904676309646288
Sn 6.977771345851393 10.185522834752911 13.418587059089326
Sn 8.79352773724431 12.478961820030522 14.702810827989202
Sn 13.063286933911499 11.082297105697926 17.183376572519247
Sn 13.929659045774867 13.991401025866582 16.469935979574874
Sn 6.385931408128664 13.162188868302268 12.622104958550102
Sn 10.899182576720477 13.270514246381028 17.134167744990474
Sn 11.631387148976998 16.185879731686878 16.689983794658275
Sn 9.708442422392155 16.426027051252323 14.227106163588864
Sn 7.782715369244741 10.207642575544146 16.467627081350678
Sn 6.987599509755359 15.001098455455319 15.040006995643916
Sn 7.786597442559449 13.28725024837142 17.491752011612927
Sn 5.631702369202302 12.158191086285573 15.493015965936886
