51
Energy = -180.28336596 eV
Sn 16.687729379822382 11.639191298159247 9.510882274281558
Sn 16.322948383424745 14.843401031197658 9.928983166488432
Sn 12.922834241805813 15.766831986595603 8.922264881338128
Sn 13.72015407544578 12.812787036007007 8.695207373938993
Sn 10.083747119298598 16.998196484232775 8.174370496417847
Sn 10.952103548218563 14.192935795541771 7.158102226844857
Sn 17.664899242515247 16.30299166751076 12.307922175805883
Sn 11.304015308669156 10.917851941454717 7.899646573053745
Sn 18.507574874441115 13.391735889119186 11.596200798319451
Sn 16.02866102000798 8.539575124153652 9.692938850908833
Sn 18.18630895044794 14.5161114029788 14.732778078689593
Sn 12.964401766315406 8.664440309486544 9.4344368056526
Sn 14.526830916369338 6.028773123828867 10.552330157006475
Sn 8.33403375772766 15.465848735281472 6.221119742778504
Sn 14.533582624419795 16.541883018329532 11.859130484558927
Sn 17.808527772904664 10.03981966613142 11.912261044735871
Sn 14.164536815541817 10.839170504272282 11.120940513523657
Sn 16.481499608743707 7.343274482717194 12.612653038721485
Sn 12.676187478279623 13.994005994109656 11.552365327860096
Sn 8.855409973750257 12.385245547342905 6.11058149011538
Sn 9.818063357196431 15.354483182997289 10.638909642782863
Sn 15.616408628588454 13.702770696162439 12.87431889597138
Sn 10.36673805816315 12.283470456559797 10.450087699502072
Sn 15.538974550922703 16.28058802133876 14.762138783188325
Sn 17.3111208180585 11.56207359209278 14.522280432383981
Sn 7.660794901163841 13.867874956987306 8.614643349765007
Sn 14.82232423640152 9.594024776256349 13.74318849313309
Sn 8.239057410953803 10.7897472572113 8.768412079465419
Sn 11.418118948848353 6.389806325746874 10.870269374051702
Sn 15.793810679909956 13.73132041114544 16.81357381035778
Sn 9.895929795877361 12.851462169987505 13.667570899366812
Sn 13.099452027862151 12.446391498841622 15.132101812518727
Sn 13.005120676318038 15.331656883022204 16.337186571358547
Sn 10.989568442405815 15.740866010835719 13.607684679225683
Sn 8.128041355420768 17.019120559333086 12.72223181774511
Sn 11.1713390129049 9.501708602292299 11.871856561732406
Sn 15.17774732129855 10.68990103356537 16.667326604575784
Sn 7.040247330537444 14.284534519773352 11.646785520170795
Sn 13.569195969733714 6.494685196230791 13.436212069099179
Sn 7.705887688658676 11.301727479801395 11.819760924641198
Sn 8.790427054218384 8.098521046137973 10.829826530797712
Sn 11.968058113514564 8.94968781053876 14.711272521972623
Sn 10.181641035262734 6.793194263521389 13.622284292659716
Sn 10.601550540961316 13.319448819691535 16.96954978099355
Sn 13.271608507655754 13.056282004940911 18.40029219676124
Sn 8.453832734658747 15.208672906309028 15.249349279172193
Sn 9.243591009830205 10.788735056280775 15.688694108463583
Sn 5.712714312279139 15.51234441154776 13.999683232623157
Sn 6.844081603729601 12.67442553602073 14.609156104383919
Sn 7.888074745393206 8.821129661289758 13.607339534095974
Sn 11.957128789922928 10.414675805031965 17.363528919059974
