55
Energy = -194.80957367 eV
Sn 22.942500286009263 25.766857939326517 2.7446756253032896
Sn 24.250224188425825 22.76704613089261 26.852251029776724
Sn 23.412428364214353 25.84859006709265 -0.4930945355123832
Sn 25.091199788476096 23.87115289255146 1.46418307596141
Sn 22.91541266383119 0.33759763313287555 1.2499968819731668
Sn 2.1216332908334756 22.509877486553396 3.403132059896502
Sn 24.83473293199084 24.75893641465831 24.589811219319195
Sn 0.9763534574647141 21.933873391231636 27.448705850207098
Sn 25.830973743460426 25.53756310605659 4.09889480222516
Sn 25.633936513862405 27.161498058750162 1.4306725344430844
Sn 24.472414087118082 0.00362058243725124 4.153152462272632
Sn 26.64577404130915 25.000825793416983 27.185988013384357
Sn -1.3496296784003798 22.3453899983002 25.45096691016351
Sn 23.454384231956254 2.708337295454309 3.2169435213640463
Sn 25.204755819643434 27.639399347232047 25.741129601638217
Sn 0.21539191980737987 23.875193691530715 1.531212116011077
Sn 24.378401694076796 3.1036057127812158 0.21673457989439274
Sn 27.298664886601447 2.088875501625946 0.4276027661203535
Sn -1.0100446354606452 23.71146355212637 22.77296825195829
Sn 3.5903997704312793 22.477180744717508 26.148088122602935
Sn 26.5270510153195 0.638155791058812 21.8323539313742
Sn 4.144075595310065 23.82089458339424 1.7759106409300103
Sn 2.2754520405297427 25.408549919783948 4.01986579763082
Sn 0.07509118384964285 -0.7055248539005504 4.788038116865387
Sn -0.7634697957529984 26.58118636737864 23.733931918108382
Sn 1.949053402544836 24.908572859881087 27.43397491901785
Sn 0.5702803728046655 -1.2647974353463256 1.8129378090153432
Sn 25.945550946992228 3.5594565949696597 22.975001907936264
Sn 26.93150324377135 1.9731446867356266 3.431282385113922
Sn -0.208672082089766 -0.3223108478726397 27.026434605599793
Sn 25.444292382294346 4.885324807950172 2.831814501137067
Sn 26.362626444032074 3.9075150881698604 26.07633542302607
Sn 1.5039261561624013 23.89650802156939 24.547241275976184
Sn 3.567358292547179 27.054813066022824 1.2447127183739024
Sn -0.2099559500773161 1.6685099743393352 24.366594430683747
Sn 25.586825973537902 6.07999047324135 -2.310109181428203E-4
Sn 0.04942280521430085 4.806570775616205 1.180668297047078
Sn 1.436781128173347 0.19743099586080964 22.145986555562857
Sn 4.923838854497178 24.990922138293044 -0.8282771936536392
Sn 3.40406309596975 0.08835373602642071 4.950492663034837
Sn 5.2221873054535815 26.027745656866806 3.6569459188380455
Sn 1.979220083420756 -1.1716120659810338 25.073214378247464
Sn 0.37751111019560235 2.950028510696911 21.255733346242312
Sn 1.1709485164676217 2.391350258815007 5.425422187258493
Sn 1.990130540343505 1.652902566641155 2.4844260249391925
Sn -0.1734429434096383 4.908765012022778 4.365465929570401
Sn 1.3719975744955735 3.3263915880127746 26.619340847378623
Sn 2.612394715618182 2.7229052693603144 23.535233976293114
Sn 0.4488499405159341 4.879453026966053 23.726873767735405
Sn 2.4475502602278407 5.629849403472671 2.966568439423492
Sn 5.325922334852967 0.9662481104794698 2.6259327676136364
Sn 4.018093098740725 3.319661223200495 4.397743713846249
Sn 0.10271295728794802 6.3296850867999135 26.584007690642768
Sn 2.7751088539416933 5.8277465779859625 -0.14133330452589346
Sn 4.103113180565889 3.445622691620999 1.272234735632022
