5
Energy = -14.10783705 eV
Sn 12.084092954899585 12.960001202671393 11.671290595205724
Sn 11.078203602258164 10.35509400819454 12.254990363945403
Sn 13.103777433010817 11.23505089940959 14.00367846468611
Sn 14.131601859569258 13.848912740728098 13.425814071944517
Sn -0.2850272853630712 14.478066614396683 15.20925683444545
