55
Energy = -194.90094821 eV
Sn 6.600360092381502 9.026047371029302 14.027403146386614
Sn 15.103872517318598 12.66157360221202 10.212347943783533
Sn 12.044682097210003 8.052063110559594 15.926980564494711
Sn 9.11726426348405 9.848946204951194 8.243153974006965
Sn 14.93577721889423 13.467607711609139 13.554702207601347
Sn 12.096758592374263 13.712093239697978 5.908317588138868
Sn 9.44140044369076 10.043022302649199 12.580701775592752
Sn 6.973523686258183 9.63398059382078 10.731620249078738
Sn 12.511242712438813 13.612195421352622 9.048646745140967
Sn 12.694211591452909 10.59451529437231 17.644744398564114
Sn 9.200467341101929 9.39335389555092 15.661142623839961
Sn 12.560501479887796 14.95940582846957 12.371388476821748
Sn 9.525337162905835 14.987149418357449 8.171935850710602
Sn 7.5438639648412735 14.437157250266294 10.81924498454415
Sn 12.023017394465173 13.961318289430032 15.373473920279311
Sn 9.849022103125503 16.47235599170975 11.512917603022538
Sn 12.091416073627311 10.911100554937322 7.271854706717672
Sn 17.80685988126992 11.48276504451237 9.090317719807619
Sn 15.069546564256667 9.993599656390437 8.66458350370337
Sn 12.277961658516542 10.559481060201778 11.275800038283911
Sn 18.482862727228554 11.984597665899594 12.222043736655735
Sn 14.973243845658057 10.494826550245495 12.623215244751076
Sn 11.813803555191157 10.86184161562283 14.620259386822669
Sn 6.815657138598907 12.084178428843916 8.857148449465093
Sn 15.022988480318197 10.863645235141057 15.697929792920604
Sn 12.360050480252882 16.30751994600324 7.492412873536353
Sn 8.195391038709207 13.157584623497671 15.380154784331967
Sn 15.251941366756277 15.231914739901994 8.083021645839196
Sn 12.730092814782951 17.135320544136 10.288346358103867
Sn 10.13702482458455 12.152009664920778 17.436833008167422
Sn 15.389157114432189 16.40348800616541 11.66813040843597
Sn 11.194352966207665 17.097008368690933 14.496271557311541
Sn 12.589801662606988 13.945541915559492 18.47692850434079
Sn 9.36689467165017 7.508367910566842 10.529737241333462
Sn 17.390402922243823 9.166532134569787 11.205326940870512
Sn 17.594805596051003 12.515387889590498 15.304645322888787
Sn 9.03622110758609 6.882640526497891 13.76365681985191
Sn 17.704389950930253 9.587044439311269 14.253108175199955
Sn 14.923565271994171 14.496602185932014 16.51178285839356
Sn 9.269821608815386 12.465171511577868 6.462699296193831
Sn 17.53802355646888 14.428974823910492 10.089680575328202
Sn 8.33154359880395 15.896505772223144 14.085284570651568
Sn 9.756121074633525 12.371444155796938 9.743517804732521
Sn 6.649481240731364 6.851647331908812 11.844825457514657
Sn 9.849556650269589 15.547659545395865 17.02656076660298
Sn 9.809251986318733 13.30732610391457 12.760573306154205
Sn 6.887912846930366 11.996752275432081 12.762856189157205
Sn 12.70607209285208 16.803639014313358 17.245770449505862
Sn 14.478732765487228 7.708988168481392 11.256709721329036
Sn 12.130746702334259 8.405388663901023 9.177682698928722
Sn 14.30745798790023 16.83995986272074 14.588854395231921
Sn 14.87853082669027 7.952267963989755 14.452311373741894
Sn 11.830320364439123 7.8191116866901105 12.81099763132721
Sn 17.625493161970674 14.849675580594337 13.193481761888085
Sn 14.93478399752187 12.493288143424415 6.919547709423727
