52
Energy = -183.89688294 eV
Sn 18.55071853486172 15.04453708742979 12.52863201851614
Sn 14.35350191505157 6.515811245070232 15.714425364974757
Sn 16.649067958650782 14.74017290593817 15.039030714695956
Sn 15.170021007339265 9.310818521068018 14.834076533978944
Sn 14.388501407726057 12.307008664300932 15.66348459060891
Sn 16.77829540979793 12.277672406386776 13.016304311110025
Sn 13.92625380709284 7.085478659147138 12.698772890484403
Sn 11.598544774737345 6.598719184094038 17.139780710882278
Sn 13.279835129233765 9.31103763393687 17.382109980233125
Sn 11.502580063330061 12.026752969649234 17.050267358644184
Sn 16.40515143456102 17.346029842511815 13.334074828080377
Sn 15.518327187230575 9.69817840094821 11.454306956728907
Sn 12.663427865739967 14.848402287927742 15.045467493974051
Sn 14.176732609453897 8.049141378845277 9.065326732021749
Sn 17.228578337096156 13.507035870757212 10.208570242812772
Sn 15.096645163353049 14.740661670682398 12.211042399361217
Sn 16.83853511288562 16.620195050609034 10.44429686194885
Sn 12.04207063657792 8.895921880936688 14.549298781297109
Sn 11.805980178238322 5.3598200214081135 14.301577360162064
Sn 14.432239251611461 17.16347795711351 15.783805340011615
Sn 13.619715523957197 11.600119910898423 12.838475845133043
Sn 10.026507303818486 9.281351078725548 17.148041685386094
Sn 12.753751341163253 13.165911473723643 10.22641253822547
Sn 14.969168027104637 14.843364971865352 8.518276162849919
Sn 11.2921630044346 7.067775092508823 8.967618932157642
Sn 10.846343083688744 7.2407309940610585 11.98090275093937
Sn 13.067503350754865 17.155706451115456 12.921878624951335
Sn 12.189032949708702 9.789671989238094 10.621305456340966
Sn 9.220518235138668 7.198024015900028 14.799026501068518
Sn 14.872239294675243 11.473073385924758 8.85855040106759
Sn 13.67594114728381 12.829297070184573 6.349395043270395
Sn 10.739129899669585 11.723843453000233 14.129359823498284
Sn 9.686468714026555 13.190126205703672 9.841819997191983
Sn 12.774160526326208 9.84294215225431 7.08152594112678
Sn 11.389536659323706 14.48034872418152 7.496302490186758
Sn 8.507908534867067 12.597189351388465 16.488982812881886
Sn 10.955945803506165 14.699304320547357 12.477960171227949
Sn 12.602015818603016 16.281798317089216 9.836033431195553
Sn 9.529250482512463 15.241613639593522 15.471662854812642
Sn 9.126799550990047 9.735498829117732 12.466046818947246
Sn 10.019289052339056 9.738264382115053 8.534684779421177
Sn 11.372932490617716 17.757427948206836 15.5823334545297
Sn 12.593391337165592 10.888076435368895 4.348918930312825
Sn 10.163411130611653 18.181729804547896 12.65049279238438
Sn 7.779804444938889 10.911750290878167 10.085668412732444
Sn 7.676340955504577 9.89980959884704 15.040123242818245
Sn 10.308057062108736 11.601540094767099 6.043079740502226
Sn 8.611877976063491 13.757388199629043 7.047485371210503
Sn 8.077046704289533 12.806552094412918 13.352209397513745
Sn 9.471560594532084 16.27706196378751 10.117798205918607
Sn 7.944358136746414 15.91587217773528 12.858575254516944
Sn 8.292605382229663 17.96951450446165 15.053313097858286
