50
Energy = -176.39510071 eV
Sn 10.211732743365921 10.995243146666406 4.793134839687904
Sn 9.03841435287794 8.413043228102564 5.685866330187601
Sn 13.1387973121112 10.39255522383651 6.017890590518221
Sn 7.5614628756789015 12.138314846412863 5.928682667920456
Sn 7.582111262886238 5.751068249872342 6.2104861357293375
Sn 10.751480267620794 6.117652380543161 6.469663153682414
Sn 12.550163144355169 8.024055502600282 7.992488593510457
Sn 13.73297487780423 13.380436561358428 6.549978352033588
Sn 6.259570672230755 8.402037132475433 7.091226156104725
Sn 11.355025896685365 15.091372481459763 7.339401604229886
Sn 10.722515805210154 12.044214395266286 7.582644364469447
Sn 5.220882486668442 11.219145337162963 7.818464391751869
Sn 15.412851669956694 11.025764522127542 7.991245896105916
Sn 9.062332006686207 8.148761162170041 8.676695203192446
Sn 7.619525933762405 14.436022650766828 7.703325497846991
Sn 12.65564915272772 10.70976638297703 9.564484813059686
Sn 9.16962957526106 5.194661582846363 8.87950515016216
Sn 13.573093689681922 5.774320981056685 9.82624611222666
Sn 6.29265343174066 6.224347498893653 9.272769031914583
Sn 16.37531211919782 13.781100264994059 7.916188737501323
Sn 7.972436268661091 11.54445647045953 9.089496316546233
Sn 12.755920956617876 15.699208588025153 10.024799071049365
Sn 9.19099228758104 16.713471262607857 8.755772473183058
Sn 14.467183124882675 13.253187939748859 10.081813246600525
Sn 15.066984623151926 8.625739765715219 9.89350617054897
Sn 5.830297047940304 9.245674616676206 10.240621089985089
Sn 10.514683046144043 11.647329596171284 11.743812865215563
Sn 10.208611371555476 14.088003843140191 10.091897932685075
Sn 5.725679803381481 13.623371677317389 9.88840076835056
Sn 7.923537531667147 15.44751471403429 11.449954064025402
Sn 7.1606763670674995 12.043784218468643 12.119815676848306
Sn 11.541559640957562 7.885025210126687 10.947702728717315
Sn 8.551062404902993 9.16530962726351 11.60742845507922
Sn 10.824960546814456 16.20867580353559 12.379758132621342
Sn 12.264601786349736 13.871286335651517 13.681392625284529
Sn 15.839450314663074 9.459830895813969 12.762091764584381
Sn 13.959650825124427 7.107272141603389 12.58754062589207
Sn 11.07195963235139 4.690521701668583 11.185389628565792
Sn 9.35793553495884 6.3737179458623725 12.904030675730946
Sn 13.710097180631402 11.553174148295149 12.479153376515452
Sn 6.413435330262286 6.992072072750537 12.445575594753127
Sn 11.062331330443994 9.774377904234845 14.04004437170287
Sn 9.151119496267434 13.706065192417068 13.802375725156066
Sn 6.7694620513356 9.618514520377772 14.105352779113732
Sn 11.88415007219816 6.963217310282997 14.961279481244727
Sn 12.183896146731524 11.990326120242738 16.100631173670127
Sn 8.864223075478579 7.929097824677403 15.628829373942251
Sn 13.878775074474738 9.61141739231959 15.18462471873917
Sn 9.01952349530749 11.14220890612786 15.82638522856844
Sn 11.091892334724152 9.30553070193153 17.223404222380186
