54
Energy = -190.56053532 eV
Sn 8.039294791789597 11.161405706741483 14.60529516489194
Sn 10.031709617006474 7.402962319398874 9.70833756089888
Sn 8.938501182522073 12.644660976477539 17.31407752318535
Sn 8.917082442620753 9.085411183362496 12.367006176407545
Sn 11.551722062836303 8.102081229245918 14.06079385363213
Sn 12.496423513324087 6.1824886785040905 11.804989553645314
Sn 8.416346926138152 12.272057284330435 11.794268638590207
Sn 11.467509028221166 10.895257686503758 17.06949686271561
Sn 7.353984865432127 10.049598638558775 9.804369984192371
Sn 11.52683124841384 13.515973806469972 18.883397157537456
Sn 8.17904659708434 14.263061096106481 14.840400353129946
Sn 11.21505932273678 8.117737390407415 6.7977828950147545
Sn 14.554693328922095 7.104341177636516 13.923581377130303
Sn 14.04222195969189 9.137045050282566 16.22015261198209
Sn 10.972048304044684 11.39657813807351 13.853136876938942
Sn 6.916091798658431 13.454861217575584 9.39397111499346
Sn 8.245828337088785 8.523441056888132 7.323655936442885
Sn 13.97261455128939 11.340874664970848 18.75843337661527
Sn 10.481492364336335 10.59293331571935 8.196167686013435
Sn 8.543474857867722 16.33477498594445 9.106521103831248
Sn 11.322720662050266 13.975547592476177 15.629611682419775
Sn 14.411582032053376 14.098727368244365 19.930493653741035
Sn 7.73323804532382 11.575903165242778 7.080046898548876
Sn 11.908415998505422 9.313956040224225 11.193640043776151
Sn 7.513755398763864 15.480494655683248 11.917072445686374
Sn 13.1939654646594 6.972491665033474 8.864874958510686
Sn 11.215750090901466 12.35378467330494 10.665543796124174
Sn 15.50528079328184 7.212570738374843 10.955526843991546
Sn 10.600350756382047 15.279279893220037 11.373627258047641
Sn 13.984676322811016 10.371633435834015 13.395607562170966
Sn 9.802078797441647 13.638911331927542 8.155208718957706
Sn 9.931221730408522 16.74283266664946 13.952397530418336
Sn 13.979814443903514 12.429716531600581 15.704525581911948
Sn 14.348416025534188 9.798896317654627 9.422876882905982
Sn 9.171062305741012 18.344360831995893 11.494138638104669
Sn 16.746738596909122 9.181847181973534 12.973310101514985
Sn 13.594580265437065 15.44661382335131 17.377604812725675
Sn 13.437165237834098 11.70915254082384 7.210139247560615
Sn 16.784295462022577 10.847427778048171 15.672271252454363
Sn 13.513396164236463 14.807981406046771 13.201762882580232
Sn 14.678899657717926 12.530990405449826 11.160637590860786
Sn 16.201322894572595 13.47955212189097 17.520630459833722
Sn 11.490689807910227 16.918004458489946 8.968612514037664
Sn 12.768767638604844 17.283647390072083 15.141297030486848
Sn 13.098307022693257 14.227713048940217 8.913357486091863
Sn 17.130835019059166 10.720043816363159 10.275806970086546
Sn 12.220056722950142 17.969678579557524 11.672967382666556
Sn 16.51591432965887 13.114529135814928 13.68390268303537
Sn 15.91427349437663 15.675133905511638 15.164617441396304
Sn 16.331520738376387 10.663489217158997 7.228740352526567
Sn 16.008886100552903 13.481573036578483 8.211504411746624
Sn 15.161545208934172 15.77228875684813 10.666841298936475
Sn 14.944424376348987 17.745449747758446 13.038799892102796
Sn 17.56326548035471 13.82602158488766 10.90312539233079
