51
Energy = -180.62052193 eV
Sn 9.153876825817452 11.821862397806933 5.4249685965002055
Sn 12.1677574221035 11.835202770023987 5.23184911672645
Sn 10.309421612910224 7.582363373464743 5.4340456874968615
Sn 7.1232358084445115 14.044779148661426 6.157964037197969
Sn 15.917025090745573 12.520821277259396 8.591737273559012
Sn 13.058423603814973 8.981284795727305 6.043623538565218
Sn 10.388213812739597 14.655272317324208 6.009312059155069
Sn 12.404586524820617 4.04951453024976 8.3907212888708
Sn 7.8383950398215 9.158762669642154 6.217784313456932
Sn 13.49126546830087 14.111953418731224 7.026246399019427
Sn 7.333805101373409 10.529302561216147 9.322063258435909
Sn 10.481559928582035 9.945959407261242 7.612139661180931
Sn 9.845340124181917 5.32384111414063 7.321687215559387
Sn 8.525647064872173 16.28531104264208 7.8446886791000106
Sn 12.906387430014398 11.541907524600893 8.408177574497966
Sn 12.234087055132244 7.0632322332839745 8.325544423008102
Sn 6.802197554123335 14.289914684446774 9.339104387268002
Sn 6.701253829308111 7.489887548818884 8.605628906491718
Sn 14.679102301866546 14.417893486047364 10.637912829554976
Sn 9.477529807014523 13.061795062783176 8.593176199862294
Sn 4.565882536906329 9.18257199988925 9.967343509464493
Sn 9.592602319256843 7.482684526427658 9.810324856037592
Sn 5.297819137932786 12.125394431730312 7.717500573563626
Sn 10.691152557416572 4.552372127912374 10.744252714553552
Sn 11.440183663784833 15.479056106369379 8.936099398070406
Sn 15.183481959015706 9.550026173872153 8.52492636503131
Sn 10.52675141768819 7.46740114783768 12.770285169687208
Sn 5.0691569771035105 6.595076655422169 11.755298425204517
Sn 13.82098730091624 5.544961277999328 10.884556396545388
Sn 7.812694663163393 4.898450699901788 9.682742023744671
Sn 12.438159044614103 15.822929755179796 12.245495670587355
Sn 12.040337421619316 12.85393299824396 11.105355082154668
Sn 15.302584507384617 11.320084723435759 11.4795065217565
Sn 7.221541125257201 8.805786527491723 12.302889301587202
Sn 4.2328310929799695 9.442725671576058 13.069023318646968
Sn 7.800950181832921 5.795268382835562 13.106591753872957
Sn 9.498560608185073 14.938137322971322 11.445528745359068
Sn 9.909231260442645 10.497557249564489 11.04385276188994
Sn 5.173339342220695 12.16082044295871 10.916882075396899
Sn 12.798971167787714 9.058287994012437 10.711720573075471
Sn 15.677476690751053 8.03181773102225 11.224889850948015
Sn 14.267908125374529 13.632437120508637 13.694026775765483
Sn 12.198888730561116 4.816425704130222 13.33303046074925
Sn 5.5926034758493754 7.271932285130614 14.790493658219859
Sn 11.103493679046538 13.56108582131996 13.922793907906348
Sn 12.90228673870313 10.837833463363427 13.424690853523392
Sn 6.558258296066398 10.379213762017155 14.894535303777273
Sn 8.528748270840696 7.977117756225248 15.331200939410628
Sn 7.884920330200678 12.522632076353572 12.459363063806983
Sn 9.835637505089304 10.533944500155384 14.124280856696437
Sn 13.568536372518532 7.526260106507848 13.41723155395846
