54
Energy = -191.9222914 eV
Sn 8.205098433745208 10.58011926731748 13.533677233015181
Sn 9.281150301268458 7.840238074791004 12.71714835353634
Sn 5.322360094814988 11.428016218880035 13.595393800476199
Sn 11.681874639758888 7.347689183670776 10.52163058929995
Sn 12.912710186076852 6.23434851846767 13.035845772404656
Sn 6.778395055439459 11.798262890102672 16.3098894347502
Sn 8.400890929872956 8.988981948262982 16.194119895370612
Sn 9.44101463174898 10.270796455130057 10.508771704584506
Sn 7.570509421341143 12.130011136714707 7.903224890593845
Sn 9.065265001489479 11.294399049472393 18.275733374885952
Sn 10.831719604003474 7.138545496125641 15.263620750765405
Sn 6.535429852047925 11.375298941619493 10.6134168215417
Sn 5.45951080646471 14.006396854623693 11.911090919806195
Sn 10.230360382904868 12.652975149297191 12.229746289078408
Sn 11.871935794633664 9.330258489756208 13.018758336670665
Sn 15.028138631981413 6.9275622261369465 10.423681662948344
Sn 8.25861221085539 15.143168085921959 7.571504159267366
Sn 7.681741883312732 13.66514411221922 13.919211250919913
Sn 11.395516916222 9.438300317397127 17.3043668052472
Sn 10.108241189702113 10.504354988045295 7.267955729874076
Sn 9.053245707791817 13.94736648024165 16.690928026966755
Sn 15.936426466081393 6.790199329015854 13.416027713009985
Sn 13.347045052758856 9.682644891705328 9.84762755015015
Sn 10.577203926528163 11.614601359014626 15.427034921548627
Sn 8.189447435395058 14.124172366415364 10.5126713816759
Sn 9.262309474673886 12.98569671166399 5.508318201439723
Sn 13.836728233821361 8.445410845960575 15.17412849420373
Sn 10.289675242863687 17.52174678191317 12.660214500385123
Sn 13.274247914892271 12.554199115270736 16.813727899663846
Sn 10.914060835909135 14.88749942320168 14.231226427464449
Sn 15.804666139394866 10.677838039236205 16.445368214321544
Sn 10.756677312781129 13.162829285544444 8.634470383536167
Sn 17.876733271200443 9.153651352686072 14.078366535106545
Sn 12.221469335878142 12.3974357570797 5.889710086824865
Sn 18.11302610433319 7.648912979748426 11.216040397746685
Sn 14.28364275711154 11.812978858508282 13.998729998454516
Sn 15.492126198478822 9.60969905369531 12.097639669557166
Sn 16.75297905548803 9.244196892553294 9.049838433957344
Sn 13.399039429067045 12.645156402166851 10.615469061442601
Sn 14.629762360557379 10.990940896452015 7.487236891967197
Sn 12.45288285678088 15.660422324076023 11.268303658593517
Sn 12.405695441314583 19.043088691231898 10.89516467763403
Sn 10.336330377747357 17.10473018387652 9.567322720266253
Sn 13.269234645652542 17.708679384310862 13.585140023196296
Sn 16.05179241153831 13.813366173741333 16.38517723397279
Sn 17.48911203606979 12.332309677183135 14.16927902218366
Sn 18.257563483951767 10.759452337108481 11.332596604765975
Sn 11.168491400772062 15.393122694050923 6.516015118342876
Sn 13.305111150660789 17.131620872284813 8.613405527101682
Sn 16.34566725232971 12.586269395988667 9.551969076660582
Sn 13.888823363236472 14.861841144616347 14.65774577919338
Sn 13.97599780134203 14.051988372388067 7.904379266210264
Sn 15.733738403702473 14.065605268323361 12.276856855430076
Sn 15.043232440587254 17.307212841998123 11.163618321477164
