53
Energy = -187.99877132 eV
Sn 18.065530010791925 12.158878617168774 8.770241966154426
Sn 18.222866711852294 14.642344489605858 10.615209111277217
Sn 18.23661266574718 11.817199889959124 12.03232901096319
Sn 16.83220546361871 9.568547203649164 10.04235445068274
Sn 16.752674438824073 11.6549227146621 14.979299202430223
Sn 16.831047914331783 14.364778307928477 13.40832299488211
Sn 16.159107345988026 14.457877201682155 8.153188177554323
Sn 16.749719181244533 9.042319801064574 13.131261623385665
Sn 15.487940062410898 12.711335049559855 10.743231373397762
Sn 15.130485579842617 11.061401918727736 7.878228791080095
Sn 15.829604112155966 16.631324727743355 10.589129814678282
Sn 14.594756852878664 6.859914793370587 13.58631779698496
Sn 11.774904216500847 6.4924373492313645 9.83204300617869
Sn 14.666177564534284 9.322639175384015 15.464043873678655
Sn 14.519526526535449 7.689859247104387 10.681649491977904
Sn 14.06690701729188 12.948415708209454 13.711972514187849
Sn 14.848066365685812 15.578513594367196 15.688266564759621
Sn 14.13151240630482 12.7605110447083 16.64040375825124
Sn 12.675131611240088 8.925772750536634 8.110268747430505
Sn 10.04437605367514 6.193042357305834 12.25152420456263
Sn 13.94472548193113 16.0833465237375 12.891656963971005
Sn 13.348930553944571 15.19521069429275 9.560056401580852
Sn 11.687447419519335 7.791061499338151 14.24509392289693
Sn 13.449287782154357 13.476769421242858 6.95204279897256
Sn 13.579733620247566 9.834127602614815 12.590072309505647
Sn 12.51132429329109 11.792561793430291 9.518266403561052
Sn 12.090428479836113 15.68517557642393 17.21273583360242
Sn 11.894023636980656 10.453729269563787 16.24925124406075
Sn 7.901234297792559 7.304676575586471 10.302660809886476
Sn 9.951827322265691 7.5855541113199605 7.569695493999477
Sn 10.642686458809663 14.246557304542595 14.9122616798191
Sn 10.399562653382704 9.24838959765547 10.488064859138518
Sn 11.58070327321429 17.529362410461363 14.854227436100565
Sn 11.135770301383797 12.935578008740496 17.91480104121208
Sn 10.45333588475952 10.784000241371416 13.482781996623167
Sn 8.272329899134933 8.522736468639165 13.231753204703276
Sn 10.56279975448774 13.950673268825792 8.028849302281735
Sn 11.735595128418957 13.9420812057343 11.958754293994122
Sn 11.419889188873507 17.492104713082004 11.771031325200655
Sn 9.334241822794562 8.873035586334725 16.01175137923286
Sn 10.426526364644024 10.748893716754129 6.986194938700699
Sn 5.94364763355893 9.539218120985906 11.46017140522032
Sn 7.734600002052275 9.668980159078947 8.434327074354707
Sn 8.803328255584285 11.94459788912973 16.236476759656483
Sn 9.208972376404873 12.39619647778733 10.43835082037262
Sn 9.081465503806365 16.678365486109808 16.408576108340675
Sn 7.550782997473644 14.469341839128727 14.873409844519578
Sn 8.821458977077056 17.123152148041807 13.380515218642238
Sn 7.518221153874171 11.736873284804979 12.96634347726085
Sn 9.526027656014762 15.563151324125444 10.392895066779873
Sn 7.8512439091188515 12.586412114847363 7.564842592562026
Sn 6.077550615068792 12.310896495259284 10.026625467671545
Sn 7.0122664225266815 14.691293761105328 11.831901145252633
