52
Energy = -184.28952549 eV
Sn 6.339075115465789 12.405678234050956 6.251269181889664
Sn 11.134832418330221 11.129303608608831 5.877314482738555
Sn 8.341711351600074 7.210576122950342 6.507807766945131
Sn 14.63041354864167 10.033848301927252 6.23421884941819
Sn 10.224672594801655 14.20597480464262 6.137243353707854
Sn 10.89430261075955 5.678148434542459 7.242998261660291
Sn 13.463149426164188 13.1020512569465 6.275153756711645
Sn 8.287271814958357 10.212979744172006 6.646608885836919
Sn 8.60474448917867 12.926034773573816 8.37343537983882
Sn 10.531902835541 10.451445984135905 8.937136870512205
Sn 9.323777186668698 16.306701806798486 8.358655155957651
Sn 8.187931251255236 4.635530290491213 8.590587659158933
Sn 13.664471626680447 9.575403622290102 9.315907145327708
Sn 16.787200154586486 9.20658626300739 8.350510012394828
Sn 11.977325456313222 8.466133124927138 6.864035222670985
Sn 7.433582298907308 15.211137310469823 6.216879875324465
Sn 15.54619309559371 12.069094426386798 8.594470319146039
Sn 14.696566088143205 7.085772472537178 7.46408763238255
Sn 12.447977739019821 12.797324284435255 9.23965881778292
Sn 5.708925709624376 6.6354477799622344 8.003852642070804
Sn 5.294872383270452 9.849007450784171 8.06633440687782
Sn 12.419378074208808 6.220351872874197 9.809908791079028
Sn 8.263146017606925 7.754032566273643 9.633141767711082
Sn 12.28614017186184 15.529800025221835 8.016703238396099
Sn 5.661193170414141 13.164445273249974 9.160546793418945
Sn 7.86997835141289 14.91575395344122 10.857613802642433
Sn 7.299934635247393 10.620639663574506 10.405857270314307
Sn 15.485877420214154 7.3028361696723865 10.53693381550282
Sn 5.0511038512519715 7.9906933300757474 10.957506879185624
Sn 6.0531327518547915 5.124835872459459 10.732393824630233
Sn 4.178349365293133 10.91468575380796 10.730774940617156
Sn 10.933722982705302 15.586020522889715 11.050455048030543
Sn 11.176682437654902 8.369695666740327 11.535309282862194
Sn 15.907140474929907 10.196995441969007 11.479277901672674
Sn 9.793425095120343 12.638470804548152 11.947444947895379
Sn 14.470505320163918 12.950260823621868 11.463115289595239
Sn 9.05905877044895 5.404145491451548 11.426536594973431
Sn 12.764214108456253 10.740905004451916 12.592963147465431
Sn 6.99551628521685 13.280243078539053 13.218225666036677
Sn 9.127823867076069 9.701873072767958 13.211281849536778
Sn 9.155341075713435 15.765510574208161 13.66966868038481
Sn 11.84552891024737 5.145388440136184 12.583352039917528
Sn 7.176672252493171 7.107644263705501 13.169925430082213
Sn 5.986335659580437 10.159269598215635 13.170289812498023
Sn 13.662757170763312 7.713906847762359 13.464469393545217
Sn 11.900770564215115 14.131543454915652 13.651715550724411
Sn 14.997550269372054 10.109267157718143 14.690970143056942
Sn 10.692654136602691 7.246748605185418 14.550097060316574
Sn 9.397147916959296 13.061734291468161 15.066657209792417
Sn 12.467356891217113 11.621929891013352 15.460858826102717
Sn 9.903891918723234 9.986749682741799 16.085437447539928
Sn 12.719957007204878 8.572628827392558 16.345587995854444
