50
Energy = -177.32736051 eV
Sn 14.050006006718055 12.022301040735426 5.664572688694543
Sn 15.869484588829293 14.548129561160062 5.771552298700782
Sn 12.768592788372873 14.803787627503466 6.673641850423811
Sn 14.124204984527164 10.071397039986282 8.168821446004149
Sn 11.694883236505303 11.892543881747278 7.686992470644093
Sn 16.738600600984512 11.809555523541663 7.274453639803472
Sn 9.285818043820171 10.069642360656614 7.746375616329454
Sn 17.638256881825438 14.66765861479512 8.328763628881577
Sn 8.961810454040426 14.984318159656253 9.213340830515007
Sn 14.719972066803091 13.620307265395487 8.882084092194555
Sn 15.010486138999426 16.581364233505283 7.971031659000593
Sn 7.520252338631267 12.264364306259841 9.178929147414618
Sn 11.590136507678316 16.697952833253503 8.975928208340317
Sn 16.469884095293587 9.246366783888135 10.089756744167232
Sn 10.877121061736077 10.179422030941138 10.508993909800694
Sn 17.44250000219727 12.097873878125677 10.474013229106175
Sn 11.713700937826738 8.23390750931117 8.18971185700736
Sn 7.749224900556682 9.231132766146716 10.368546194460949
Sn 9.879539974220462 16.38214390810221 11.818083115919228
Sn 11.699617515065944 13.735048155803815 10.035522548824838
Sn 7.0963609940304195 15.037444977500911 11.779345391485402
Sn 16.086005610862276 15.925592276001195 10.776136085755082
Sn 12.28360572021472 7.328791304598771 10.93532986527023
Sn 6.425561121307846 11.62699243331516 11.99580900454061
Sn 14.13990043947904 11.239520064624529 11.027779163205864
Sn 9.334756084108426 12.85288456261667 11.865244666041404
Sn 13.1084197296622 15.916917371133664 11.565973838378309
Sn 15.614480653452066 13.514699465346368 12.543135329567875
Sn 12.318986075536387 12.886168697400379 13.195810663181035
Sn 16.852047480004092 10.71644530167635 13.246647208060896
Sn 7.350452988129793 9.201725888267866 13.722588375882058
Sn 14.640695048512915 8.574133615833555 12.492667209003283
Sn 9.664215829029677 7.915160486187359 12.24584780599118
Sn 13.9130691599714 10.575507502880285 14.651992901740789
Sn 10.496917058043257 10.31749450053689 13.923556047462105
Sn 11.978177337108708 15.550626864132704 14.529615635225294
Sn 8.889774491404141 14.86672572709888 14.334059814979682
Sn 8.122760802415806 11.940692210852422 14.940405164276811
Sn 14.724000969258288 13.73440313853646 15.549704855822576
Sn 16.42380082065512 11.31402095140878 16.321067228732602
Sn 14.442795548517354 9.284492465244858 17.46300203969889
Sn 11.901860633261608 8.398668801759246 15.895694342819436
Sn 9.153890887375988 9.470957792435119 16.653575249493088
Sn 11.577670851036435 12.473735589965763 16.473606723259017
Sn 14.157886741099206 12.236229820592458 18.533938327470434
Sn 10.075842753689605 14.95323635556746 17.457255338907398
Sn 8.961284849717005 12.1376325345909 18.249738203933497
Sn 11.605725644067354 10.217368228948216 18.7299732157147
Sn 13.06154178640711 15.094250732041646 17.784584778748865
Sn 11.480606174767535 13.245450266147742 19.781987756875022
