51
Energy = -180.44961434 eV
Sn 8.91903650268947 9.598262377642662 15.998079678384483
Sn 8.1286705269173 13.163297452816726 14.413886086717655
Sn 11.445453119775479 10.531388625930795 17.4556451523378
Sn 8.07852338207488 15.945580888631271 12.782667712313946
Sn 7.290965621243797 9.923862079040738 13.285484460685794
Sn 10.773479337231992 13.381351847492976 16.601410188784836
Sn 6.341790712695766 15.09179975796392 10.274347201209212
Sn 14.644432853823142 10.0608758267247 16.684364828359353
Sn 6.271705749663691 12.631767851186762 12.038004172054638
Sn 12.689487520551907 15.883788928001952 17.14062036191665
Sn 10.532497571689339 15.99676932755499 14.735735454940885
Sn 9.89163927154446 7.86555958955304 13.655585775934457
Sn 12.455654647555468 8.220949327044313 15.629714627591143
Sn 10.667448546645572 11.209790574163751 14.146919566863488
Sn 13.867415009069306 13.028762338451145 17.218696076702027
Sn 10.780481648941347 17.650669270610233 12.086823268194214
Sn 9.52871993623228 13.348470700937234 11.69288259905554
Sn 15.657175421653285 7.83232481965711 14.558970621217444
Sn 5.983244575411859 10.032109198135881 10.338636731184973
Sn 13.655402281723504 10.145816880886285 13.506391599721217
Sn 9.202354772489514 16.20619978523397 9.851655262108526
Sn 13.448140131496173 16.997508062365963 14.178629533103642
Sn 12.803965561626653 13.878167280491384 14.223239049373069
Sn 7.642092236438021 14.778363746307905 7.605334211877324
Sn 7.471145454378757 7.4536955674993886 11.545351424541467
Sn 15.568163608365692 15.455296828506327 15.96178249276911
Sn 9.832396320026108 9.969906436979253 11.32458949007206
Sn 12.610640261732058 12.8948735366197 11.262476939132709
Sn 13.022090376970606 15.88584914050397 11.048247421895088
Sn 16.728361941454146 10.247261948438195 13.039391904214286
Sn 15.63365842461943 12.599455919801633 14.753808268810229
Sn 7.943112155100856 12.221629570905353 9.372430887652083
Sn 13.564097779313563 9.258204032633332 10.461368473012213
Sn 11.286976023224474 14.329612979908992 8.827256610736631
Sn 13.216147922466037 6.979399656529277 12.605984838007192
Sn 8.476955369406525 8.853066837105782 8.887209607873412
Sn 10.526881442462157 6.960758587775107 10.796757325878096
Sn 15.488944785374239 14.982660191340367 12.693724098632966
Sn 11.97414577325255 11.18892683317605 8.466648120096522
Sn 9.75358086733461 12.678292052486098 6.615650270362615
Sn 16.45719876722884 10.2757950650762 9.926344312938005
Sn 15.492848262054112 13.138255947855692 10.18889785655434
Sn 12.16795541801568 7.731506903056625 8.079615894537234
Sn 14.259903673479494 15.238640463144757 8.223589189416852
Sn 16.23435271115615 7.567130377803708 11.439148778614213
Sn 10.296383518797503 9.620018715121232 6.437099923349776
Sn 12.612496013353153 13.765178853920192 6.106908424727022
Sn 13.348885960130087 9.674144213210363 5.846628342845067
Sn 14.239072008956516 6.132016324251318 9.718012168008498
Sn 14.684991854077412 12.01225102830589 7.348848915453762
Sn 15.2927257296519 8.370144301218232 7.794690298993825
