50
Energy = -176.63065811 eV
Sn 16.165514165377342 15.411859786556775 9.812611964644164
Sn 11.349912499047045 17.080323886665717 9.198984045418415
Sn 13.629961743425609 16.4668212659327 11.020396768956765
Sn 11.554567700688013 17.438068446361097 13.287483470601149
Sn 11.227113445564543 14.696911150234628 7.120132219713436
Sn 14.631158873474812 16.146843005692713 13.822570196886563
Sn 14.105309260429603 14.040028885051328 7.944791416948704
Sn 9.162450552125911 17.325717523462696 11.351359884481202
Sn 17.455020314273497 14.656731079252676 12.551846201036474
Sn 9.012859434701872 14.848703044473075 9.413096873301344
Sn 17.132010018957455 12.52945101161167 9.280038461691635
Sn 11.861909296082107 13.978847827338893 10.302118354838573
Sn 12.332289684115613 11.788003711392067 5.7648030269028245
Sn 15.29624665794263 11.520504442018407 6.920513639793917
Sn 16.078160869524638 13.10878961596107 14.744273090495192
Sn 10.103590018895163 14.730751372718 12.945225021902504
Sn 9.65750548734494 16.656993758322955 15.583799184907905
Sn 12.82002032978869 13.634502250354876 14.282762139643172
Sn 17.8059635074067 11.617031506423919 12.469093605698435
Sn 14.801426126554711 13.106641491143577 11.619025232136185
Sn 9.948213081995624 11.983186421010576 7.893117444363699
Sn 15.851815947290294 10.163890351017317 10.466175768297319
Sn 12.724409408521023 16.268289325717078 16.18365403046221
Sn 13.934888272188449 9.079955948602272 5.891566716693985
Sn 12.728017720143432 11.20966492797148 8.924095674762233
Sn 13.464045217063806 13.422148630994126 17.40647155318536
Sn 10.919517328394667 9.098377382457233 6.87838766395758
Sn 13.41177247972532 9.937265154343184 12.549938984088831
Sn 7.17817800451156 15.058689326998046 11.895882062557165
Sn 13.93572198285758 8.399547855767397 8.82305232315
Sn 10.545465314957385 11.00682173066286 11.418772480527045
Sn 10.417333344241046 14.08000963296179 16.91592710897204
Sn 16.91249062983387 10.124475836894298 15.107596271141057
Sn 7.700373518681783 14.424944959134178 14.839106594270504
Sn 7.7768470495618205 12.098996726660156 10.745796816183978
Sn 16.27438053725945 8.25087788095603 12.71417923404923
Sn 13.414368676754549 7.022315677835864 11.626765956925913
Sn 13.913277760776621 10.90126671261864 15.480680650631877
Sn 10.625016350562207 10.920247620297886 14.584666268385316
Sn 8.304688274524857 9.630179146984986 8.918315109591482
Sn 7.499192442323021 11.035826326169813 13.712947490610238
Sn 11.28248592419626 11.271020378321413 17.739605701768188
Sn 10.949973911311531 8.238786202642448 9.92329659430485
Sn 14.34884118678345 7.859949672371749 14.991348699775429
Sn 8.18796825022733 11.851438395705692 16.634372534724218
Sn 8.47107215296235 8.58341561942634 11.962226420331692
Sn 11.48992223511769 8.391049216684694 16.381951156528466
Sn 11.063784610896777 7.849479031681715 13.403234044839195
Sn 8.451063661574445 8.607536982508515 15.302001819802378
Sn 9.017312630712716 9.365210643029016 18.196728683659067
