51
Energy = -180.68471313 eV
Sn 8.301678119494037 12.284824844558281 14.082797546269408
Sn 6.824548411328109 8.515236052940132 9.05547728812091
Sn 12.315238372466675 15.512099034523471 13.457064046558035
Sn 13.227704421121473 8.503210342124994 15.823465156233814
Sn 11.997009201433258 10.55712528594946 17.818106015519987
Sn 12.08258610710841 5.34303663863307 7.493688658865392
Sn 14.584536841670575 16.334306832178676 8.31719417643109
Sn 9.708879467575208 13.958448268595776 6.906905834317826
Sn 7.885389301375566 9.748729673080277 16.009345137812694
Sn 11.609106355450617 8.379261144107899 8.882025589134049
Sn 12.564541730341979 14.162216949558738 9.961369025269823
Sn 12.979405511662323 13.89119269844614 6.856581330622061
Sn 14.734191396734303 9.654225588509938 9.114525681032935
Sn 9.277548784054808 13.723572955328345 10.692911786169715
Sn 12.733088886207842 10.65156658998326 6.510699512917224
Sn 14.21976957640685 6.472527358575175 9.453385211775245
Sn 7.893802782096058 8.627497220133089 6.042497207294105
Sn 9.07091062384774 6.466219677607629 8.036388270484995
Sn 9.372335446220397 12.183255803150107 17.098001010530684
Sn 11.529660059591965 16.473021152437923 7.782644166528422
Sn 9.763838597697179 14.770435686092268 15.165850730186623
Sn 7.862113636542948 11.11720223724114 7.844781620992571
Sn 13.59087195423009 6.5586856292767575 12.757203095290746
Sn 12.533411360640653 17.16924089938365 10.680775855614073
Sn 10.813376251688695 10.162678786301225 14.869794738786537
Sn 10.911091876954053 7.799410402488449 5.767214267035576
Sn 15.857058122995467 12.159494629735102 11.704923983914476
Sn 10.332745190537116 7.908215837679429 17.121182851417853
Sn 8.745893836933032 16.265292019977483 9.075601058967216
Sn 10.83196306676208 11.709954180983758 8.554902794572937
Sn 12.541881155399738 12.846213793870982 15.85673968086603
Sn 14.14806747037577 10.876264797831498 13.93961782334328
Sn 8.53713861041931 7.174274740094265 11.214755224969522
Sn 15.198256690178026 15.437836007413134 11.181548465081704
Sn 8.783855427781951 7.364463527391096 14.338282997712254
Sn 6.802370324637795 13.917814683179074 8.495097584201211
Sn 9.892369753017118 10.88476226254078 5.394330655814011
Sn 11.189731470977886 12.70654971619932 13.048960037451208
Sn 6.5942470888752975 12.441749836847674 11.188853429993499
Sn 8.96064530465087 10.228255926387693 10.713910641230441
Sn 11.503588207879273 6.068380827109086 14.908924445202413
Sn 7.231857880294312 14.917714493917767 13.054645748961047
Sn 11.34633871999231 5.668476449377124 10.568929776143392
Sn 15.339387961833568 13.320107298692042 8.865435695798302
Sn 13.927712895115956 7.717113403923038 6.6678854533851855
Sn 6.796238594960052 9.769251834887518 13.026948122721326
Sn 12.86472829708196 10.853954245967657 11.16887955658607
Sn 14.999632050472622 13.976262807711366 13.990793164303856
Sn 11.208071685993737 8.39125916727752 12.3886029464782
Sn 9.579982987665707 16.499873673742407 12.039539076092627
Sn 15.406264859274696 8.883898814104445 12.016678553046036
