53
Energy = -187.46960069 eV
Sn 10.44257192854278 8.438628139927557 4.737388988581526
Sn 8.801869412840071 11.172423100267755 4.821564803498507
Sn 10.777363608612625 13.170682457485652 6.213338898959816
Sn 7.314518149213033 8.87225662949279 6.263887187360593
Sn 13.378678069568647 9.550411421190445 4.69625212584382
Sn 12.83946143219908 6.829989117347537 6.137295836928105
Sn 7.667206179476816 14.217567477708652 6.426425437476145
Sn 10.24617357119276 15.746849400669308 7.696006001807091
Sn 5.935287771179096 11.730123370032066 5.66475635003538
Sn 13.547304845462973 11.6884459509472 6.962533458088353
Sn 11.522667030514523 9.525010431130463 7.256084707433425
Sn 5.293079787493467 9.971859113853533 8.266616868794957
Sn 16.174607417882683 12.374417721717213 10.707318020605522
Sn 6.80922075860915 5.2428485242396405 8.33331531762045
Sn 14.709234208823258 8.752769312996625 7.486464776303195
Sn 8.688249853648642 6.056439091793746 5.992295479790709
Sn 10.56600310907756 5.1250097781435935 8.208972084865273
Sn 8.380731055765121 11.409859738605219 7.949101243485444
Sn 11.26684336277619 12.977625909605973 9.195542949764803
Sn 13.648847021147777 10.607459993322797 10.210376991943273
Sn 8.827224828287203 7.560046291944378 8.80314733278467
Sn 12.44409418044575 7.320359320774694 9.300737874786483
Sn 7.7258818795299256 15.4030125469144 9.39548618866259
Sn 13.723289966027952 14.2518964913833 10.49352159179714
Sn 5.655031835546877 13.10085782532899 8.574670674751038
Sn 10.456172666690575 9.782054205520781 10.28480963260236
Sn 7.102038806980882 10.721641769571457 10.899217743582431
Sn 6.0941380317681935 7.561732840534118 10.02043392689127
Sn 10.417726037963641 6.9331310379601065 11.877985538902445
Sn 10.858377244297927 15.971922098630701 10.729814863417266
Sn 15.180719156448854 7.762585620690057 10.81855819674628
Sn 8.721159401535907 4.7659100630979765 10.601841538879889
Sn 6.0988575356685875 13.69565062010131 11.582669783043405
Sn 9.184454090695496 13.051532577585318 11.404115888358648
Sn 12.992760946319146 15.592170802851896 13.07366690303908
Sn 12.974266432170143 9.014754699233002 12.991499993045766
Sn 15.935094445029497 10.173507095148747 12.721187982921412
Sn 12.37015617259597 12.418285719209786 12.635292432760771
Sn 8.237776480304786 15.822521595205966 12.450794990618876
Sn 15.330178626988284 13.456775919272637 13.444920118035592
Sn 13.392458431159666 6.061064124911522 12.64516024454579
Sn 9.75970140537806 10.302747766207728 13.548293595276578
Sn 6.7712797566409835 9.306062491603114 13.716136445164466
Sn 7.018671624428604 6.3927000684317505 12.656782853993352
Sn 10.340822611384116 14.263450082697974 14.07722472731368
Sn 7.516309249324714 12.26518235650417 14.409356872812134
Sn 15.602169578520604 7.500553074159334 14.190072918985697
Sn 14.46139676781392 9.972354321700974 15.474768923158942
Sn 9.199876345667969 7.4094189555685315 14.70003529671255
Sn 13.24279508311906 12.793966248872323 15.477037852035401
Sn 9.967324191199852 11.984718941270815 16.341166772074207
Sn 8.003172215118324 9.619134026343962 16.432077805916194
Sn 11.386013041264736 9.308929360632705 16.003282607539422
