5
Energy = -14.18711958 eV
Sn 10.83543607697806 14.975096619910348 11.391706258490947
Sn 10.638723055990358 12.216259198682158 11.269674351197613
Sn 9.910341490513375 10.002897833601633 9.613932818862313
Sn 11.87356396547108 9.749731095621751 12.016958887860106
Sn 11.287263543985246 7.601343385122104 10.253055816527283
