52
Energy = -184.04208298 eV
Sn 9.84970686263505 17.697829324585147 10.953264994199102
Sn 8.273590595013049 15.091723752325795 10.180218370643724
Sn 12.133444124912462 16.368335544766325 9.10597379315187
Sn 9.716482548136778 14.87340024300739 7.650685538503203
Sn 5.351727096726008 14.408891228499947 11.00823584632574
Sn 5.60754138139557 14.362155549753593 14.076300563024093
Sn 7.126777430005367 16.679227989103367 12.544898526722804
Sn 10.147143045023146 17.325223063175585 14.007097993050293
Sn 8.818320255886647 11.940668854771102 7.270684209911908
Sn 13.497006468001885 17.318924918924075 11.763177477922099
Sn 14.571651884510716 14.379274302255133 8.514048572579568
Sn 11.091677031238845 15.110409147156822 11.988000860605434
Sn 5.846726592049352 11.648572012491622 12.58038339325918
Sn 13.094531614935054 11.73972919360029 7.292947244232939
Sn 11.501658485046816 13.261858435839587 9.494374012340709
Sn 8.681644044745985 12.684537658183528 11.843301132019473
Sn 16.006147315094903 15.906662432497175 10.851929024850959
Sn 6.634061302155818 11.82175319227095 9.46353934692347
Sn 10.701872625075271 9.578765405066525 7.07988987840066
Sn 13.15878974723327 16.566363157709425 14.645993309691194
Sn 8.019982459652287 15.587013591100535 15.442938186685543
Sn 10.806388543894034 14.37508918737296 15.097061485279283
Sn 7.6286344025664405 8.960407192319867 7.94688237118128
Sn 14.051926888283697 14.208937788960847 12.647386034622706
Sn 9.744322077629404 10.489433992310765 9.886586567514778
Sn 17.31394719409569 13.139038163022324 10.101245606477175
Sn 14.322570374632962 11.751882846030584 10.314466050386015
Sn 7.162218065653453 9.098870448541824 10.994630661217204
Sn 11.26578650878922 11.89523506363596 13.29763351826547
Sn 7.951588649295244 12.408988827450992 14.843632332109859
Sn 16.1760660115942 11.855070568587587 7.504592849814464
Sn 9.935255842554456 7.319023146152558 9.110913457430648
Sn 15.148974740158057 14.394672902933303 15.534686104609152
Sn 12.14191470433469 9.479749377540124 11.3924859565357
Sn 9.37273628778042 9.200417332145847 13.229023897303223
Sn 14.505164847438126 9.300841963951468 8.454207270842556
Sn 13.136457864707207 12.14007207746244 15.99856959315698
Sn 17.177242581741883 14.296631081319072 13.178858757119695
Sn 16.711697926009894 11.344803048355532 12.861246888862697
Sn 10.280023298316724 10.515003621284535 15.859751438687969
Sn 14.080355734592377 10.339988222505621 13.730667256674435
Sn 10.667391782455214 6.7143809074017 12.103117529677027
Sn 17.047411551217525 9.931832752957561 10.000034792625474
Sn 12.993401616575701 6.949651229312003 9.988945806982994
Sn 16.330338428253075 11.220466972617789 16.091369388272078
Sn 12.326055976606638 7.991533298000364 14.642582216927124
Sn 15.488835642698916 8.045089088968362 12.162615895835813
Sn 13.956466576807822 9.314174487722813 17.048099685019398
Sn 17.765785830503752 8.813918999991554 14.187644969207184
Sn 13.498737698428371 5.6462312955245055 12.85424551540663
Sn 15.239057018994233 7.05171090213916 15.120934707721956
Sn 17.0073023883562 8.51617649660168 17.12692951273675
