6
Energy = -18.33727924 eV
Sn 9.869803858600847 12.253998198982147 8.398153863236582
Sn 11.997063740338142 7.063179227117847 9.561744388077683
Sn 8.30256671315211 13.404826400450506 10.553097166599953
Sn 10.915458400266633 9.52708243661744 9.03686334560695
Sn 9.312701252595868 10.903538723983655 11.086263663193986
Sn 10.471738068315325 8.213556561656945 11.757935193817218
