6
Energy = -18.33829733 eV
Sn 9.053481110672491 7.9521315106842625 7.822071975446313
Sn 9.230277090337855 7.961622832083323 10.72308862923885
Sn 10.371926026427696 10.517015776474784 11.809957887206327
Sn 10.185123906587117 10.213047906099298 8.889418838217116
Sn 11.561727422483292 12.773004697895441 12.84905516467903
Sn 11.596113821397044 12.623532922654517 9.953409697735736
