6
Energy = -18.36625431 eV
Sn 14.188109456557742 12.183078774153957 11.781241048942494
Sn 10.320937191486399 9.691292269331807 10.128042775453405
Sn 11.486020213329788 11.648543883062489 12.065783923015546
Sn 7.5855520552235705 9.322208591648511 10.288577958056566
Sn 8.575392697235 11.653038764590411 11.697644186816998
Sn 12.98711167507832 10.781686547562796 9.556553651826
