6
Energy = -19.31756514 eV
Sn 12.29014021581301 9.88453195012543 10.211632981312285
Sn 11.156708966145858 8.077507652252581 12.151896881552391
Sn 10.06254023421474 9.852810624017524 8.331932299706267
Sn 10.880686971717811 12.41634226361295 10.266266217308416
Sn 8.13586539876394 11.854359333106752 9.328038534014352
Sn 9.28329055705982 10.003143579173994 11.344971513578109
