6
Energy = -19.90973072 eV
Sn 11.332487866053041 9.313807734945883 11.332847090525412
Sn 8.93804757371212 9.882661778043916 9.741925427589738
Sn 10.414661881987337 12.374299924761122 10.13383658716653
Sn 9.555439472114573 11.205546979877253 12.705491098715944
Sn 12.197211908174873 10.478526887264259 8.815309840443517
Sn 12.680270700389142 11.854503803657023 11.909706531024254
