6
Energy = -18.34027149 eV
Sn 12.50547117000321 11.324092518448273 9.657784029320668
Sn 10.250028079490257 12.253525931044946 11.17375138557692
Sn 7.9938285886440275 11.325891092007748 9.657817243396511
Sn 7.536307971357246 8.64703571295181 10.493196207059453
Sn 10.253532269412561 9.300383355258939 10.026180424792475
Sn 12.961482366110367 8.64993844368965 10.491921154871509
