6
Energy = -19.91140274 eV
Sn 6.1823538435677765 6.767261479252553 8.246954905740964
Sn 8.703799942872406 7.431031149060293 9.564226256671828
Sn 7.54117675253138 8.80559365420033 6.668713284624525
Sn 7.075351651694468 9.853302849432929 9.36880275736777
Sn 9.285334044349566 6.457196357571843 6.869226347319265
Sn 10.072337258172631 9.492124184153292 7.987850451133567
