6
Energy = -19.90850461 eV
Sn 10.390586310333846 11.934875566469959 11.438295160139198
Sn 12.432190147323242 11.233755886610806 9.451212510424734
Sn 11.717261840846474 9.444242176552864 12.185103307606955
Sn 10.45048581984779 9.070483397317009 9.570404891585106
Sn 8.399202143203436 9.795249698563508 11.512531864434408
Sn 9.198505295571639 11.604151953906213 8.78168304115532
