6
Energy = -19.90906683 eV
Sn 9.719554601921404 11.715898857375777 11.946971945753626
Sn 10.70894375515208 8.64241087339761 8.453203952859965
Sn 9.74361260232227 8.335395792858836 11.639325068531198
Sn 10.711646698760097 11.965470335543742 8.724405495383897
Sn 8.579958211710952 10.214307682268426 9.718569003247948
Sn 11.847509162126677 10.138625967075765 10.705735264999385
