7
Energy = -23.05247466 eV
Sn 9.62955041389883 10.525819065751604 10.089996643615736
Sn 12.582922183297791 11.059599545758788 10.560998967318724
Sn 13.247508951888367 9.483691446085068 13.144052214868152
Sn 10.535499114473327 10.423678705145207 12.892592157914057
Sn 10.804409980283427 13.02056602473425 8.983813406009542
Sn 13.223751706761568 12.462186982239148 13.168383977040714
Sn 10.679882877539537 13.220714944409188 11.85894294975437
