7
Energy = -23.0550948 eV
Sn 9.8731446528801 11.066121025671423 12.624890785141401
Sn 12.125000425066917 12.786346934497123 13.454994841944817
Sn 12.467122728745178 9.810336439433257 11.866324437125838
Sn 11.670394722545453 12.528484241323849 10.463691622251403
Sn 10.624249155021456 9.839434722110234 9.55057933697371
Sn 8.62707886020014 11.954409752311435 10.184475910027043
Sn 14.411874609325872 11.93762312197531 11.760136830738162
