7
Energy = -18.78950845 eV
Sn 8.300039645815628 11.458428030687115 9.592748348140754
Sn 10.20666272629301 11.234764621398567 12.008038668908616
Sn 12.785317979922576 10.553579580589005 10.505431702451654
Sn 14.28490133905659 12.85514176053736 11.045099185930239
Sn 12.49521982010953 9.617780504927119 13.142024259178886
Sn 8.076173148418135 9.211342223047522 11.277791149676025
Sn 8.984569000697906 10.088896454628408 7.278212435098288
