7
Energy = -23.05186598 eV
Sn 11.312857630380998 9.90596868474911 11.571908045466397
Sn 10.00237365128573 12.536481135256187 10.426460829873951
Sn 9.95981086803323 10.100977716175441 8.70170972777193
Sn 9.280499808307416 11.675622452269584 13.081439748738934
Sn 12.558305087058649 8.88168197598942 8.930727962009946
Sn 12.750341514995917 11.763506125958138 9.65415050225213
Sn 8.316229459545374 9.67330515851745 11.11110978274518
