7
Energy = -22.34806806 eV
Sn 11.288966113558699 9.572499921223335 11.210789546666055
Sn 9.130787870978686 8.056667261150631 9.943899105772353
Sn 9.459558848801572 9.693890097971744 7.529157386813386
Sn 12.063839303147628 11.269225002888124 8.997848237148707
Sn 8.692576924923499 9.44080981383737 12.501852032246239
Sn 11.91921904813223 12.397631453713062 11.650560692802076
Sn 9.201780708575695 11.661797146592473 10.002815070824225
