7
Energy = -21.75964813 eV
Sn 9.919348952458297 13.483044337161896 11.280004966678636
Sn 12.331991123908448 12.335747713746466 12.336926445840756
Sn 14.740214467821893 11.277105546104396 11.182974340746235
Sn 14.748691684590472 13.38624533001297 13.480751246081667
Sn 17.077664803788853 12.327577845246463 12.326475295596902
Sn 9.918778180776537 11.184326523008123 13.387816921392702
Sn 7.585831640304101 12.328473558368586 12.327571637311712
