7
Energy = -17.38769082 eV
Sn 10.698884387046311 9.381238149015212 11.992333737858013
Sn 9.985412972366262 8.703465962076471 7.729439562072436
Sn 9.708436111360328 14.498727980905768 11.850590627463278
Sn 8.750349079273379 12.336826930236883 13.362020002557182
Sn 12.20545367779134 9.75088402760889 9.278146552103722
Sn 14.48987202963292 11.302521505652223 10.434289469697509
Sn 8.490273843499054 8.313223811749548 10.310545649424764
