7
Energy = -22.71770932 eV
Sn 8.868828449741327 8.461353372816893 8.766097830433548
Sn 8.06084500687533 11.155201046562846 9.726184422535972
Sn 12.763178825358924 10.050943136566763 11.323666625150244
Sn 10.304057890631029 12.103140335466732 11.185273578496053
Sn 9.966594329268771 9.032469462694047 11.44275476481685
Sn 11.154888926453538 10.318219985539274 8.816387452670918
Sn 12.5298725878699 12.713585444422518 12.735089607912759
