7
Energy = -22.7165903 eV
Sn 12.283328158327178 9.925014654287882 12.81384295989
Sn 9.948392391395114 10.661664090035412 11.500778818905388
Sn 12.071990903467045 8.767500801754865 10.025962510202277
Sn 9.140334494277738 8.33189435666463 9.637400345648967
Sn 7.664217318328453 11.30991347221747 9.958732956538315
Sn 10.62042271148529 10.868777583963572 8.485648033125969
Sn 8.064088146180453 9.904824889838313 7.377873696483404
