7
Energy = -23.05619034 eV
Sn 10.027612547817245 11.736043783557795 8.81896059900106
Sn 10.804900388392614 8.487391866242836 8.217922837751086
Sn 8.93812818168131 6.8349326127983465 9.801129077779795
Sn 9.464864137609714 10.208053770307304 6.3344052807583315
Sn 10.372407366190728 9.695338770568311 10.914937427216815
Sn 7.869087731763596 8.664111524005211 11.88775690641611
Sn 7.912953597165764 9.552792502386678 8.924031745506321
