7
Energy = -23.05653792 eV
Sn 11.525415977828859 9.760176335633892 11.740630258103558
Sn 7.572134977323035 11.707493666582506 10.112974311129616
Sn 12.311671773717281 8.083569374100467 9.535082981710275
Sn 8.60708537607549 9.843769371644331 12.18937142550064
Sn 12.089399471113136 10.893262238200936 8.59543803610678
Sn 9.524607811515562 9.442699289725082 9.326167196763192
Sn 10.35771094084826 12.24717281101154 10.564818894657689
