8
Energy = -26.98076488 eV
Sn 8.471420754112604 11.27867623261557 10.333539366536012
Sn 10.27013257631334 11.352067435486022 13.565683399154606
Sn 11.822602278724267 12.47994231276806 9.217929001690566
Sn 13.861739789471082 10.398376368623207 10.35697469841656
Sn 9.90148220214391 13.544977715087123 11.40196861335741
Sn 12.866817112114205 9.683879200686583 13.117939237300222
Sn 10.95371016868682 10.028505865130203 10.86560336389093
Sn 12.822161323255523 12.642990643231789 12.215004062212582
