8
Energy = -25.07759406 eV
Sn 12.32068356826425 10.003118578079022 13.89390277363871
Sn 14.35409615435261 11.41716581986302 12.342667406590508
Sn 11.82927784023502 12.700523240841395 11.906276556758987
Sn 10.599246638552792 9.946764785749345 11.577993853036963
Sn 10.697810726843816 9.2480584724789 8.788168533761826
Sn 10.219091272967095 12.323639979446385 9.473606512262872
Sn 8.456551912200833 10.755115210390459 7.661523723586836
Sn 7.946512055627584 10.289308954088428 10.483674616121268
