8
Energy = -24.60923516 eV
Sn 12.300120828748065 13.493175289788407 12.931298598120305
Sn 13.15018286123493 11.564382826760882 14.79074325768625
Sn 11.365726232976202 15.204863414914938 10.907359769194487
Sn 11.980953132610903 10.387031999754102 12.528606654055539
Sn 10.890813491118227 12.513820325014176 10.286623716084547
Sn 11.567803651516494 7.686303825125742 11.883787171559467
Sn 9.611747258452397 11.332297132626927 8.089182249705999
Sn 10.544406818804948 9.39863775412545 9.906588797786137
