8
Energy = -24.5149551 eV
Sn 12.21666781301747 9.962756086940114 9.621901576706287
Sn 11.301458773882878 12.47638408184791 8.709540291848954
Sn 10.656472294978837 8.83185708228088 11.866767021579381
Sn 11.292430148355376 9.344092143109801 7.03597673491187
Sn 9.103504127821497 10.894350859912766 7.908920321769582
Sn 8.45902120698659 7.235549794803307 11.108449954106963
Sn 8.469545907876123 10.411175051147499 12.701840831466223
Sn 7.543263411798552 9.709969926838042 10.125191827582825
