8
Energy = -26.33898308 eV
Sn 11.276591951399183 10.569737238471463 9.325611837690474
Sn 12.273297243464281 7.881658874352389 9.56027191893619
Sn 9.739649515553907 12.94436447277954 9.07371630342139
Sn 8.325786583270629 10.552216939459525 10.42461235940725
Sn 8.45972918255408 10.866895236020277 7.413355614690379
Sn 9.230031236693968 8.08340424075228 8.559807625492601
Sn 10.257096009883485 8.29408553581641 11.56453193263121
Sn 7.435079780875593 7.849305191864861 10.975758248434836
