8
Energy = -26.3942691 eV
Sn 10.258753186216525 13.118725543403956 12.573954587626016
Sn 9.157470174468491 10.053191280189731 12.066713434905909
Sn 7.864452275965172 12.779959960795717 10.774783769962442
Sn 12.279124541990823 10.727972285786244 12.370200964493414
Sn 11.026586509573736 9.048860492292915 10.00727925649672
Sn 10.287147776144232 11.891528766344537 9.635325400947593
Sn 13.204555485744145 11.532737679173918 9.468566167718723
Sn 13.83329215191931 8.745655919789515 10.693322940745716
