8
Energy = -26.17286536 eV
Sn 11.589105289783838 12.591405529446321 9.827104913091981
Sn 10.96446710914807 9.464497143810227 9.585068772537754
Sn 9.561941375349319 13.517631782821411 11.781525496492893
Sn 13.835327679999995 9.162565329307244 9.14247313898551
Sn 12.426298633111218 12.904265723953477 12.971152008548795
Sn 10.39189737249142 10.495092748328933 12.233455261259946
Sn 13.339724579346482 10.550076362523916 11.469898998816008
Sn 9.452099808066091 12.182735927521747 14.328888497232942
