8
Energy = -26.7874415 eV
Sn 14.30545485631866 11.152375891362249 9.576009643519368
Sn 13.131535083817871 10.670955503581045 12.348164918328791
Sn 11.96856149012395 13.027802843115316 10.028284894134988
Sn 11.756517125135115 9.942763673097334 9.66959041261822
Sn 10.186403400432702 8.871489582059054 11.95271537205297
Sn 10.447308535916111 11.938457831771323 12.33834620004638
Sn 7.8635765518542176 10.808469252351339 12.367528744257733
Sn 9.093262327394989 11.243993913874887 9.625677617312556
