8
Energy = -26.73830208 eV
Sn 11.050931494120528 11.057423520166099 13.227831272250349
Sn 11.025197185851333 12.03087989904508 8.40328968802657
Sn 12.069891695132663 9.254569851565423 8.91522936071118
Sn 10.381519921220459 13.177243664891767 11.072396792729664
Sn 9.675102573120746 10.18479818625779 10.572919749470161
Sn 10.035697356069642 13.64985607364359 13.87118509713304
Sn 12.097563303408341 8.635086729332595 11.857690921962806
Sn 12.969000047466011 11.478140087017765 10.814406214284444
