9
Energy = -30.33351791 eV
Sn 12.373968023431686 12.756071858045457 9.713126149811357
Sn 13.807843716385785 11.025521446429982 11.720302921989985
Sn 11.901522790495845 9.823692590114316 9.325569125787553
Sn 10.156271905507195 14.48493210475363 10.699186422191259
Sn 13.176041473716552 8.17627815315634 11.400433087932864
Sn 9.425520857109957 11.647103669944576 10.392807275439372
Sn 10.901014862198757 9.660723039255528 12.421866331184782
Sn 11.36544790370166 12.815061519530884 12.786015122681059
Sn 8.762515394198589 11.535571703088127 13.252123218591013
