9
Energy = -30.50408149 eV
Sn 14.741989976275928 11.035910131781986 10.902156533672555
Sn 12.262747691996793 11.123566255781594 12.298522050361855
Sn 10.057057349639438 8.85785278518531 11.835045658247992
Sn 12.650941922357259 12.851904645238486 9.671967820718587
Sn 9.660214825349279 11.183193491328282 13.769450992012285
Sn 12.558366759096938 9.315541903133566 9.708728146571076
Sn 10.146997833269301 13.462654181953674 11.804290959074914
Sn 10.291671162191319 11.143099563069981 9.719109122693794
Sn 7.887210653069453 11.196512511778959 11.271690797583219
