9
Energy = -29.99347848 eV
Sn 14.939294048412625 11.16161129321493 10.435087578373182
Sn 13.213684989404888 13.560038117483158 10.980214624108948
Sn 14.08520342778237 11.525946187771007 13.249978922714945
Sn 12.206439867226015 10.354455156955959 11.28608370771087
Sn 11.5476042291045 13.034454037376463 13.499746096494952
Sn 9.84488957436372 9.329676093480556 10.06847886986449
Sn 10.343461160064743 12.603729671957177 10.393408792036029
Sn 9.670189521576171 10.63664280693633 12.967575115658937
Sn 7.791910019057009 11.415782013171315 10.685690503115444
