9
Energy = -29.84391303 eV
Sn 10.381605240010447 10.937580745568729 9.116904597333361
Sn 12.73315957714063 12.972685556906761 10.095182970898515
Sn 11.845862903173312 10.095562815671032 13.964184204434806
Sn 7.982658922430136 9.53075087789847 9.705514748920065
Sn 13.07787190565071 10.593233828382303 8.3125055840949
Sn 9.842573991694106 9.294316296654609 11.977337407086388
Sn 12.936639932326852 10.045543168676772 11.188253003223169
Sn 11.011761554241074 12.354057668318978 12.387432262857132
Sn 8.265843540888168 11.938872707284654 11.42690117317689
