9
Energy = -31.09549649 eV
Sn 13.221847051436116 9.84625949741181 10.75433949675721
Sn 10.849843733743633 10.358427117862343 9.0526488201181
Sn 10.807398686244113 7.870748401511238 11.080411760412
Sn 9.091791284627773 8.055731281394424 8.453793458187672
Sn 12.160189423571891 12.620781708957292 10.44186558096718
Sn 8.153044485865385 9.539879681820292 11.042447402378697
Sn 10.769303553209191 10.688917758299606 12.481684900170283
Sn 8.041662836083015 10.83889832391113 8.202372609952095
Sn 9.042284640454588 12.532783744707837 10.63016458652063
