9
Energy = -29.41045011 eV
Sn 7.894666221628304 11.856508420610686 13.856767230614112
Sn 13.299597624222658 10.612603005938675 12.719169543694036
Sn 15.38759552755888 12.76035267027791 13.065153886756415
Sn 8.555503231960738 12.202232087976826 11.118916240903314
Sn 12.751260003403353 13.910503754365237 12.39734089015386
Sn 12.942903964225723 9.819228238180736 9.624010009639829
Sn 11.367722054465302 12.034787028576972 10.484131621645775
Sn 10.633277467478436 12.0925071408454 13.490880802394948
Sn 14.623945040558795 12.109922602442632 10.359345762890532
