9
Energy = -31.09869428 eV
Sn 8.697181622214204 12.001802749650887 8.977476826732463
Sn 10.815683399688417 10.943710417659664 11.18091892143808
Sn 11.769965509339208 12.567277064221168 8.887538791969112
Sn 9.420130046620473 8.873009328042501 12.773086773490958
Sn 13.240311442319692 10.099585408208254 9.704829720603382
Sn 7.990265270185559 11.362063744932373 11.949370954013165
Sn 10.681104381884317 9.797129195610033 7.9299554045706255
Sn 11.145133608374453 7.858759250776147 10.354275758700004
Sn 8.261060400871271 9.029945139261002 9.879758519664158
