9
Energy = -29.25325031 eV
Sn 13.472071851676334 10.88365722665447 8.374209447920077
Sn 14.386476856553475 13.442117639058925 9.291956226033687
Sn 11.883309282832663 9.026451221861311 10.101046028222784
Sn 9.674782854675769 10.87089329778974 10.892136728241294
Sn 8.252828676895984 12.95338802754108 12.360998870634784
Sn 12.630247293566654 12.006991674965821 10.967291610047136
Sn 11.731424552993564 9.799940735530077 13.120259137343048
Sn 11.096022455057597 12.856125140358625 13.381655526376129
Sn 9.028692263086235 10.484828129339013 13.867483587183985
