9
Energy = -30.83114882 eV
Sn 12.138362859524005 8.176023263849185 10.52346323640382
Sn 10.301506019517761 10.197525014984244 9.41874344103069
Sn 8.108247854762144 10.769813823295635 11.295917946296857
Sn 13.174953257892957 10.8775590588038 11.040460974888937
Sn 13.022899159351121 13.74142972539707 11.685340673397683
Sn 10.47123256648982 9.522148798234989 12.520646630955257
Sn 11.909530840083454 12.816095642210097 9.007154414164603
Sn 10.233615524181447 12.791918692587187 11.574141910078058
Sn 12.123297961273737 11.784208935138398 13.802745377774409
