46
Energy = -100.42887225 eV
Ag 16.288420359998597 9.267255331507561 12.615630305311363
Ag 15.56494167312305 11.343998257030684 14.466437839304765
Ag 13.83686396600441 7.764257041789053 13.501715929821545
Ag 14.87065833536084 7.539370330895588 10.852000552535454
Ag 15.160139267835357 8.248811425367181 8.05756976073436
Ag 13.626631316379472 12.677507884677949 16.100098898497194
Ag 13.393528400270828 9.916398305978912 15.360621255230969
Ag 16.16757198759797 12.166495696841045 11.872759588319427
Ag 16.049037466421577 10.082006704743147 9.95249116486224
Ag 13.744398465970846 10.297941273395871 12.430805123329838
Ag 10.844180467037004 16.27779890720137 16.681166065678052
Ag 12.547449432461462 15.003341338248854 14.886992789734693
Ag 10.738152254675613 10.722046105647893 16.072111737725358
Ag 11.25969070671412 9.18354905557659 13.696493171720153
Ag 14.657659836100285 13.829496630634624 13.563620563356364
Ag 12.009645535932725 12.068960578851897 13.979714690462725
Ag 11.851402459881793 7.72288133260973 11.457128556277626
Ag 16.15349864586094 12.811302003883785 9.027223581418525
Ag 14.86723814744004 14.63038263888152 10.885749374365826
Ag 12.562836840274167 8.999321951648687 7.002647581502072
Ag 12.79788896462474 6.860265702595433 8.959813349673984
Ag 10.876745866334044 13.50336366195621 16.49337183681993
Ag 14.463360189932343 11.034321733450852 7.658774510458336
Ag 13.019859661670361 16.459607447681943 12.548135860445232
Ag 8.41123970465994 12.343593125804757 16.03966184770329
Ag 13.793531095433307 12.091702069226509 10.310646468687814
Ag 10.351125507886138 16.811012545175274 13.948451763828418
Ag 9.982476948811735 13.941787454441641 13.566549574259518
Ag 9.232207287870951 11.117350409913788 13.625879764383768
Ag 13.419757508810816 13.708003550299512 8.160651041657148
Ag 10.563514604783256 8.8444630595361 9.058444237130908
Ag 12.252730893767996 13.878102201651242 11.905762631002577
Ag 11.285767678900239 11.167692056183407 11.298405495144138
Ag 9.309471374825076 9.173178123919431 11.580705206237942
Ag 12.693687572464144 17.75053178150165 15.064874731923158
Ag 12.595700044109108 15.817197851595195 9.780130497224054
Ag 13.194552496669296 9.475322011065709 9.709265247549189
Ag 8.508244699524978 15.095257346738002 15.61449315737921
Ag 7.251728066970221 11.114858767074631 11.65041025308628
Ag 8.50166356079946 13.584195911633028 11.121768562342007
Ag 11.643976745746304 11.393968951896323 8.218306702281463
Ag 7.226778601670742 13.219154347547672 13.643225556598999
Ag 9.110962540787723 11.304396843248215 9.538620846745484
Ag 10.277415882201096 15.867256541892306 11.328629191485945
Ag 10.743903352147187 13.702228379110112 9.445062409106947
Ag 7.944839533562229 15.835141279753568 12.914056676958962
