44
Energy = -95.07998475 eV
Ag 14.285914197872472 9.801288999810614 16.7539583761389
Ag 14.312964011802507 12.670280999305458 16.57696779203469
Ag 12.186074910817231 14.067819664663768 15.368833909429316
Ag 12.084344285835302 11.197688797177499 15.635197658449387
Ag 12.171303999675098 8.323135831153651 15.730612032564771
Ag 10.067408244719434 15.435653635345146 14.112373769631922
Ag 9.951975874354089 12.572762169509293 14.386209442398417
Ag 14.747243592039643 13.955485300623483 14.042256257535511
Ag 9.991400985656053 9.742452610555585 14.327242073934718
Ag 14.704850514341079 8.368763196880364 14.297825495620225
Ag 12.645904514818621 15.42931308480028 12.821557544565684
Ag 14.831446072281492 11.12325019632115 14.327994544025223
Ag 7.835030398374134 13.872862161384184 13.019690808194413
Ag 9.957261839193617 6.97385874188494 14.532345265784622
Ag 7.88273893872684 11.046108354822922 12.964144950679964
Ag 12.50643600335692 12.536844945312613 13.019593845547874
Ag 10.434650067413292 16.78405138547584 11.648767189307266
Ag 12.55619583209843 9.690076022056797 13.062930388290237
Ag 7.917884018233128 8.179649737530111 13.043897315106172
Ag 8.041361778837192 15.287183500715313 10.629559575472207
Ag 12.506590172067947 6.81599453305226 13.40010002654784
Ag 10.361119073763177 13.988365995648966 11.75883294662765
Ag 10.452003677814822 11.09863760634183 11.715738511491994
Ag 10.437825506652302 7.933366560489206 11.87856988037122
Ag 9.926313697101383 16.381937053973758 8.910125333739646
Ag 8.461553076308528 9.479151527114821 10.601470467801356
Ag 15.148122566622707 9.763907539096152 11.766212400182166
Ag 8.20896922059619 12.428621319525051 10.509973580114655
Ag 13.02876165234775 11.208480001959332 10.551677861908866
Ag 16.330319192698937 12.276911286438322 12.30979238678968
Ag 13.155659140078859 7.9358709256259825 10.947949849642997
Ag 12.285185173352719 15.2870084129798 10.001617154978106
Ag 14.344042516316376 13.828124534627676 11.171973819334513
Ag 10.9967621983301 12.73819749637313 9.344205617360013
Ag 11.165300076157802 9.230716274203223 9.483224065307832
Ag 8.711471939468925 13.977256085785497 8.165091133949351
Ag 9.207593396316618 10.89767961241951 8.310012005662182
Ag 15.703775626080317 11.68898321173061 9.639942973291005
Ag 14.160848053834217 9.383331604130893 8.82880993350871
Ag 11.420931490912304 14.71782949581474 7.332099781668468
Ag 13.677218264769506 13.285525717114922 8.45289812992681
Ag 10.160690679597336 12.512718029397695 6.306041287236327
Ag 12.182103417473636 10.92613279572149 7.489938410623039
Ag 14.917367229277128 11.266069378238367 6.942579091514294
