21
Energy = -41.31170996 eV
Ag 13.918174274985859 11.626359083827037 8.689092020407328
Ag 11.65690163311694 10.707605680537647 7.463754067193771
Ag 13.096460032545515 8.822426125892482 9.070561508900523
Ag 12.13377358291624 13.38875755374517 7.102192627595309
Ag 10.483056181041814 7.454290005936038 10.250386155786014
Ag 12.751369299329014 8.12843786149933 11.728359835437548
Ag 10.964249549191074 8.009630708089915 7.5770918276224135
Ag 9.68313499341753 12.595437595369273 8.349290734788903
Ag 12.355631998829484 10.807131697771899 10.80623504343724
Ag 9.692947299978856 9.93175593200698 9.224093080727421
Ag 12.653496829154513 12.494146766553113 15.181997260428979
Ag 10.239380810384544 9.4660795995846 12.212766023307962
Ag 7.902952485454384 8.765026954498818 10.917008695790736
Ag 11.98915592728549 13.438068901428135 9.81101575559668
Ag 9.861936312967401 12.22894372674959 11.170684685052821
Ag 7.493237306909109 11.498120810163265 9.92433055986709
Ag 12.21257765819669 13.011951338378038 12.531038575036796
Ag 12.542404016404332 10.279012152674058 13.567312720880398
Ag 7.834206136096516 10.998858760582294 12.680264667771908
Ag 10.19343882501549 11.714007295019908 14.023782559109678
Ag 7.795787959752148 12.270851663342135 15.116176023853638
