8
Energy = -13.41242938 eV
Ag 9.543905331371462 9.983675909148591 7.02704439206399
Ag 12.39612679299152 10.142068869699836 10.279315517351803
Ag 10.523264053043627 8.484518612708436 9.106588874870067
Ag 10.144068838679882 11.294900819381688 9.319691239508662
Ag 9.320767714314266 6.928033175371286 10.92924228474756
Ag 8.50705186135297 9.495427200753602 10.912901989909306
Ag 7.5367771110901955 10.880492379566332 8.752950323654701
Ag 10.4463908894133 11.134435697428128 11.991742773902939
