50
Energy = -108.20194700 eV
Ag 15.102675371396662 10.004982374791384 16.431822819531135
Ag 15.960279120062717 8.359828742228611 14.39981294819027
Ag 12.569805522248606 9.437935137807727 17.46458548843661
Ag 13.725524155378848 11.955757147931745 17.95019154457659
Ag 13.133208566636112 8.716437472329302 14.504276960272566
Ag 15.516295392522132 12.803444907356486 16.00509044188041
Ag 15.114373508846388 9.120866013855757 11.710767203770702
Ag 12.454988738399784 8.032631764272816 11.6001083707443
Ag 12.747326578967701 11.43866409304848 15.366146658732992
Ag 15.202409927172253 15.45464067122955 15.080153996867546
Ag 9.475155762708967 11.108567419363288 13.528931419861186
Ag 16.390320725291506 10.995240788563084 6.63325556424962
Ag 10.891702892599865 12.067104120784357 17.427052726825206
Ag 15.109972911037191 10.992469867317354 13.818389038029714
Ag 10.44621144960538 9.825806090081217 15.74979860531967
Ag 15.170430635787415 12.047672436746753 11.188271518496835
Ag 13.026575069020067 14.154887959739758 16.21717663056234
Ag 16.30221092089247 13.47428014961993 13.426519611265682
Ag 16.663564055201746 12.788573907065718 8.666893716957242
Ag 16.990228690119814 14.299471843799056 10.895958034791274
Ag 9.978218629275348 15.76198587675538 13.370611468944286
Ag 8.438307762324838 11.928460507685742 15.98203327693785
Ag 10.397691167832196 8.568071453501634 13.235069121237238
Ag 14.431485884331268 6.65046580756762 12.92033616205615
Ag 12.638176067719053 16.028454562585623 14.113307856317704
Ag 11.151613421998336 18.31715885454867 13.530376957526832
Ag 6.737602838895878 11.19821500380907 13.765028507490934
Ag 10.24530120861445 17.403557160506562 11.04569906892556
Ag 13.237242210287063 13.354985792034524 13.21978876455397
Ag 14.787774234525516 15.534631574792822 12.189560409840952
Ag 8.020073359669327 9.359265667374338 11.9371640579136
Ag 12.380365578331503 10.758436356233114 12.623458418086846
Ag 10.693537376463395 13.45974810383704 14.921812297394107
Ag 12.719451580441929 16.72811736674363 8.910079169258717
Ag 12.139250875315726 15.182234895391462 11.095983674087925
Ag 10.529439117238011 13.19050793958345 12.114586519807407
Ag 8.112464118833838 13.665860078036193 13.660138673037968
Ag 13.086325174821374 17.690769893661493 11.652456946809632
Ag 15.93187407573194 10.097968781096581 9.229126907255587
Ag 14.49111787160809 14.481172096535692 9.53691473588535
Ag 7.97498563607489 12.108674794526866 11.272806632371061
Ag 12.479377686319419 12.49483569246141 10.312949624535594
Ag 8.584996443511676 14.972550787461127 11.052512044443116
Ag 10.410833969343114 10.361631105589158 10.695262237325355
Ag 13.181688900135066 9.909074021770538 9.752183196738605
Ag 10.112517895230148 15.774465294286134 8.856362225723506
Ag 9.724909262882205 13.037352043904123 9.298996195803857
Ag 14.112361023437439 11.963663381951116 7.973466224026688
Ag 12.110213502270849 14.067104446628175 8.003265482185746
Ag 11.412723495768759 11.218989429451511 7.975674704429203
