47
Energy = -101.62779764 eV
Ag 12.997987641719465 15.91911294680696 11.028705682413557
Ag 10.439919540124995 16.842722080598154 12.348594760116853
Ag 8.144163245957367 16.58200523024713 10.871691693563525
Ag 12.84162399735461 16.736002746334933 13.690249699566841
Ag 15.28916053193297 15.395007487305499 12.994881827371838
Ag 10.639837917294223 16.348630045332087 9.49986398561183
Ag 15.528725142788254 15.063901538974433 10.145162203769544
Ag 8.377844476674953 14.820793650317798 13.058777231461711
Ag 13.257947595186106 14.804233244939242 8.480618506465255
Ag 12.941817843700084 13.841386449147008 12.992717296417357
Ag 10.658529767506952 14.271449232108928 7.6402531429179765
Ag 13.39804363169589 14.858439909978927 15.59583352783225
Ag 15.155376520714263 12.647052322329058 8.80981960799387
Ag 8.421176554254268 14.31929365860165 9.292364261491427
Ag 12.802075015046496 12.663795546740113 10.447034495358377
Ag 10.597755207215325 14.250391434998555 11.275493560015473
Ag 6.333168253167803 14.417257015563791 11.142692970869602
Ag 14.758586714124908 12.32205313690879 6.0720937464357085
Ag 8.830832335866743 13.07892788458534 15.255444380619934
Ag 15.421745197078348 12.803398546101219 11.746144200783476
Ag 10.743518758766228 15.02337953007483 14.544790116432143
Ag 10.186242366445857 12.086141637707616 9.304537031033744
Ag 12.49790623407571 12.180748074945617 7.6109647462931385
Ag 14.418040450952029 10.099538974807855 7.728048255655236
Ag 15.401477206498217 13.044242749964798 14.622299505845724
Ag 11.24773655536721 13.245764127994365 16.7559946645068
Ag 10.57627842812305 12.264640161216894 13.217398076846624
Ag 12.117856815607558 10.03418239586673 9.451061258614292
Ag 14.181497146480728 12.893188574188757 17.310063852498853
Ag 14.829356792372723 10.373521948893668 10.534154710978367
Ag 12.897544339744886 11.83963926191988 14.948301689508915
Ag 15.244306857646441 10.48194202500198 13.41556483442991
Ag 9.935602430675374 10.124783297299052 11.266614574109246
Ag 8.282828585531444 12.438004747299805 11.447140054904022
Ag 12.614235360055767 10.450610361727044 12.407323100332157
Ag 8.34799074855733 10.64983754316413 13.682489226489242
Ag 15.038149696543599 10.401275444939776 16.228339047265557
Ag 10.364562450208846 10.721229937404429 15.66778666104745
Ag 13.9351849890412 7.8866028426912695 9.394298401980295
Ag 12.436817499095273 10.753493495588563 17.586207387939485
Ag 10.513097361977243 8.75122632782123 13.62650702249972
Ag 11.68326378939866 7.867901337367705 11.225798045752077
Ag 15.143028906927691 7.945642899216321 14.810207136755583
Ag 14.514875528175118 8.099990619850029 12.120295033164716
Ag 12.684066684833965 9.039631656004243 15.304883941009873
Ag 12.60738527168572 6.798049005571882 13.672464429668057
Ag 13.454907006458656 5.720677236131976 11.152221492783948
