33
Energy = -68.57601051 eV
Ag 12.20014207396741 9.60929305450625 10.071223708869672
Ag 9.34847335035406 8.392893231635322 14.733105230205904
Ag 11.735050810255679 11.2685007156326 12.345111246520217
Ag 14.161938300442852 10.740871625265344 16.202571011659476
Ag 14.92289616361545 13.257974169576928 14.967425817557963
Ag 14.288620842123938 15.091152101654362 10.683075423966173
Ag 11.363353330522202 15.966842944768283 12.026869303406032
Ag 10.199684510980916 13.725366139115382 13.522451699111425
Ag 11.128269122080702 11.8789079121715 8.58046812924321
Ag 8.482367315410922 12.894551406776127 9.408621885469886
Ag 9.59177398917776 11.099527911102863 14.240623512255873
Ag 8.763676279626681 10.482857494783234 7.911573002875312
Ag 12.98227703800296 13.862833535100936 12.909296781418904
Ag 10.623762019490426 8.611379274524447 12.305820037661166
Ag 14.410886815248409 10.930873279179682 13.501442106273327
Ag 15.60390997738139 13.01975365155831 12.099334620590867
Ag 6.893344783086433 10.666998516312622 10.185346910146109
Ag 15.092313612837707 10.436700071535999 10.835713184155072
Ag 15.089113278110784 15.547366711485708 13.396760364620155
Ag 15.811764910435754 12.757674324995358 9.323475038264702
Ag 12.132040644321712 12.284453527815755 15.02079384202094
Ag 16.46327929015621 11.992731395689306 16.8388394195943
Ag 13.445158470574174 8.66230946854957 12.331693969463982
Ag 11.375467401380838 9.45444370073205 7.3956254196525
Ag 7.88722550705384 9.569104891142098 12.617392229015397
Ag 8.669965540820979 15.01501187341158 11.473936161093441
Ag 12.041396319821299 9.479994787502465 14.697409327510126
Ag 8.068878822169612 12.360070350827886 12.197545619598891
Ag 10.837491067397478 13.522508312286822 10.793719822603899
Ag 13.670168768696495 17.4589350066304 11.993482610779218
Ag 13.905811873261118 10.743321737129648 8.20901611528538
Ag 13.302276875609426 12.516500883985403 10.287251872898635
Ag 9.597164440418982 10.48441948168459 10.544140591877166
