46
Energy = -99.46405164 eV
Ag 15.829832935418088 8.951689028297666 14.675774614299716
Ag 13.37607182314851 7.947374670465698 15.801092793985326
Ag 14.521713986404723 6.606044924436662 13.534907945365056
Ag 15.837635204125569 8.84616866821546 11.776021563092044
Ag 13.836168217356613 10.884140134800273 15.495416910034159
Ag 11.642935896244264 7.080156026279356 13.73511617916959
Ag 15.287440051768415 11.321485434520008 13.063932848348768
Ag 11.313582293779879 9.702476905180179 15.14508970457849
Ag 13.477236544175863 9.168667122414584 13.221866708168735
Ag 13.011525275805356 7.187756906837865 11.220536047428912
Ag 13.85205962623944 9.693361292630275 10.055579265631799
Ag 13.566854207440025 12.481049025120598 10.909304090576747
Ag 16.077379288068464 11.441827917449295 10.385722790937477
Ag 14.17662140147769 13.515118378511442 14.421727501510597
Ag 9.353448628443372 8.646032517497103 13.50785997678173
Ag 10.117991519024946 7.063828176238565 11.252522588191447
Ag 11.554299169231038 12.64333433104677 15.724440147704831
Ag 11.52018024787935 8.326867687149768 9.085225106455317
Ag 9.00625914671776 11.27071327794574 15.151177747875394
Ag 14.291399290750398 11.804532788907112 8.182686982447771
Ag 11.335388594954868 9.610350033170631 11.540295114757859
Ag 15.69518829492718 13.92920424746112 12.044218538409694
Ag 12.008075153532978 15.135579599055033 14.146249091170075
Ag 12.142226797910736 11.728587306028881 13.224851845841965
Ag 9.356598696656208 11.345714233422239 12.391677895973642
Ag 6.926805149981107 9.995689687440596 13.479042546782656
Ag 14.549648483430202 16.196272488131207 13.399552773528393
Ag 11.673565718529845 11.180507687351211 8.957607499942457
Ag 9.630142731206329 13.795034368129562 13.950112958770921
Ag 11.010137993587003 13.418825579573557 11.331079769715243
Ag 9.250387947836437 9.950961700168632 9.610981652435216
Ag 7.635611160838555 8.472225216735533 11.326923555025221
Ag 7.078639831515881 12.733081271545842 13.488271663600388
Ag 15.842788103548521 16.40151682866655 10.750991716603819
Ag 15.145298323166035 14.222179242013201 9.234236625707254
Ag 12.965757785942335 15.441448769270467 11.266905328460108
Ag 8.28676239704474 14.065260490526832 11.35983687879465
Ag 7.129162433364688 11.396267855883506 10.836968222708494
Ag 12.120006507097846 17.72458712800332 13.160311714257471
Ag 9.367645375204074 12.702689733724283 9.131124023990647
Ag 13.995924803570336 18.298780696459723 11.231823257059153
Ag 12.35337760462238 13.944159106432163 8.756965842594504
Ag 10.00975845942708 16.11802230862693 12.358746500642273
Ag 13.51996789328928 16.618808620802 8.858173267647564
Ag 10.157686061078804 15.453399125163836 9.617357325274588
Ag 11.40068659634141 17.76982241768183 10.41374286865221
