53
Energy = -116.34141625 eV
Ag 10.248299124812258 8.44935518092666 8.039762813453358
Ag 10.499370330552075 6.3926056507217455 9.997634828546598
Ag 12.743284204578265 7.320192896561533 8.74521101977702
Ag 8.10647586401159 7.773530165085825 10.19141249381986
Ag 10.008303877456141 11.242244402321464 6.949884700428335
Ag 12.575175272312006 9.81917639179747 7.394792246537805
Ag 12.532005570468002 12.48166117650401 6.459030878612576
Ag 10.496073879342799 9.168877645637265 10.90282893667448
Ag 9.618516081375425 7.055705574147723 12.596254795583844
Ag 12.489573550995964 7.3699133608682175 11.789493152971525
Ag 6.587100124242669 11.43084659350248 10.603163998650631
Ag 8.373426588763783 10.191249304875011 8.962136077581166
Ag 10.786609192542885 14.057993929919443 7.8740565078950135
Ag 7.949697224777347 9.403112954425275 12.489296474495047
Ag 13.343914217509445 9.571242359950071 10.179880919784726
Ag 14.167702154248817 11.86166767066516 8.607179857338387
Ag 11.302688176547564 11.529152800347392 9.35806474611338
Ag 8.403644481298654 12.919028915903509 8.795629221056272
Ag 13.623297669261794 14.553022790585876 8.111216565555324
Ag 6.992926908707555 12.093603551465307 13.289349795607052
Ag 9.335318867885942 11.112572900360265 14.361909921283894
Ag 11.19267405710499 9.027419198577313 13.755561180759036
Ag 12.10028677784507 11.362601147767267 12.040752400161015
Ag 14.01878937754654 9.424052724280672 13.075526596133704
Ag 7.653807340107101 14.049413069514948 11.282126027709827
Ag 9.233848326429097 11.603822195409213 11.538720293610297
Ag 8.956847768463687 15.637667620378135 9.364067039434788
Ag 10.526384599603771 9.8004814499545 16.465711629596644
Ag 10.556355883048914 13.847561349558706 10.851325155449942
Ag 15.197280880594993 11.388622856765732 11.08506376080491
Ag 16.84754894582377 10.128321214618254 12.840919185066845
Ag 13.184120162290865 9.092375581116926 15.90994595148162
Ag 15.805022028365663 9.34046339438231 15.285487949392671
Ag 9.183603242849676 13.87072170421896 13.638899950924264
Ag 12.163923826604485 11.46465795180331 14.89470171400344
Ag 15.943721781340415 13.884771699002716 10.005232112347601
Ag 13.33483452480362 13.669508747432115 10.809288928542678
Ag 14.519702018549621 12.314923582361889 13.632603071485622
Ag 9.88040507386097 16.176328216149653 12.159550674557947
Ag 14.480882070066839 16.30412685775493 10.2520149176644
Ag 11.756019526512766 16.04443302775435 9.711007070528122
Ag 10.331353230101376 13.243862224466602 16.05941391604001
Ag 17.002765587337716 13.056463804680906 12.532584619880037
Ag 12.08043941336038 13.850158002965552 13.364966818200678
Ag 12.196891206247038 11.714043852856868 17.680190909219668
Ag 14.690020694901241 11.65905110023829 16.47326323081988
Ag 17.073163850476735 11.826706733654195 15.053819848159087
Ag 12.647481943238772 16.50506012251407 12.39128919948712
Ag 15.223515129696104 15.170942904868173 12.65620297726318
Ag 11.024836593967937 15.870783349203288 14.817290719274638
Ag 13.041903726315208 13.986843586715015 16.17135588886654
Ag 15.730314050038798 14.234187210223116 15.287450053955984
Ag 13.850174030169871 16.279391788944164 14.857176283351258
