19
Energy = -62.02340488 eV
Pb 11.33051358042831 12.454832442825106 6.529932307444158
Pb 8.134606784154245 12.558358499430671 7.223198161144525
Pb 9.97005998022409 15.086972970477346 7.642736769235522
Pb 10.013296417504804 9.826892509868909 8.022611191923907
Pb 12.787306484807628 14.357696809956101 8.775792433132663
Pb 13.13557371728132 11.036859155243283 8.881004894489324
Pb 10.12051103528921 12.815550052493283 9.898770166927283
Pb 8.457023031594304 7.921517790804083 10.23119473451447
Pb 12.027886649295944 7.7630562568366965 10.254114784133352
Pb 7.298626913491779 10.79752475828355 9.835761688350171
Pb 13.249443783078453 12.952257728982008 11.752708439739676
Pb 10.883090834415974 10.117554446621224 11.777502826423053
Pb 14.417726029937874 9.940465465923744 11.679289119138152
Pb 12.797214552458993 7.929231309334419 13.651526279281773
Pb 9.754223845777059 7.033661890421026 12.971898392256684
Pb 9.979782120467444 12.367862195269483 13.636564171830285
Pb 7.759589174349217 9.758765122037971 12.965143057301256
Pb 12.947258011513496 11.117682604189863 14.435681455693729
Pb 10.242849432029066 9.469840369100288 15.14115150513892
