13
Energy = -41.85569783 eV
Pb 13.098751573728542 14.607066342571537 12.630421880880414
Pb 10.515415975999746 12.506189855883193 13.473827982227341
Pb 10.588338205881108 14.34152241980168 10.648435750856198
Pb 13.917669723437367 11.898366095571348 14.202645152057556
Pb 8.116598284294492 12.496105112573444 10.932057932017337
Pb 15.530881712411945 12.850681364570892 11.509191964157909
Pb 14.980437690929065 9.841972619389097 11.933697616268358
Pb 12.658477872211307 11.808505876091669 10.830557720594642
Pb 11.970178749527008 9.48750635181509 13.265368073094901
Pb 10.353368123778095 11.935848317559463 8.52198570588106
Pb 8.947821680646847 9.632992599205114 12.416197169250372
Pb 8.286167679857593 9.807978999307563 9.337779109390679
Pb 11.275930430092641 8.968730505683123 10.13140247378809
