12
Energy = -38.47231665 eV
Pb 8.682986948258868 8.68100638301706 7.333106392321997
Pb 10.982882360858722 9.72149657480028 5.549283214006827
Pb 11.509672394446868 9.777916495753045 8.85408207658468
Pb 7.059125759484746 9.81672426991289 11.795301962442693
Pb 8.154198414614525 6.859995878673895 12.071741654005047
Pb 11.565632512592455 7.025129443294246 6.910974941791652
Pb 9.944125776428352 6.721401691217766 9.577153169226756
Pb 9.247073684169356 11.826118652375877 7.209509985929168
Pb 6.524287294150565 10.819980659500425 8.832860365808093
Pb 9.21101573943686 11.736708751667003 10.379429235775751
Pb 10.365276444626561 9.168427507927401 11.858149669271489
Pb 6.533676670932089 7.6250476918601064 9.408361332835717
