19
Energy = -61.1116031 eV
Pb 12.71982183248295 17.060521631241265 11.12744594998809
Pb 14.872171637410533 12.692150147444446 8.934838017726541
Pb 11.738688248772602 12.079248648386642 17.083838540976686
Pb 10.212428954778964 13.480967980486907 14.536885662175973
Pb 16.25551972146491 14.289856700295157 14.711946203607384
Pb 13.16628147270561 14.93372452375484 16.06976943715986
Pb 14.932381722569765 12.457459185793102 17.181481292634917
Pb 13.58363737484927 9.605261112269998 16.24937356276277
Pb 15.024238399932932 11.567424202148246 14.118825971878977
Pb 14.422539194978564 14.244771431030834 11.682252343117721
Pb 14.571684356956476 16.742910054921815 13.680765362406246
Pb 11.563065784153103 12.258533011578367 9.034954652918017
Pb 13.409138024761956 9.114599392985022 12.978346295119414
Pb 12.813886915665849 15.071803006227883 8.624746300798178
Pb 10.546229951651044 14.611198008515471 11.281723563360526
Pb 12.23958471931455 12.056962367886786 12.305360111808826
Pb 10.778211838764896 10.269385921329919 14.590717535720087
Pb 13.522144871005276 10.059019747222699 9.890454965435008
Pb 11.319121545074381 16.48496047503529 13.940287043336673
