11
Energy = -35.26196178 eV
Pb 9.984061065563397 9.332216713304451 6.150567636712332
Pb 8.391737728193952 10.879091610485967 8.26182959324813
Pb 11.893735859617127 10.005582152756123 8.427510043080758
Pb 9.470536042828865 7.805999462502935 8.8101173049596
Pb 10.76954329331029 12.993578675046763 8.677799931626966
Pb 11.975924619270206 11.50744085627885 11.257447933603666
Pb 12.046139791828523 8.285769314201787 11.125366365118435
Pb 8.844954917956594 12.285456636319367 11.120388053145334
Pb 7.250818898361471 9.501256488639223 10.924009111359466
Pb 9.163103539551065 7.109796511959954 11.785680829992979
Pb 9.832125225203006 9.916492560188798 13.08196417883669
