12
Energy = -37.63807982 eV
Pb 11.670901677606688 9.461165067688151 12.425899003589423
Pb 10.034490853617635 10.004505880778181 9.716462652073716
Pb 9.352466268996048 11.997079938346236 12.141482418031416
Pb 10.64500066712903 6.866214110477552 10.578741170020848
Pb 12.20543442443735 11.862689878147828 8.609036490549105
Pb 10.528496061232183 7.851831240171581 7.380961079615369
Pb 8.210557691357883 10.386728178396627 7.096526422067714
Pb 7.687202679760903 7.797336520393789 9.167094773500928
Pb 8.387255494819748 8.785071903969646 12.264325821959984
Pb 6.893063577676551 10.972255110861658 10.117615215954308
Pb 9.187534560922272 13.039370604184228 8.935825465901534
Pb 13.041880033298057 8.820035539145923 9.410313505027911
