12
Energy = -38.95991885 eV
Pb 8.499894111961721 8.964418260141107 11.874968676463414
Pb 11.113932883760548 8.011584927791885 9.674856058057502
Pb 8.924357339520508 10.273834857216318 8.95075647305451
Pb 12.110218004091136 10.730168942957407 8.246804382063317
Pb 13.325496071037978 12.900342946072323 10.39820185315969
Pb 10.898635297952595 13.781960754624729 12.433236354940261
Pb 9.8138314672241 11.293799417987179 14.187200603023228
Pb 13.23694632518357 11.787059289328544 13.430564175082523
Pb 10.266674900569544 13.25710490398801 9.252669062126232
Pb 8.178534425954847 12.162164493906252 11.540868608145434
Pb 14.046717020252597 9.758999138944288 10.643400862976605
Pb 11.462746817901296 9.604517633236991 12.254361016422314
