14
Energy = -45.42187161 eV
Pb 8.829015922784137 11.08535664017089 8.056282865604322
Pb 7.826223759574285 11.240680537046437 11.117570698953246
Pb 9.165139192537465 8.532238909667965 9.855329738038245
Pb 11.86476551849722 10.037038996059259 8.689989513570277
Pb 15.159443482916432 13.233789253160163 11.776366967596347
Pb 9.089514711453523 9.001495086183747 12.995134962442679
Pb 11.838117440450462 8.048397669377183 11.385748709006815
Pb 10.453641286698138 12.972651078962148 9.873584056023535
Pb 10.04934763139777 12.500847132698313 13.117998653097548
Pb 12.339148537275598 14.865538346024245 11.63409343692822
Pb 11.875520270658987 9.88797924303686 14.168924210559549
Pb 13.636011940832828 13.157319804231449 9.073966846136386
Pb 13.058419045354826 13.012810371716153 14.213594594778701
Pb 12.792221881698705 11.197126082616457 11.488969863355354
