12
Energy = -37.28739561 eV
Pb 14.278255513117802 12.119795018904782 11.374893816526063
Pb 12.623610827225265 13.519786805181932 13.96687577759408
Pb 13.03690882099032 14.869043069662098 10.821295851465159
Pb 14.183847401580298 9.071791172637642 11.900721364600123
Pb 11.726882581995188 10.196255987874123 13.254998386075803
Pb 10.244320980054828 12.069886945033128 15.217037668726213
Pb 10.69315222020272 12.934470523965832 11.503267987353428
Pb 12.19458865338649 9.781980356178353 9.734108117821547
Pb 12.421725726289747 12.923194934856765 8.52059224376962
Pb 9.05988917271057 10.431885695852632 10.871439201456955
Pb 8.514606241622975 9.946153883399543 13.795206282868369
Pb 10.041770755024464 10.982673510345212 7.979327856208168
