10
Energy = -32.30991952 eV
Pb 10.556918327404917 12.449421617662916 9.027921717917271
Pb 7.559632151994936 12.44930441655917 10.077599822533694
Pb 7.446701794944289 9.3968297059651 10.969305356909594
Pb 11.286971812577669 9.469280777256017 8.085349532457556
Pb 9.847937989966896 11.624803381593718 12.104795906661597
Pb 8.163846821952507 10.22595122338163 7.90494643112719
Pb 12.6412282584395 10.67881295285497 10.766791332350378
Pb 10.430160928287487 8.505441012819027 11.672401246456523
Pb 12.465318824732577 7.315495195673527 9.825771116407756
Pb 9.040815201915636 7.324049049360737 9.015043691082544
