15
Energy = -47.86933752 eV
Pb 11.942865699886829 12.921961454391544 15.097166344512797
Pb 10.783524540706354 9.789085858655671 15.110873504983942
Pb 13.805137881367108 10.524928650789965 13.74519331202757
Pb 11.308459013938023 11.527366076684984 12.128582866374144
Pb 10.477710820511424 14.520667421789234 12.593081553031022
Pb 13.886166778346745 13.58799547909433 11.736173038581205
Pb 8.761308452628908 12.21989386236214 14.407636602354444
Pb 11.690977508733706 13.306635005589502 9.268094348557964
Pb 14.83642136638345 13.408903795885758 8.340562898290957
Pb 11.83331727334419 8.426216746954376 12.187035994657094
Pb 8.514527048173987 12.416790673461172 11.034608854264977
Pb 13.85976029214509 10.754973641724174 10.026355958342918
Pb 8.701926612280374 9.461029651404932 12.544520767247489
Pb 13.067449091680237 11.457224909292146 6.932279584632207
Pb 10.705767445161564 10.140142081473218 9.179618843729584
