16
Energy = -50.37984526 eV
Pb 15.706584265974493 13.777776117299045 15.223758791016607
Pb 15.08906835487877 11.029877592408004 13.986874158160182
Pb 14.420978590515029 14.22858594851823 9.519419256409616
Pb 14.936473839940463 11.276515012177457 10.794349433611586
Pb 14.175856416977254 14.082260221511469 12.582343262147841
Pb 13.212570764924505 11.668055784455657 8.148973046588964
Pb 12.87302592765435 12.702622729752997 15.91314463844831
Pb 12.97297419204188 9.572108647309662 15.709289365909042
Pb 11.168495973515805 14.056557281214996 13.560280393881737
Pb 12.00599230787061 9.880033732202762 10.73187992472754
Pb 11.00448131143419 10.748350753769218 13.74261073812371
Pb 11.31848134004375 13.536091914885509 10.032392838727572
Pb 10.115010363235113 10.940752924624077 8.379523574932449
Pb 8.353514283121816 12.449741726239651 14.03176600214578
Pb 8.730122524258057 14.510711570079943 11.671345814205583
Pb 8.976698428312176 11.250827452958283 11.20125785912305
