13
Energy = -41.96964197 eV
Pb 8.750890803090657 10.321310171400233 9.04151868014616
Pb 11.347851728780714 8.703807952147741 9.735248655782382
Pb 12.125467368406827 9.306501424218087 12.931630268200767
Pb 9.005528576857794 8.908051050277386 11.999013288835586
Pb 9.952514215729 11.286989473166413 14.03655126831173
Pb 13.893321419429505 7.666445842982675 11.033205641349731
Pb 12.952424336272566 12.411628518125903 13.224879289605035
Pb 13.86436837241276 10.786457546451329 10.478427676955352
Pb 10.193585308165202 14.065253638781687 12.410172888070438
Pb 7.822330310796446 11.964531180204169 11.678052410920643
Pb 11.711460189203091 11.412381246479436 8.019722719502829
Pb 12.553818432147077 13.638890015602183 10.232149407903213
Pb 9.453918885920933 13.467290216571223 9.299274749898393
