18
Energy = -59.02897027 eV
Pb 15.343222364910654 13.820761135376232 12.384450734574598
Pb 15.36115242229329 10.4488153208285 13.509628087786304
Pb 14.513032756026497 12.792789310101302 15.539422138169453
Pb 14.923579235829232 10.888006582279028 10.528285713259221
Pb 14.17028868478003 11.38402691072905 7.63250672194077
Pb 13.444750624288337 13.770413590910408 9.375484473131435
Pb 12.713876148909803 15.9273188128876 11.394024132472138
Pb 12.431149924775372 8.996018902931828 12.212960852035529
Pb 12.221467705585141 12.39935626953134 12.688037099110575
Pb 11.701245724975637 10.822084701890294 9.299608300570464
Pb 13.235707852512554 15.417817336950124 14.52021943489431
Pb 12.83020440777698 10.024506401690381 15.431633247650096
Pb 11.033872650189075 13.005771789895453 15.758660179646212
Pb 8.612979624920326 12.764151959789281 13.26234991349208
Pb 9.354996206446351 10.42280172861718 11.19229844687049
Pb 10.08451566131109 13.765402696171288 10.356778063853326
Pb 10.21367334284593 15.410373648103752 13.34322567534296
Pb 9.944342316694955 10.010583275231271 14.325318517214443
