10
Energy = -32.30242029 eV
Pb 12.452902048174193 12.01259526935277 9.480304967778348
Pb 13.297836540083757 12.787893628092522 12.259665689456625
Pb 12.435092083758795 9.166004534506342 8.486329512491032
Pb 12.902197482845333 9.529237295884478 11.757206992287372
Pb 10.63643664499511 11.673419118170163 13.110012309838728
Pb 10.0082309441382 13.606118309057072 10.687481340712237
Pb 9.55300311755415 11.310638705501345 8.420476146192861
Pb 10.042683029651776 8.718515443535455 13.250041229764294
Pb 9.999299395535788 8.728859401480172 10.224400711302348
Pb 8.10150912160822 11.039998742832305 11.31403985727614
