16
Energy = -51.15992094 eV
Pb 15.5408354567833 13.133415629503087 9.831259708451709
Pb 14.79906092119931 11.319252572410743 12.565309431426163
Pb 13.2500659305506 14.383990931792322 12.719290976965294
Pb 14.754429431939919 10.000161491057927 9.398776466921623
Pb 12.922537601627335 14.955424796038063 9.569433724471907
Pb 13.253828941898593 12.267004098232102 7.703011173951986
Pb 13.572749794618131 13.054341300393267 15.630217599980627
Pb 12.221058146126738 12.061629796351943 10.733285648120056
Pb 11.368269433300252 11.3633221570214 14.185105249186202
Pb 10.829540886456474 14.791110896774548 15.134396793677226
Pb 12.619490670549785 8.976888976139858 11.752084891486508
Pb 11.50144932156666 9.689875020404662 8.806833216252388
Pb 9.74688407043828 13.729100322929916 12.284125603579117
Pb 10.767145787026202 12.304720479573694 17.165529689570214
Pb 8.457249324356615 12.526924028465997 15.18173688773705
Pb 9.526832470958176 10.480050573499621 11.906042646234066
