18
Energy = -57.82714107 eV
Pb 10.63303188450845 9.34110181156262 14.051346641502619
Pb 14.850468528136377 12.964478655639113 14.431423641383041
Pb 12.62121677300531 13.117680978281088 17.066204562154162
Pb 14.313746175535375 18.223102016494675 15.170081641310174
Pb 10.404192623172394 10.78536327452096 16.82304487474671
Pb 12.264847409682282 15.727858572216405 14.891840105929258
Pb 14.536848323257857 16.243605257680432 9.863187790575696
Pb 12.893048146849615 14.305202656268586 12.027312154106239
Pb 11.664927191879755 10.961986090714023 11.300162707866235
Pb 11.027721796502597 12.535097629568291 14.227824213631957
Pb 13.318344051350827 10.193527162970591 15.730553915933863
Pb 14.995217982326576 11.060979012952812 11.283927638984874
Pb 16.272139986884273 13.906876821270117 11.172512997763047
Pb 13.501831662589312 8.809214929160419 12.798885828933976
Pb 13.042852239267942 17.746536995341366 12.33144855843872
Pb 13.677689121870374 13.158361612080276 9.2445414377763
Pb 15.745786449996638 16.181112669461413 13.292649650261342
Pb 14.928781014435582 15.38522926969941 16.62420389024478
