18
Energy = -58.26787966 eV
Pb 13.590982679015449 11.721924829926156 15.487666135265274
Pb 10.235339050319602 11.106657636721332 15.281470169062386
Pb 11.103170730114453 14.028678187269739 15.563035249350133
Pb 13.923674729323805 15.158619802876451 15.357693391118529
Pb 12.599198467520969 9.170869324041151 13.75446214758806
Pb 9.281936093765454 13.208030864931997 12.738135001865007
Pb 12.035072628623261 15.628303469449376 12.767057306052846
Pb 15.476275596520152 14.233300523521507 12.826977089798453
Pb 15.441611971300157 10.704026307750677 12.898711909387268
Pb 12.652355408567516 12.337832272040131 12.091366053524844
Pb 12.988385996726922 12.698165552743435 8.406502116919805
Pb 10.345436853919642 11.282833058849297 9.806066356988456
Pb 13.796797620741774 9.911256676258803 9.87808189962628
Pb 10.647739157954462 14.524005630867538 10.030931831698457
Pb 13.961638195264838 15.200476567122841 10.11359653238657
Pb 15.761025722601078 12.415185530860679 10.20790317483592
Pb 9.443912585894083 9.753135496807282 12.650558353126852
Pb 11.264918931578297 8.300380446129699 10.690977210956849
