16
Energy = -51.77949122 eV
Pb 11.42519731739474 12.541018160561823 8.70261224242258
Pb 13.323695376257966 11.202749627856866 11.368095928445342
Pb 10.598880295949996 15.191356317510866 10.36117760612229
Pb 8.330605327286156 13.696516907431764 8.568041621627462
Pb 11.73045035614058 9.165920417361036 9.552085656382197
Pb 9.303385092998875 9.41494033045498 11.912899449886517
Pb 15.072749426845132 8.44522055446482 11.213361052703887
Pb 8.863708707607316 10.523084467040805 8.870604342275541
Pb 6.68315573068743 11.954834367334021 10.789952942178768
Pb 16.39522844796894 11.111157383595746 12.163654669439973
Pb 12.175673526632654 8.086941199683345 12.607507854608984
Pb 7.6432444524359795 14.845633978082436 11.525182122810135
Pb 14.237339230549695 12.67891144258578 13.917807245325081
Pb 9.781374443842399 12.513737342118082 11.656326901390134
Pb 14.56491588134123 9.465963090019386 14.278391399502134
Pb 11.566978124314035 10.858596152150712 14.20888070313209
