16
Energy = -51.18732589 eV
Pb 13.141403994038829 15.983586652534656 11.990318701723938
Pb 15.172337297773899 15.063834742862669 14.587803554751657
Pb 13.68624989582329 14.80392836143069 17.33445345674818
Pb 12.158686419249278 16.36151183364231 14.950127817968536
Pb 11.304763191809412 14.3135162494847 9.805767746396445
Pb 10.412420913084613 14.220819973307824 12.99395721390127
Pb 10.961828093526906 13.601753542631629 16.130993299041137
Pb 13.544899086328183 12.921848098960462 12.434376431848122
Pb 10.282602249680483 11.569669762977266 10.822266863317251
Pb 13.289452733881244 11.736839738761901 9.139548408862911
Pb 16.465896737685952 12.24823644210709 14.016988336913787
Pb 15.900481219649249 11.25035656054149 11.026900678300517
Pb 13.899107963202079 12.096689525968637 15.748457272790445
Pb 11.490443582029354 9.202214658341237 9.314782555469012
Pb 11.297232032134682 11.095022567317987 13.993030911421577
Pb 13.320861537553064 9.676247630666762 11.820366202779255
