13
Energy = -40.9283318 eV
Pb 7.844493246151105 12.211988644922627 9.847239072943799
Pb 7.91496965904814 8.931975109311102 10.096840857642702
Pb 11.184060734274265 7.628020181601949 8.885745695053437
Pb 6.458210899472639 7.148096844838634 7.768324752911637
Pb 10.232227547820013 7.585003426067904 12.03440428826278
Pb 9.73386344297989 10.854270454962164 12.025397004821427
Pb 8.831771997157105 9.026167790085843 6.5110362163944355
Pb 8.618470476944115 12.102111039208602 6.654078836834001
Pb 8.724873333535287 5.756750985814035 9.938371090954897
Pb 10.726918893029227 11.014257388533439 8.881177055042848
Pb 6.10195162426346 10.354960563752549 7.6882870635818925
Pb 9.293609954033458 6.004840262500963 6.7387738099148695
Pb 12.540542691291552 9.587521808400314 11.136289056259795
