12
Energy = -38.47404713 eV
Pb 11.336654288032776 13.085073693966622 14.051963953883035
Pb 14.071247657126364 12.218456606065214 12.551007005115626
Pb 12.375538450761628 10.119527883074815 14.409300049356027
Pb 11.736549187680774 13.186820991056837 10.641014747462835
Pb 9.392824862291647 10.617505768868446 13.304316704968157
Pb 8.824096060342004 13.427785096835494 11.937216654070141
Pb 11.154579451439806 8.483032174413978 11.727709272511003
Pb 9.34772719250305 13.828308801042343 8.798243531361257
Pb 14.290023259065494 9.037183953899108 12.138212314361509
Pb 13.029837600614746 10.394744395604611 9.691109050015614
Pb 9.531693974600396 10.700764603021327 9.949931147271249
Pb 11.415894947536689 11.948718059172887 7.500412496261091
