18
Energy = -58.04269854 eV
Pb 15.296735193559035 10.86548553726965 12.360283401074051
Pb 13.398589103554704 10.155363712319332 14.668927715023141
Pb 12.562011255543434 8.581117994149793 11.441755650918019
Pb 14.560136612840374 10.067265766728989 9.431710540976669
Pb 14.712944958847425 13.43563654357991 10.315687764917891
Pb 13.536996766259533 13.55264098747377 13.80006964449302
Pb 10.61719663864832 11.898271933762118 15.279118789254717
Pb 10.739158743171458 8.626036845930617 14.070264141108618
Pb 11.844494856800134 11.835914805204023 11.863754613605662
Pb 11.276188721201086 10.577794674649303 8.704833878746793
Pb 12.123294560275449 15.37048628643281 11.146262598741
Pb 10.2175192215942 14.656849665777518 13.446678759743241
Pb 8.03393066499364 9.890027206572116 14.608564496375847
Pb 14.058869297410089 12.161918077029902 7.295572158944525
Pb 8.019097943904654 12.47714477012965 13.024564745992679
Pb 9.146200416032626 9.77492568727078 11.291800962230633
Pb 11.842238554511312 13.919790665757859 8.393106465321647
Pb 9.284933869548238 13.219218093109792 10.183417722369057
