14
Energy = -44.90831561 eV
Pb 13.781347071163928 12.451337944564859 14.537618122608604
Pb 11.136421482130745 10.255579559863627 14.806531639677388
Pb 12.760956848102847 15.390217949711861 13.221623849238679
Pb 13.724852409764962 13.201955446203453 11.322177853385204
Pb 14.177063248827176 9.424089058117216 14.894753734365148
Pb 10.671215140184342 13.128649392572914 13.499723022319275
Pb 15.097295201036037 10.429723657573174 12.047730485254315
Pb 8.308727679213261 13.382086925624785 11.504469026390076
Pb 10.839535058704106 15.098410662245904 10.63621340878541
Pb 12.475003611387907 8.483487436017422 12.371195055960124
Pb 12.665519267656139 10.516375177777087 9.792967761164764
Pb 12.732383175726932 13.715272716713129 8.455942235671493
Pb 9.882933503745674 10.389761804361331 11.760081123428833
Pb 10.004590373954867 12.33198030147147 9.087212726917038
