11
Energy = -34.83168801 eV
Pb 6.961371339819316 6.843741454788577 11.910330777548102
Pb 6.942119359501382 11.384410571347322 8.987859711994242
Pb 8.938002106177512 11.589794663847892 6.4767663001080855
Pb 8.433275963888308 9.660174805535544 11.360585839866703
Pb 8.788732621457505 8.72742506684566 7.53830072404172
Pb 11.754771596965558 10.007512806435157 7.156619897745893
Pb 11.637860710019853 9.035027442896146 10.47689659445871
Pb 10.14760903825447 11.689187035276886 9.39700237676436
Pb 9.33989436774615 6.548846649711826 10.036291534360796
Pb 11.589893479962935 6.9855123612636 8.049655657257498
Pb 6.205239416206602 8.267137478923821 9.34845991210931
