15
Energy = -47.78179155 eV
Pb 9.215660687517131 9.21577958718301 9.215605654731295
Pb 12.52152291873137 8.872184152141882 9.229398859597676
Pb 5.910073774458836 9.559442002143985 9.20209867454311
Pb 10.63011036140369 12.209536420059392 9.204244644499287
Pb 7.422917110030717 12.391966182923554 9.192118640838725
Pb 11.008761386220543 6.0395152422881795 9.2394184468855
Pb 7.801624216814715 6.222067835918445 9.227190793153772
Pb 8.274109783964247 10.897958927942009 11.90833831234927
Pb 11.460173357330905 10.49202681315232 11.791993335430478
Pb 10.138206599631102 7.5642997904717015 11.932651802236238
Pb 6.952809563537337 7.969041927623192 11.789903075420442
Pb 8.293338883202305 10.867080454186706 6.498976111190885
Pb 11.478690658340463 10.462465135951916 6.641588336068838
Pb 10.15723220037959 7.533649716563724 6.523400985956469
Pb 6.971341159790727 7.9395584728039275 6.639644665744763
