13
Energy = -41.19379361 eV
Pb 14.053711884633028 11.58481914072255 10.221854011443924
Pb 12.657382634355878 8.569385121538833 10.712171348727345
Pb 13.234179220429759 10.59871524382544 13.1928005171549
Pb 12.123259714118882 10.265905766518276 7.867397657565607
Pb 12.53434506572491 13.644702486635488 12.16215455101732
Pb 11.662961708114757 13.416790301071812 8.833621395772726
Pb 10.549365803829412 11.36598968258124 10.89410694087986
Pb 10.616881829754075 12.048774301134033 14.390339181541874
Pb 9.838539919190392 8.328268647776117 9.117894542160032
Pb 9.08988054077023 11.303302239448238 7.950786875782662
Pb 9.99067274946117 8.89881540005625 12.73482748515861
Pb 7.976901744779236 11.569626181511145 12.94411357876737
Pb 7.355203331330048 9.90990103622451 10.447551615255652
