18
Energy = -58.36716176 eV
Pb 12.67450748234627 14.383136319902572 10.836090951982179
Pb 6.75781801033383 9.356318579776397 13.011935583231873
Pb 14.0998883162318 13.62267519185483 8.160419102615887
Pb 12.244823153130218 11.17515301932266 8.857278095481046
Pb 9.123935706321406 7.336924308225049 12.130725208006176
Pb 15.837483957919957 10.809657958034862 12.377528377006406
Pb 7.799870628849485 12.41080008661739 12.916337661927558
Pb 15.597318240984194 10.960998347436076 9.131897280967012
Pb 9.833040060012644 9.967959695801046 13.941779527481549
Pb 15.86090766495373 13.673327923010097 10.883974477451831
Pb 12.606249300324857 11.103716787219819 12.286658854809257
Pb 6.890656566232781 8.135891642766943 10.0249713520148
Pb 9.646673673379427 13.165113292016725 10.18970707289381
Pb 9.317359165672293 10.083972678535726 10.66667719014701
Pb 14.216628899367814 13.44714673684774 13.578524835427334
Pb 6.278255710183189 11.210881532887536 10.353713536140456
Pb 10.751611517478027 13.505622185084384 13.331304612429559
Pb 13.70683953921255 8.894571307594786 10.564343872921054
