16
Energy = -51.74513691 eV
Pb 14.335013337393029 14.535992879725951 9.475634244288866
Pb 13.590329774387232 13.074120902324593 12.304369385472569
Pb 10.62856705365365 13.584768479983 14.688472773199809
Pb 9.985073722544405 14.137682715160393 11.622177219350586
Pb 15.803670560050872 11.84091854091276 10.161392431127682
Pb 14.663805074439228 12.354126057739197 7.231627161861721
Pb 12.393986857184327 11.890154546841504 9.457713814227922
Pb 7.654319930455234 12.687060952633354 13.571469227756568
Pb 14.46975513474196 9.499930972822632 8.541291009662999
Pb 10.75606163997513 11.276209489704598 12.620253324581466
Pb 8.22094500921831 11.636767436472093 10.502847474091231
Pb 13.660836175823379 9.814637873968309 11.696335183243615
Pb 7.755529033726467 9.419256923312446 12.900426948815777
Pb 9.327476124703031 10.643989290727568 15.483258773527863
Pb 10.794006736582592 8.329912180323685 13.604328491513078
Pb 10.14668201050117 8.996789370011419 10.55467242447137
