10
Energy = -32.33325145 eV
Pb 5.748919711208485 9.300606284518842 7.280486240773939
Pb 8.294300474520837 7.662432663553139 6.857735582941034
Pb 6.829094255324571 8.350369722352784 9.977576984581667
Pb 8.191060776214872 10.964049935017341 8.060605076356387
Pb 10.60567227749071 9.778959139707121 6.38317392830116
Pb 8.333279299946158 10.846510578848184 11.225445326648428
Pb 11.087809669150493 7.333003673843227 8.39157452865907
Pb 8.494022474069434 5.724841000412137 9.358093236569143
Pb 9.734774925171479 7.968390332585094 11.273847002346905
Pb 10.992361560617503 10.38213188101914 9.50275709282201
