12
Energy = -38.21529898 eV
Pb 11.782395578499488 9.290215011343554 7.16964409250922
Pb 8.810812612479417 8.504022052609207 7.428180835206342
Pb 9.533409772561951 11.710295037231838 7.269323556668139
Pb 6.771355073338715 10.646854928137051 8.434711051675636
Pb 11.070334284533109 7.754647318120606 9.908834933222035
Pb 11.490804821553853 11.104898929382077 9.656512090053742
Pb 7.87912064904254 8.406614184593828 10.5640689022366
Pb 8.417344585893497 11.866079218325048 10.730196162649422
Pb 13.251987623187901 9.803664770814411 11.81575203573507
Pb 9.996397206789347 9.660966341364887 12.443402156152684
Pb 11.361254989604543 12.755713826484685 12.270169018191563
Pb 11.867309514687031 10.728555093764202 14.541731877871083
