11
Energy = -33.83258737 eV
Pb 11.770913426992884 12.354538441130739 13.01757577010999
Pb 9.679576017534458 9.72423531422266 13.486152300054963
Pb 8.563286233701978 12.543568002445214 12.12676214153497
Pb 12.731489446496756 9.149637182084962 12.449840776391015
Pb 13.678024106615402 11.580867603507214 10.396585281992548
Pb 10.649324624382013 10.720443254757688 10.604041462416243
Pb 8.509886661443007 12.180137956746218 8.825832695342022
Pb 7.709488767814206 9.541379114202448 10.844719282961318
Pb 11.656649427554996 11.592699337457056 7.762835566696901
Pb 12.572999477736547 8.630919139026037 9.19240683266536
Pb 9.496463378172324 9.065362796139645 8.125495544842812
