12
Energy = -38.40805761 eV
Pb 13.464728846437671 12.996004487152609 12.170851411585401
Pb 13.04744294179496 11.419809537186707 14.923184069773802
Pb 13.725568739435127 10.883709594549028 9.629728726495317
Pb 10.402530727562974 12.197661555513182 13.561146569667283
Pb 10.983711399141026 12.604318896514842 10.362169360681094
Pb 12.853815652213227 9.759708657778617 12.455956903819002
Pb 11.538118630552232 8.36310928506074 9.891982050604737
Pb 11.20212960142732 10.70932614132648 7.633352324306672
Pb 9.586692935791879 9.145302942605335 12.363011332686986
Pb 8.648576643365463 12.635641535380199 8.449324488771085
Pb 7.955987270966199 11.732518280841884 11.503951172276759
Pb 8.58258961448507 9.54617262266219 9.153881678428887
