14
Energy = -44.94446671 eV
Pb 8.26730824888945 8.85477630892183 8.259313650821655
Pb 7.4561889367318654 9.732494427256626 11.299628565246625
Pb 9.757209491368936 8.906707057704226 13.63491120737594
Pb 11.695318176275817 8.976709912293458 7.899033051823757
Pb 10.45052798912887 10.389237151539792 10.635982779877615
Pb 12.60432810540617 8.362290678110375 12.193603263776843
Pb 9.721590911467707 10.82183126618339 6.299290498995315
Pb 8.434596903928387 12.261150090790439 8.775945648126894
Pb 8.979058303944097 12.01328047816165 13.16151132007473
Pb 11.796525760143181 12.420592417940007 8.021235758282183
Pb 11.110933291482414 13.426483734968565 11.052977292855198
Pb 12.120699000231701 11.295883521485186 13.475516519365437
Pb 13.517034854959546 11.00276600161318 10.409267627750337
Pb 9.862587989456857 7.309704953030976 10.655690797334598
