11
Energy = -35.35326778 eV
Pb 12.448960853972915 8.81116284832142 11.326993575782392
Pb 10.183287715036595 8.297926056553496 9.259728388592357
Pb 8.365140199432954 7.041194456823645 7.070944013105515
Pb 9.31286340928665 11.968945356635624 8.562957058237615
Pb 6.916093413023538 9.873231276295826 7.80218293346748
Pb 7.1699649975039685 7.37678062137506 10.00084768739879
Pb 12.270330974265814 10.71110041166545 8.782849465061147
Pb 9.924089613519063 9.718655411199082 6.352274250201517
Pb 7.4800380457532505 10.439011914533312 10.963501836765925
Pb 10.536275138099345 11.452222569485734 11.54402592804969
Pb 9.493666621813327 8.410480040526096 12.434405872484046
