14
Energy = -45.07659873 eV
Pb 9.421284208350967 10.587710089793696 7.9144304606781875
Pb 12.09304392178397 9.17301436976896 9.103787227882869
Pb 6.101175972338917 9.513093442164424 8.145233814691734
Pb 10.958143935599816 12.368975586175816 10.088599016932319
Pb 7.670333931603553 11.898934272055577 10.131161826005203
Pb 9.924255935196626 6.581848091160824 9.122285641050196
Pb 6.575851363958304 6.535637043452176 9.53145016848622
Pb 9.482531131515355 11.010172359490282 12.68404480076034
Pb 12.619493933920317 10.447792527888316 11.930657492474447
Pb 10.796030655499813 7.9695630434728555 12.084565958804932
Pb 8.032016523501733 8.818942557801092 10.848374123844529
Pb 7.902677032639255 9.872227298008907 5.3899676929994405
Pb 10.665497916220566 8.121726136315031 6.288818281837756
Pb 7.7096964517178845 7.0523945732200986 6.688655188935909
