12
Energy = -38.51134967 eV
Pb 9.527488030172586 9.976618999911732 6.5435876052606625
Pb 8.360056813239527 12.639183331154507 7.6994525294487595
Pb 11.293991879895394 8.38888075165707 8.526838987745945
Pb 11.28303710466329 11.790053581490177 8.587816619156582
Pb 13.483993919217781 10.081466833265875 10.157740265630249
Pb 8.354466194351783 9.919398509926689 9.493636940435598
Pb 8.859506440606806 13.037473081492445 10.731408053462324
Pb 11.443674261265745 11.922860545203427 12.254717348547329
Pb 8.383026799638028 10.500096973612624 12.649524010011767
Pb 10.967460528526134 8.405498532949693 11.717647754682588
Pb 10.690272149289202 9.771598338336426 14.572187914667136
Pb 13.524627735572501 9.738472377438415 13.237043827390146
