19
Energy = -61.43981617 eV
Pb 12.949740439426185 12.807751036239369 8.42076853003461
Pb 9.040593742909092 8.573076363969076 9.55027507900282
Pb 9.892081145605685 11.90085065430706 8.673077701202983
Pb 12.377988581701006 9.525277858115809 9.217406413749403
Pb 7.154801063222869 11.047882636056064 9.918727605686547
Pb 11.131693997215459 14.941288877476701 10.12116297277542
Pb 15.161892999097976 11.233341708435203 10.234592491976597
Pb 14.317529137668014 14.458463819261011 10.691262714616625
Pb 11.253899719015537 7.706298133027984 11.794570634909167
Pb 8.588228951391095 13.50281218414614 11.398921515747622
Pb 12.295888696044711 12.079777314561872 11.953444383664563
Pb 14.101429578207224 8.886791394898593 12.061223329618395
Pb 9.347696963201042 10.28848990783015 12.110517178345692
Pb 14.37236871519451 14.512961024900163 13.828191967645937
Pb 11.05627582788289 14.917181661191377 13.444941547623987
Pb 14.982529118159015 11.278304673541639 14.003007464616891
Pb 9.571847603138126 12.147433287316131 14.622555993869783
Pb 12.10427611789753 9.648624906361107 14.621183811241828
Pb 12.506561625711361 12.750716581054014 15.54149268636015
