16
Energy = -52.03443383 eV
Pb 9.542376180617476 8.772193385494045 6.701752491349605
Pb 12.114475704767708 10.831980672642585 6.808600045760484
Pb 9.170769817243436 11.824065307276076 7.630590080353275
Pb 12.43229771357772 7.746013296970922 7.723596572044036
Pb 7.628565164199061 9.264625526037861 9.26794185794325
Pb 11.914142737006886 12.691174408495762 9.455905927247253
Pb 13.903968098690749 10.08238279175342 9.43249195458239
Pb 9.743823922328982 6.7520649708605385 9.256945170116651
Pb 9.281499188827052 11.515062436359717 10.788023332344867
Pb 12.429211454881868 7.574539794095403 10.913981793376756
Pb 9.458892113435162 8.45647819160859 12.086972353054175
Pb 7.730037073229032 13.373302407694203 12.730790720156797
Pb 6.766964708140886 10.41362864584435 12.551057479831863
Pb 12.149006533182998 10.59742150272637 12.20155523341968
Pb 10.83605301110932 13.624293875410537 12.753385017587526
Pb 9.475450887925502 11.058307095894046 14.273944279995229
