16
Energy = -52.26197029 eV
Pb 14.083559351773806 12.223077808257111 14.264811098400234
Pb 14.516498899880908 9.453997457268372 12.023369754364753
Pb 8.717947316700648 10.720646685970769 13.555613511749511
Pb 12.340767938554672 8.931285840587577 9.868712957411018
Pb 11.620165918304657 9.218302418523555 13.625450598213343
Pb 11.005246792366652 12.090727903750842 15.379879822519836
Pb 16.071743790582826 12.132484362345954 11.715421627093752
Pb 12.056742533806421 14.838509738433876 13.850208955325451
Pb 9.039301654437764 13.98622224256965 13.395618747547235
Pb 14.057936343188732 14.49018557272054 11.486811706485202
Pb 11.595603679944288 11.843978712970296 11.8889972454922
Pb 9.311297251088373 9.30826589247369 10.716470371106745
Pb 13.993628379058473 11.654740553290793 9.32220685291889
Pb 10.867984549853853 14.565600252556887 10.431096016158536
Pb 8.4147786711814 12.43394047177347 10.613489254664598
Pb 10.764484648087748 11.575164774939013 8.581073419382015
