15
Energy = -49.34842552 eV
Pb 7.540220331289047 10.1259024405815 9.307137894165566
Pb 9.907928468901023 11.032682517861051 7.2932290617911955
Pb 12.757294178854275 9.5550613797411 8.083260716966672
Pb 12.264779753598205 8.199481961189356 11.380295631538825
Pb 12.464458930282468 13.696171396951373 11.520980774256174
Pb 10.128677236494978 9.516577293927348 13.99420588227283
Pb 14.243431065502367 11.104069662461455 10.508604768215314
Pb 10.723385243814855 10.726907697514145 10.725795679933702
Pb 12.370237403668435 12.818946389461422 8.401328335162136
Pb 8.641883296241092 7.985766016354919 11.561496105803302
Pb 12.932194291799881 11.064791865216993 13.465046742079746
Pb 7.638332680921337 11.018610583291228 12.417069086902474
Pb 9.188087693388335 13.248658397160899 10.073719794727046
Pb 9.967081875229956 8.002453307351802 8.60612296062631
Pb 10.11006774209812 12.781979283019508 13.539766757643829
