10
Energy = -31.13596308 eV
Pb 8.113143636881539 9.972916958795244 7.448450519248587
Pb 9.118827728038717 6.998264051117626 7.9075610365505495
Pb 10.463013043367278 12.27105084278026 8.321288425604669
Pb 11.069897254724417 9.123443322584492 9.010350758414077
Pb 8.595145540621209 10.537123011417002 10.647635404653494
Pb 10.458634438119297 12.872914198118321 11.436378789715723
Pb 6.72606132405699 8.211418631488602 9.844351061413803
Pb 13.0189851039199 11.239752507773964 10.132377629549605
Pb 11.281588251097585 9.827042051478747 12.383456600346776
Pb 9.447570625377057 7.238941370649481 11.161016720706835
