17
Energy = -55.22556535 eV
Pb 13.001971108662817 11.931466626787753 9.106801295570424
Pb 13.119422081029372 9.053383706183746 10.904374526507812
Pb 9.397516058760125 11.84135038008175 8.947006454899855
Pb 11.416554061714292 9.248427684997681 8.069926752834991
Pb 8.275325441873925 8.613900178129779 8.396914133919369
Pb 11.210819518123836 14.225226934858728 10.831888093861673
Pb 12.557163639299368 11.744612621663132 12.551695909449508
Pb 6.570088571404778 10.629033161226808 10.233440357944374
Pb 10.478595585934631 7.015341503218871 10.235363793252834
Pb 7.375522595250845 7.615422905128681 11.3206138558153
Pb 15.585656895632324 11.197976365467918 11.125927417755397
Pb 7.042867853153148 10.011992798127315 13.347910488053582
Pb 12.830104669075007 14.70097223710894 13.651712789088768
Pb 14.49027612752186 14.210034100985977 10.942389796339619
Pb 8.624618132186507 12.511304655839707 12.07493669628163
Pb 15.350724405766117 12.872205685380122 13.759758196892578
Pb 9.80510401054525 9.709679210747296 11.63167019746712
