10
Energy = -32.31450463 eV
Pb 8.613843648835347 13.625041468932931 9.486483400267094
Pb 9.177396029949932 12.359290949740583 12.723077563131847
Pb 13.353598577032468 10.778101297861841 9.783104667871818
Pb 11.407379715802499 13.214665156744013 10.529856308973148
Pb 12.841959034184752 8.44682088786474 11.882694656791854
Pb 10.957814213192092 8.614204515069495 9.34335862941545
Pb 8.60005469605557 10.671641206255043 10.024070702163842
Pb 9.828764520094646 9.179526476663137 12.573562144332705
Pb 10.853062422611417 11.485765958398183 7.846083665006945
Pb 12.229026882160934 11.340373596323563 13.001879333675776
