13
Energy = -41.36684427 eV
Pb 8.663426456684862 10.364524061802665 13.507547081829095
Pb 10.014075765543653 7.640320197112017 12.511730735413499
Pb 13.001134339168514 8.36092079573972 11.608074533699625
Pb 8.635342911739196 12.738924603501463 11.232928315796519
Pb 11.262616296972388 10.976651551829027 11.894109949692833
Pb 13.16310789018678 10.712341475121143 9.32712241381772
Pb 11.099470355257978 13.242903921842103 9.12706262143512
Pb 11.138592969227293 8.21146858337477 9.108236292859072
Pb 11.00612881309383 10.989403990637559 6.872408867351706
Pb 7.807766604973896 9.723493879579378 10.545410040417911
Pb 8.451317986780207 6.7383466439115605 9.873733332966959
Pb 8.293029953359744 12.212783631078628 8.022169902490445
Pb 8.489058877119568 8.98657261615581 7.47643173123757
