13
Energy = -39.87516547 eV
Pb 12.179040098411864 11.998696763161254 8.326366517619013
Pb 14.100507374152135 9.797476510000108 12.784940189041357
Pb 8.903615870908432 7.863395403615834 14.093835627841035
Pb 11.982024164238501 14.316026826059659 10.953428882257507
Pb 9.307179079829574 12.029358050634649 10.41642152738167
Pb 9.558952434027345 13.716660836537358 12.95183226508151
Pb 9.913887412107673 9.740822847579974 8.486595898446247
Pb 14.614177798375165 12.0761655342533 10.788812566208167
Pb 8.939320355530636 8.48357459491517 11.222122649100088
Pb 14.1752371933707 14.269926929732904 8.820183881091868
Pb 11.901968028954274 11.780513212478807 13.233479693496136
Pb 8.708321752975012 10.786025809958009 13.800799553229366
Pb 12.141168400701291 9.420446592140099 10.546386738901779
