15
Energy = -48.65971316 eV
Pb 8.790521855248986 9.552598614190567 6.79271661875616
Pb 9.974189748850105 12.477610707493357 7.793528443255215
Pb 14.295949442294992 10.122329190674915 9.431557546659254
Pb 6.960307601495485 11.436821143072386 8.758636336623436
Pb 11.388195022436948 9.897475512504448 8.724451253650564
Pb 12.659449889297159 12.89892550542346 9.872693916465488
Pb 6.950499454815183 8.232214235660734 9.077272853298012
Pb 9.890195950190545 7.0644996203970765 8.625536861983855
Pb 9.415297148878658 12.030259343345369 10.808809228048359
Pb 8.660673361660843 7.233340322795639 11.602840200376543
Pb 11.95073190919459 7.896561533913343 11.145721286014293
Pb 13.155846525844314 10.678942230990147 12.293608288974811
Pb 7.06589904448881 10.03614136194316 11.71454521996276
Pb 11.327217618324692 13.16765314547933 12.834835251651745
Pb 10.105900333077798 9.865502438215179 13.11412160037847
