14
Energy = -45.06895521 eV
Pb 11.412754429432859 14.38325359461533 9.475270737223527
Pb 9.050523030994995 12.216771152342575 8.928214384439052
Pb 12.085595623616042 11.611047500717705 7.8906370069093645
Pb 12.907454490649593 11.913333272090734 11.029153858448058
Pb 9.038094271100743 13.941674902045614 11.657090886607984
Pb 12.06659643569906 14.622665828228792 12.660918735988075
Pb 13.371122687743757 9.07242810972071 9.500233459441564
Pb 13.350594846938016 12.091175664065943 14.267870382939378
Pb 10.167626365087173 9.1948420848902 8.936116520713048
Pb 13.988628641098288 9.304921674856898 12.697584670693852
Pb 10.143745888806539 12.648127110100875 14.395219124839166
Pb 9.09275462431287 10.537047500756303 11.910596594044272
Pb 11.233307847519546 9.61220264797243 14.404733074237132
Pb 11.245194599478877 7.887242857974618 11.675772963245098
