16
Energy = -50.72794743 eV
Pb 14.287889826966346 14.384919258636675 10.480651153499617
Pb 11.499130719938465 14.397476798793194 8.320797377513147
Pb 15.07513594032586 11.292246466393523 11.057085225227082
Pb 12.300609092191353 11.858058406705062 9.800321026723308
Pb 11.476900919537082 15.363670212096654 11.341738590146056
Pb 13.67178086589699 13.190627127928828 13.424501262642869
Pb 12.629163301992437 8.787996085195209 10.902803736550602
Pb 14.322940813042873 9.826046182514583 13.764891926981404
Pb 10.02903732406401 9.85859859803349 8.84794870333445
Pb 10.231383118384631 13.534299196515992 13.619902520077378
Pb 11.516561623752809 8.27723209422403 13.942192265817686
Pb 11.992364603997526 11.265694513840229 15.308715708949583
Pb 9.377398142996581 7.933188256974416 11.498918004364059
Pb 9.207715609491812 13.123795713290615 10.082589432820466
Pb 9.913636353327439 10.720239228919375 12.636848197159786
Pb 7.499079004232626 10.449754531089416 10.424171217774555
