13
Energy = -41.22407077 eV
Pb 16.030305776987444 12.728942086952502 12.989228559670915
Pb 16.07836081512 10.821935073057976 10.536239221058455
Pb 14.116891493370424 13.389930930203482 10.478772543626974
Pb 12.939346054822103 13.779794646427028 13.511903219829797
Pb 13.676037122155796 10.598850847565789 12.665340942351415
Pb 12.969255642420725 10.535922751398811 9.415769986748947
Pb 10.968719237875355 12.539666020604223 11.189563540773014
Pb 10.820804633124032 9.15562095878062 11.761261278203799
Pb 10.827345995348164 11.203915039933554 14.34529591715865
Pb 9.020302612751935 13.77603839111864 13.501176326827244
Pb 9.04924762750881 10.608026323538605 9.454520795568525
Pb 7.850818873943376 13.361110348438357 10.576229747444986
Pb 8.090736772173074 10.806484934526335 12.56428255574068
