11
Energy = -35.23290464 eV
Pb 8.720583533219386 9.3310661976498 12.434550290816507
Pb 9.85592011958304 13.627561644582595 9.616808055580075
Pb 9.805916904156382 12.20303812066061 12.33923949451945
Pb 11.932114058413593 10.5569178233143 13.86252899632084
Pb 7.390242653160324 11.581787559806726 10.426862810721351
Pb 11.632594216949396 8.264457403202105 11.676641119948469
Pb 9.892565112317374 10.2391306304414 9.337964548868099
Pb 12.703248045576256 12.306251218050514 8.981111185834596
Pb 12.65828489834186 13.364709790390402 11.983975906826448
Pb 14.004486956067005 10.516026143884742 11.412259802358076
Pb 12.71032371603131 9.119460538057577 8.81015232361892
