17
Energy = -55.07914995 eV
Pb 11.719140963421175 13.122925802193144 6.858188288926927
Pb 13.286655630246125 10.470371262470191 6.284002997469479
Pb 10.499787659692604 10.183967116016984 7.6810360688776
Pb 12.706883094553612 8.415410520408026 8.943665443846543
Pb 13.569016512648473 11.526338918122057 9.239762331474457
Pb 8.716232837909685 12.625720514681873 8.089941814638356
Pb 11.086908619367202 13.668316306729656 10.103867208997395
Pb 10.485963722592183 10.464769405951573 11.192850087683736
Pb 10.265061224318181 7.235318848130254 10.74748912589895
Pb 7.924051762900811 12.527167328504058 11.208962016499065
Pb 7.594720175068758 9.108514190397965 11.397370411038336
Pb 13.056032322136373 12.031551421988997 12.43733973039372
Pb 10.205163095639216 13.392190311121963 13.413284996883942
Pb 12.728360433988646 8.610198894469317 12.6293500452861
Pb 9.637259474994877 8.020288189754371 13.811142601280341
Pb 8.124811863090978 10.875773641842457 14.059891517315359
Pb 11.29371798260873 10.620944702394741 14.80162268866671
