16
Energy = -50.24534496 eV
Pb 11.429180891964265 14.307724676277704 10.95280651408257
Pb 8.800841384717412 11.858107235469392 13.93207369859595
Pb 15.574628123349184 12.070256825115594 11.133944334075403
Pb 15.068507285508016 15.077105206175174 16.622930025427028
Pb 11.741767858408558 11.682790278064429 13.195692920329225
Pb 12.459696157285931 11.348358287450916 9.823350378839868
Pb 10.0874090501677 14.161204186284802 15.464010131290346
Pb 9.37121911584678 12.131158471882252 10.757667107579882
Pb 16.233009717755994 14.657900179826783 13.643643820957275
Pb 14.826793460932665 11.933060025715253 14.610199389634458
Pb 12.697827113586067 13.03465728186726 16.729482537049407
Pb 13.998811651016323 9.751892998127781 12.250166010445922
Pb 13.971532588617883 14.193000487626577 9.24964781182481
Pb 16.753109792946027 14.794870742176625 10.645520533205776
Pb 13.069837339245916 14.71072292801526 13.61775465058439
Pb 12.156913187023981 16.297645452729146 16.12927194901668
