19
Energy = -62.05715477 eV
Pb 12.501762703061875 9.584686361723609 6.510105750931536
Pb 12.648861400431377 12.805584785041162 6.6871323480418665
Pb 10.003814603304564 11.231865638629657 7.787742596659671
Pb 15.308213928966756 11.097328008186745 7.244930863344136
Pb 7.28513597934337 9.643675725736186 10.034937721036583
Pb 10.318917289436184 8.211411622695547 9.298765125883829
Pb 11.334138134699817 13.658326370108279 9.617211724089156
Pb 13.050628780031884 10.555930718614798 9.424333756670821
Pb 14.586824513215609 13.577722117655087 9.14522915270614
Pb 8.54648859341779 7.172460882399008 11.811160631395135
Pb 11.791414276800664 8.253018674849764 12.21981292385509
Pb 10.065140688736328 10.780297294074733 11.320229437045061
Pb 13.381425414435993 12.291117122056393 11.967856445211636
Pb 7.411464773811121 12.392048005839754 11.916690132021236
Pb 6.721012591035714 9.502212264120882 13.240944548470766
Pb 10.356254445390213 13.537047472243433 12.972720585433825
Pb 9.520549191147996 8.415612759011191 14.58302443605107
Pb 11.71238504998356 10.796989536080877 14.392745396152828
Pb 8.533980353094863 11.57107735127795 14.90283913534483
