17
Energy = -55.14917148 eV
Pb 10.134509477900794 12.800142433143673 6.545948801409677
Pb 13.089939626257747 12.061672777451093 7.348269586296912
Pb 11.561027434453894 14.163862168267242 9.210562316114569
Pb 13.440697442785199 9.171677683605505 8.576037651503274
Pb 10.831653380903742 9.697598553767047 6.717504045494121
Pb 8.390056519881329 13.933941463701338 8.908848983754538
Pb 8.149554177187422 10.78931051831269 8.313388831733272
Pb 10.60411249163649 9.409154888532662 9.945770084323577
Pb 7.718137119621534 9.421860019768348 11.436967350445816
Pb 9.796013571075685 12.178092304423236 11.165609114217506
Pb 10.026931633868283 7.054033714038736 11.955728666852663
Pb 12.976383276347956 8.54710345191972 12.222795672372667
Pb 13.009748762143317 11.62292353154362 10.725359419912058
Pb 9.172287823433503 11.299041882540786 14.170073502441076
Pb 12.396329302866238 11.189631360389738 13.935033493848607
Pb 10.946705099212902 8.548802640906056 14.744076546289914
Pb 7.939998691907141 8.295236439171838 14.262111764472932
