12
Energy = -37.72993338 eV
Pb 15.756770397973362 12.004414537294492 13.371637033574617
Pb 12.967721647792514 13.454265624116175 13.294533816394662
Pb 11.616518790922742 15.117500774671765 10.961196781867834
Pb 12.306520961668971 12.252536278511947 9.781130156720728
Pb 13.989137898425566 10.118602587823036 11.935594236380771
Pb 13.36003801396853 10.762921183172372 15.029766500010027
Pb 9.452555350861624 12.945540709416097 12.0339409986511
Pb 10.497494940441255 11.891632442374867 14.862876453079808
Pb 10.654950420881882 9.75727573343135 12.623485190741558
Pb 11.968208823432372 9.093640654806546 9.900159465480446
Pb 9.231928014209366 10.865582287206287 9.491540493445333
Pb 9.544294725426685 13.834549861886542 8.997298874357297
