14
Energy = -45.01857547 eV
Pb 7.543118345226243 7.1532288998005695 13.253918058049548
Pb 8.9914474786581 10.140811580774454 12.749885161743736
Pb 13.03304977148479 12.363976901141227 9.275873433272762
Pb 10.05441158306359 10.479365981953729 8.102474694062417
Pb 10.497389763341678 7.130049225017647 12.259210364447538
Pb 11.059275888586514 7.30606349922983 9.149275909823553
Pb 10.458129230863277 13.728810827515979 7.923606322272364
Pb 5.984222218096657 9.459521399918591 11.865472216393822
Pb 7.536915977285294 11.32981046943499 9.874788070176084
Pb 10.25029547271188 12.737505219181644 10.955565992445672
Pb 12.036762501733369 9.831940432397449 11.147999029173226
Pb 8.082546915543297 7.895831295008331 10.13541921504378
Pb 13.102905820374925 9.386476464185673 7.962189025412413
Pb 12.200314248977078 11.88739302038644 6.175107723629637
