11
Energy = -34.84164285 eV
Pb 8.960092051336877 10.39565138341201 6.130799662554158
Pb 8.545633849207297 12.39975568459806 8.480430615362673
Pb 9.901146474353753 7.553696150194219 7.014475565627433
Pb 11.097640725037838 10.471372361944788 8.610117662462395
Pb 7.717318437968288 9.00822214407886 8.82257928724972
Pb 12.604021520358668 7.753069561052491 9.137163377754042
Pb 9.875362384805012 6.678314881166627 10.149831361871358
Pb 9.568741929702412 11.679080962418036 11.466940353386414
Pb 6.584771378891037 10.981258942735405 10.966891461865625
Pb 8.357121564066226 8.630338472182778 12.167545613972441
Pb 11.490252417073595 9.15134218901759 11.755327770694738
