16
Energy = -52.26534516 eV
Pb 15.686562043726076 9.872788934504852 11.497680940238
Pb 15.392854327506827 12.280856264269856 13.428667008485302
Pb 13.32198663636672 14.888720499932548 13.06726042007607
Pb 14.634880256058063 12.524265538984167 9.963090001742673
Pb 11.791236777338364 11.785413458520626 8.507052383233944
Pb 13.267776409439927 9.421134961830585 13.607536297372492
Pb 13.136118525488987 12.136414211244459 15.550334426047051
Pb 12.235656932823014 14.789535562602206 9.76171685981728
Pb 10.027439497821314 9.853100007943288 11.424240228198038
Pb 10.181980010988656 15.250044438089205 12.18476597975071
Pb 11.927233454015767 12.240603118138937 12.123535457259258
Pb 13.01028417196347 9.367422678452968 10.011956248495228
Pb 9.261146002393435 13.120040140821828 9.881839354532914
Pb 8.52660534523779 12.336285462990402 12.922101507927838
Pb 10.391224060229547 10.468395271996542 14.78281382619019
Pb 10.499014853142079 13.829576210728366 15.075687027392107
