14
Energy = -44.70456023 eV
Pb 14.846985304819679 10.181166740882258 11.091623480244342
Pb 12.787171045222596 9.653679223788961 8.697924281632643
Pb 10.328744622990511 11.810517690824764 8.874481083325572
Pb 13.340770767403265 9.490581880938839 14.033474702573482
Pb 13.939058673070557 14.95579567351517 11.360736934750705
Pb 10.99953897539773 14.566762014645303 10.297124028498338
Pb 11.60826157695831 10.354745266705802 11.43609114874596
Pb 13.540164186707791 12.669224421713258 9.215129994522432
Pb 9.209769076807243 12.557102922380484 12.047166848094266
Pb 11.788969493270752 14.366128550206044 13.55367227797774
Pb 14.608920858749924 12.453514622883072 13.362407321517459
Pb 10.16480735788666 10.121621680365504 14.309422293428925
Pb 12.462298953215718 11.95267616278924 15.821976892239892
Pb 9.519193603195095 13.041244343541614 15.237507632123164
