18
Energy = -58.73876096 eV
Pb 13.269673114123377 13.513761196997821 9.311658807286827
Pb 15.235619183890103 14.059539399239647 12.043367321571234
Pb 14.983462965972146 10.857925586362098 11.44547388789197
Pb 12.772651246062145 16.03158594141126 11.426813931745771
Pb 13.51724121699217 8.065627881206616 11.014361291290268
Pb 10.111405181798325 14.729904900922039 10.141940472022343
Pb 12.799136318254973 10.258247714178728 8.80399649894861
Pb 9.676278191751228 11.498368393291878 9.636243395314905
Pb 12.00665535082593 12.606618668446497 12.087513898054366
Pb 13.206749973752677 14.968872493259873 14.522457086430382
Pb 10.467051184049787 8.421776850539795 9.95078814981651
Pb 12.811150731559724 9.626248818403008 13.96218437738203
Pb 8.44254778136855 12.976673747034562 12.375729363131452
Pb 10.220154869593715 15.366304539189954 13.443501933973263
Pb 14.570208531302859 12.102553356655754 14.607372765069856
Pb 11.016059546780498 7.345249673707949 12.911393918657494
Pb 9.398042502691206 10.03164192318532 12.76990797294762
Pb 10.909459038489818 12.418177327450634 15.019210656949806
