13
Energy = -41.6069195 eV
Pb 12.301643526855704 12.644160825816684 14.177006197179002
Pb 11.904488608409924 14.483661389994182 11.630791129917085
Pb 14.571738953054707 12.598632985799116 11.747397935108882
Pb 9.28804495765828 13.482695835379959 13.258478277744137
Pb 12.804680862737039 9.820042102445356 12.362466293917008
Pb 9.99232004087229 10.405114168290895 14.065510141792293
Pb 7.8090067947747785 10.991393007407892 11.706959092349438
Pb 9.379778273175884 13.279841748587904 9.998105686164099
Pb 9.754155790442105 8.40597415137732 11.528395701508618
Pb 12.345261551680284 11.864342504443993 9.401253658272053
Pb 14.905012626362472 10.031599053204816 9.961731194055226
Pb 9.400480587320853 10.231207272101265 8.96579304486401
Pb 12.21461396535224 8.511855730740669 9.376011596740861
