11
Energy = -35.25885513 eV
Pb 13.967510850070566 12.040563766142775 9.419575810898108
Pb 13.350790093533911 10.729171723820738 12.288115087916893
Pb 10.926162562269218 12.81611382100669 8.89073862003338
Pb 13.155493004364745 7.859303261586547 11.237576314774813
Pb 11.739719476386977 9.726465196571525 9.248340505500142
Pb 12.390886785863215 13.718628502937205 11.628647877264132
Pb 10.503159233625334 9.063557585250578 12.244718569389503
Pb 8.699271373203999 10.685954517822458 9.759718736205766
Pb 9.166659348430677 13.557953756731761 11.495496086986469
Pb 10.94365294551566 12.050341251773155 13.962011435681701
Pb 8.158642265140617 10.92232323983899 12.894076011907046
