14
Energy = -43.53544537 eV
Pb 12.415437750502102 8.146053022373476 9.914117517655672
Pb 12.632858064634208 11.033890772592617 9.537187709832967
Pb 12.695685534026913 14.769246260021829 11.725927216784134
Pb 14.841518758416262 12.52581051682651 12.433606305251502
Pb 13.631431731829613 9.522113967752558 12.486715551844856
Pb 12.161215674150592 13.919341829009271 8.779953396082165
Pb 16.121639251464163 13.287695275998518 15.190239399441495
Pb 13.948874439532192 11.176077980465164 15.532031974810266
Pb 10.223153041911935 9.7525319960324 11.557446503862069
Pb 11.816663525449794 16.709842653409204 13.865115238410413
Pb 13.246219356537052 14.34402225721596 15.186983656869183
Pb 11.584963348625694 11.745390791145745 13.507901629933839
Pb 9.880413290004242 14.253574154357208 13.668706280892124
Pb 9.954135783720405 12.921850842993498 10.676075592251893
