13
Energy = -41.58477555 eV
Pb 12.645739813345404 12.117799186297828 8.392607923399142
Pb 14.775466930873847 10.32639464213043 10.138737521773763
Pb 12.013335953148088 9.05788627408631 9.158531112996304
Pb 12.815066023251894 8.570386197759483 12.262602489850842
Pb 11.487750116211597 14.3401263710627 10.681964385554554
Pb 14.653169464414358 13.549407208437042 10.275842582458312
Pb 12.924559771997188 11.868969651528795 12.379081472640568
Pb 9.847497062811962 11.510460570208894 10.097992535954875
Pb 9.707377179666851 8.532423648690711 11.514722335073962
Pb 8.27888978270135 14.01827966085256 11.312984602249317
Pb 10.58926466975457 10.163347804883147 14.174393431052817
Pb 10.195682685817033 13.312477055791257 13.64532923288201
Pb 7.912500738152114 11.137683094376463 12.726162534388301
