12
Energy = -38.96119655 eV
Pb 10.924721837431406 10.767008142858549 6.78483155218842
Pb 8.227654050721451 9.01592172079299 7.0834751792353545
Pb 11.154976223977929 7.731320794214964 7.859898260308129
Pb 7.926476610336942 12.05718019601532 8.130784119782781
Pb 13.018798277250648 9.818834461395124 9.475972054256811
Pb 10.452381938152197 11.453090152881456 9.724465278480821
Pb 6.638691557774328 9.674307853232008 9.884425207232587
Pb 8.506040098721865 6.978021979586187 9.64878843352556
Pb 11.382519925105656 7.582416377837664 11.136579943128304
Pb 8.148882762742204 11.904014778690543 11.670231505792419
Pb 11.31096425462507 10.512215402521297 12.495501908578845
Pb 8.588532780017305 8.786308456830898 12.38568687434656
