17
Energy = -55.21260091 eV
Pb 16.028983259656734 11.242789340725157 9.950991361274113
Pb 9.765421496513415 13.1282095131909 11.232220667692097
Pb 13.57469317741777 9.443262192917725 9.066594532576465
Pb 6.734548153805132 12.94719178206183 10.235671430953182
Pb 13.061272842374747 12.536278558253173 9.67416714333483
Pb 17.600651644329073 9.61718583949257 12.155398879918218
Pb 15.392257616982798 14.081467160150604 11.208813658367967
Pb 7.802054896230566 15.635400134113628 11.560943254553575
Pb 11.693910215616656 10.25109925137104 11.60357289295986
Pb 14.652155662633028 8.814240535007112 11.960885111115417
Pb 7.070382022527217 13.142756077907373 13.393913082500946
Pb 9.781416702758845 14.819869426778311 13.996309356423549
Pb 8.038500657713703 10.459687930756154 11.858366050007453
Pb 15.819284659425193 11.801377782148135 13.340676262962095
Pb 12.795774333911488 13.06168201191522 12.913154920487
Pb 13.244195069508518 10.260815054320982 14.428850772675831
Pb 9.80637725804828 11.618567078343409 14.281350291650387
