10
Energy = -32.01870139 eV
Pb 6.376687569688693 6.827876517033492 6.733571254542025
Pb 8.76892277667668 5.958096739537036 8.632497827508931
Pb 6.301864191661361 7.875609770839337 9.733533255450057
Pb 9.254112182997009 8.02512513435328 6.099564099631377
Pb 11.26822662607406 7.9908819171936365 8.605910146735136
Pb 9.176011047241047 7.8813876038943995 11.169186984414425
Pb 6.785338483918107 9.940958552220454 7.192783470210019
Pb 7.7737648408688305 10.701135811876647 10.159471809640229
Pb 9.854652700234448 10.804839224940268 7.5876506375618336
Pb 10.916499096579518 10.47016824405133 10.561910675659176
