15
Energy = -48.51686382 eV
Pb 8.88329963218133 9.244666570847452 6.396394439777935
Pb 10.304949856308493 12.024249383053464 6.818306215666487
Pb 7.421872692747818 11.523835140007819 8.29304098287628
Pb 11.820395934182864 9.525309477231028 8.11061953099189
Pb 9.844572895914817 7.041772864378009 8.528551461465359
Pb 6.829035520690596 8.386796392294613 8.661037711693865
Pb 10.28139657212574 11.921318952162505 9.916494103357408
Pb 13.388131711958687 10.991834309019051 10.964456109439578
Pb 8.088328622224957 7.238320148516506 11.302624963013526
Pb 10.71082234399772 8.883198145784734 11.139499879731359
Pb 7.70315246053304 10.409458552494307 11.281514432864872
Pb 12.01399741715855 13.86616508496032 11.694024926290412
Pb 12.693506284831 9.158799363536918 13.576168861455248
Pb 13.482932877138566 12.18681949281781 13.916487447408544
Pb 10.434302735236518 11.498153680126595 13.301476491198077
