13
Energy = -41.73827848 eV
Pb 14.147698989908186 11.28493561531853 10.403840345096338
Pb 12.895114548908301 8.309877198082072 9.99749817091695
Pb 13.246093917585487 9.504462074320562 12.977537521205084
Pb 12.868431262097538 12.742669653535481 13.020082139083717
Pb 11.135317657591038 10.95111423875152 9.197899936501553
Pb 12.244692157804208 13.902254233704882 10.069592070415835
Pb 9.837851802661246 13.563900138941426 12.185619551724942
Pb 10.482571877560778 8.03018224094061 12.11648809358327
Pb 9.050952276621498 13.371293762614622 9.079244485964574
Pb 8.233906826917321 10.629501808092376 7.834589922776659
Pb 10.28280198502569 10.791594444381078 13.73646880385416
Pb 8.29411713364813 10.593570472439723 11.147999454349616
Pb 9.662476239534236 8.117238232228464 9.01417531377386
