19
Energy = -61.6283283 eV
Pb 10.745102309271823 13.231557990904445 7.6516465787941845
Pb 12.283675751412593 10.367468641554797 7.968493567061743
Pb 8.82004131404988 10.705128271505489 7.999814625494026
Pb 10.169732486814004 8.17126922604177 9.258018671019775
Pb 13.434720729968806 13.337395797634946 9.4719520067751
Pb 10.71475809188274 15.101483337788496 10.2545786629033
Pb 8.119433822648697 13.359858491117636 9.709540076897236
Pb 13.08600582499576 8.452785664636723 10.56884192558141
Pb 11.217607004455505 11.291910161580345 11.01900117411488
Pb 8.053082689706521 10.390593412903671 11.252821317893662
Pb 12.775770460663232 14.61701764443829 12.592822119353366
Pb 10.294114075295683 7.816068479237239 12.413184927289173
Pb 14.502813943390038 11.597300732652444 12.157039683132599
Pb 9.274773471344309 13.399142381533945 12.832957999783234
Pb 12.826560800583232 9.15907461286268 13.7234167354962
Pb 9.541754218757463 10.392408089584544 14.197101053235672
Pb 12.048118009354372 12.24193493731038 14.846922876781877
Pb 15.090270376277108 10.606080599309355 15.217922415352351
Pb 14.874364056237217 13.634220964511353 14.736623020149304
