26
Energy = -83.9133707 eV
Pb 14.067458851349201 10.699880975044874 15.730944361636874
Pb 13.820445641442051 8.502332018790678 13.472546204451682
Pb 16.0741166392361 10.757010745055762 13.026668424068948
Pb 15.68427721129045 12.722888927471182 10.315031431990748
Pb 11.094469398768299 10.012584686269662 13.276478377900313
Pb 14.111571076521495 14.779157426269437 13.702850228043486
Pb 16.869051426148484 12.294354269316432 15.849454300429933
Pb 14.345627224502405 13.542901965178306 17.532894903119935
Pb 13.40157281904723 10.037659310184615 10.841041729137388
Pb 13.165605771076097 12.031357536079067 8.50421220157304
Pb 17.499769686411852 13.673913202505467 12.839092903751785
Pb 9.030814127382246 12.397087199731333 13.202391481737207
Pb 10.80804762047852 12.233732573403069 10.634766336411674
Pb 9.473866783679917 14.874520385124029 15.218652338655895
Pb 14.460469126468485 16.405701528570578 19.09515404729882
Pb 15.763856543653 15.998703284950185 11.129835288319429
Pb 12.91409947340026 14.843991009517229 9.845293021761448
Pb 18.960658024078153 14.766865319177693 15.487786746037818
Pb 11.819496776927524 12.832726703754929 14.880885842666984
Pb 10.380218432028183 15.325731712105073 12.04738695806645
Pb 16.94065316082415 15.502076509879114 17.61114730510373
Pb 16.899537781399744 16.813141420945623 14.147778083642017
Pb 12.976837433338954 17.367970715547482 11.850012125154459
Pb 11.81461902275162 15.389022058759748 17.376492741239986
Pb 14.37510569855827 17.14437271495711 16.043683064131535
Pb 11.534064239665893 17.336625791840458 14.623829544097772
