26
Energy = -85.40630783 eV
Pb 15.456866232965496 13.834523579153112 13.086661859415537
Pb 17.478267031041863 11.21312003365869 12.993708709137948
Pb 15.700223321662238 11.311479430843704 15.524457169650589
Pb 12.266383181474634 14.825753643254274 13.352880851643066
Pb 16.587874243750893 12.39376705493118 10.205879834852585
Pb 14.665985676851522 16.73203656728654 14.800835499618913
Pb 13.851876878463099 13.952657701594676 9.990350358867541
Pb 13.491299856943652 17.24731189986993 11.731958914253743
Pb 13.537497385416916 11.04030769510718 12.472020644227886
Pb 11.991891555607564 18.61719062030202 14.346738385583977
Pb 15.117714922356292 8.46231763639479 13.915957773905973
Pb 16.36342721361999 9.238027861887382 10.687738679959168
Pb 12.068493483918312 16.41029121217321 16.71122215060718
Pb 13.659524801911267 7.771197683422567 11.021716362902573
Pb 10.145072166289085 17.518725148058255 11.98250521072838
Pb 9.373111854448286 16.644555907111457 14.994163374006186
Pb 13.692788622253005 13.669477141094424 16.28413058004321
Pb 13.615701323762353 10.61363126166983 9.199765110636847
Pb 11.007027980083762 15.334795603527708 9.934521171399414
Pb 11.780382345737298 8.049113653897155 13.644864919446041
Pb 10.410025195899271 13.550455527836537 15.755776305537946
Pb 12.538399990888534 10.463334148109073 15.610567081920417
Pb 10.101797548750262 11.002055375747432 13.463518305343221
Pb 9.12620469708433 14.227615321388946 12.649640147750878
Pb 10.841447951072302 12.244709853603045 10.351904678807651
Pb 10.743186482877514 9.12451851560549 10.809732763036381
