23
Energy = -74.9643376 eV
Pb 14.060033375638769 14.43768821347532 0.8771018011421837
Pb 11.093487802019647 13.820106028046467 -0.12965244390278025
Pb 15.449974517743483 16.9970616970537 10.515117485525632
Pb 11.991483018002366 17.747451416587626 14.854874616023366
Pb 12.387428823030687 17.84814788342992 11.604110568700111
Pb 14.419877325353553 16.089952887651915 13.455826881902526
Pb 11.440371657682167 12.250708516305574 15.633132622772298
Pb 13.670429614708826 12.582031945449975 12.80832450215868
Pb 13.13396853833047 14.926776837943448 10.370815713617137
Pb 13.437444693993168 11.557828105251877 18.289844316796632
Pb 13.445057293420675 14.407847766761511 16.308639305847624
Pb 16.427830620336334 12.900043148262261 17.884895545117182
Pb 12.36784159014987 16.78067900461689 18.39119466551662
Pb 16.281062763396292 13.693611657175076 10.826283861424656
Pb 10.209416437553454 15.375019357849604 16.157878831015903
Pb 16.68490003485798 10.921259626879394 12.548778249627786
Pb 16.470415302332437 13.793249887677845 14.692259100999724
Pb 11.222533138447409 15.048301825667329 13.00300568895938
Pb 18.329882139116712 11.257140256958134 15.331301869736597
Pb 17.6219217050935 16.094244242179688 12.751254794625332
Pb 15.014112474867417 10.921458520163716 15.435923625283221
Pb 15.568079107648812 16.18431178633788 17.561775969068886
Pb 0.016795114534410654 13.05242034020773 12.725096449477345
