25
Energy = -81.62264616 eV
Pb 15.650094312999121 12.1375160615873 11.028460547364917
Pb 10.572363669799246 13.749424118867609 10.719908285297642
Pb 13.286328801258152 15.479490163917253 11.527957790706541
Pb 13.523856307780356 13.489101585659366 8.991674146976994
Pb 10.257330066745102 16.832216592775566 12.174522146292428
Pb 16.09475962309772 15.116862719399089 9.803951861994392
Pb 12.505394042175029 10.988989970147907 10.723823529652316
Pb 12.855658909482047 18.518044173053184 12.553167185327004
Pb 14.564693572133049 18.261759044693463 15.223972302527448
Pb 15.9934590523784 17.304930361055018 12.319875843804196
Pb 16.59693890947161 11.392901008529124 14.398250900766616
Pb 13.371399503240323 11.034729949709446 13.81287900198782
Pb 14.533018245939644 14.034283024909131 14.051531675463234
Pb 17.57729666914355 14.341955690651977 12.5820160575134
Pb 14.88681694138051 8.642946498754021 15.045235417385388
Pb 11.537653314203013 16.894822826175613 15.122738953404818
Pb 10.320357825830746 11.483102452813979 12.987385258089022
Pb 9.50150526226641 14.335646985456375 13.909389853191083
Pb 15.758901196932769 10.339692018497177 17.535678009154726
Pb 16.920126175475946 16.12826169778849 15.260694487641494
Pb 12.65874303334653 9.994487004510153 16.926908142821645
Pb 11.765915248144253 13.10770344759682 15.874049865847295
Pb 13.971416614911304 15.499652183865095 16.916933477683642
Pb 16.557336412818433 13.327180718047657 16.95415808285413
Pb 13.727168080443692 12.55283149293659 18.543368967649037
