21
Energy = -68.49451273 eV
Pb 10.350424270058378 9.3909158191714 15.854105975962007
Pb 12.991182633196935 10.669816224916882 14.936291755255484
Pb 10.088404395204366 10.33543892171595 12.905878906072465
Pb 15.77032021481726 11.894736076060356 16.04879919906124
Pb 11.053460966446966 14.838562320186464 9.977931123299323
Pb 17.507132540286314 12.127212435526994 13.455511304453518
Pb 9.112319830185777 13.797576595710673 12.575620164279723
Pb 13.075940643301246 16.601883074203904 14.64020136366479
Pb 15.796406415895405 9.51966640778591 13.656344025578868
Pb 15.702424291022114 14.825441136556485 14.37419546495021
Pb 13.123522413345412 13.719433051051384 16.406312018348846
Pb 16.25080391980542 10.906335299462887 10.814824740979182
Pb 13.219629352951372 10.098641011241627 11.645192820509562
Pb 10.111672219563482 15.538664493069602 15.312509101750596
Pb 13.927723596849553 16.040654456739983 11.388873293120755
Pb 16.487867307995717 14.117830798771807 11.182297730322256
Pb 10.13189183175072 12.443946055900401 15.642559801075313
Pb 10.70891558603023 16.718890176186605 12.474641041140975
Pb 13.753070992498484 12.940698173624087 9.737650192124086
Pb 12.350224156265368 13.461331340290593 12.969995772120898
Pb 10.743319821836932 11.675796322949978 10.171162627446927
