23
Energy = -73.89039672 eV
Pb 15.865237513176025 9.629122436478822 16.58622001322723
Pb 17.139083826269623 12.158468897126097 15.178336536303636
Pb 14.996944961534565 14.625175594444622 14.928135234190425
Pb 15.956141002725465 12.857717402048522 12.32539739854124
Pb 13.32784922441959 8.498735310692796 15.209777145789506
Pb 15.951727200330756 9.58162111790153 13.419764674096184
Pb 13.537269497007324 15.333176532235289 12.24421358963599
Pb 13.772432313516784 11.74926342578018 15.461388224192874
Pb 13.909385484808134 16.432272226672353 9.397630392650587
Pb 14.573465777173965 10.171067340203995 10.663017378162674
Pb 14.108582672213739 13.159265844410932 9.487625689831653
Pb 11.489827239745932 10.866229345164545 9.907982709847005
Pb 12.229002408394013 12.258716931238755 12.724778326822864
Pb 11.409263466116734 14.579115757952131 8.448531857985076
Pb 12.206384390596831 8.55620687362152 12.163912174097456
Pb 11.083431827797938 17.714387351045485 9.079748356308576
Pb 11.085072144986533 15.238860868321913 14.274466415492647
Pb 10.346838344165608 9.398117499534838 14.758096060895005
Pb 8.147065461296702 14.11068684494283 12.944426480392709
Pb 8.992990372237026 13.133992415918966 9.96274361711708
Pb 9.704266532254387 12.459925479306033 15.120640713126223
Pb 10.21226022862631 15.846093941161802 11.289994040036307
Pb 9.118189627898566 10.851624386777832 12.244414024419374
