21
Energy = -68.95974086 eV
Pb 12.02179644408683 11.350105025635065 11.872778343272305
Pb 12.222317472377297 9.756671879534393 7.945372179759385
Pb 11.15696601754173 13.944835442665559 13.972902466739905
Pb 11.183957627601117 7.166203231271683 10.165360680674874
Pb 10.935078231070971 13.128688279754664 8.371938912437486
Pb 9.259783835849072 11.270772672160568 13.800415314032959
Pb 9.311162236029276 7.803868671028322 7.6058445822732885
Pb 9.264745883728077 10.815365620900996 6.524118393859263
Pb 12.641338908510628 14.360953744739831 10.905843993243545
Pb 6.761664843032103 9.708282739734479 8.374587523414853
Pb 7.669874077952786 12.810860070221093 8.586156456621042
Pb 14.940197990539083 11.737719534570767 10.60214233025181
Pb 9.714516273027652 10.33100122914943 9.85553067192145
Pb 13.92360790951012 8.660567160210158 10.61629605709784
Pb 9.22424390704934 13.716926289262053 11.327708037696919
Pb 8.039808195624996 7.723776067505847 10.712393733351192
Pb 14.28211793990354 13.21098149251515 13.523534312265763
Pb 14.710600157341089 9.968110616285962 13.45999936015599
Pb 6.982543439635814 10.994475884456103 11.408432192331336
Pb 11.518859470693107 8.4911136890902 13.231514742089757
Pb 12.346753992807669 11.160655513219819 15.249064570422258
