20
Energy = -65.1473703 eV
Pb 13.059957253715607 11.571404480028892 16.504024404406945
Pb 12.853348059712507 16.052343791797714 11.302874140389266
Pb 15.447177279555547 10.369154630149781 14.238136500488455
Pb 11.674033747622108 16.092961265735664 14.466785705844664
Pb 15.108755517892185 15.922585047223757 13.953387561813495
Pb 10.754329154753856 14.001844183818141 17.037193165366368
Pb 16.009235641378016 13.10091330938473 15.849981243314721
Pb 13.51842742878562 12.95764727974458 13.216473947364197
Pb 14.250912578430274 14.810496243639212 8.573903889338764
Pb 17.14286587744234 13.108209773360379 12.899481673608136
Pb 10.199154574584169 14.010744914129242 11.951988583606667
Pb 10.103810635214908 11.733938259069358 14.638160604748078
Pb 13.887584385129193 10.002462505929334 11.270656611065506
Pb 15.822279242170477 12.251698290705878 10.011271298867033
Pb 8.827168293324172 14.674220222348378 14.718367974682819
Pb 16.07533968643527 15.347080584185573 10.975122861355109
Pb 13.65921817612432 14.937191486425224 16.8035397340448
Pb 12.49051841301252 12.68436740281174 9.839592044608098
Pb 12.363140741408431 9.451289462806015 14.024866090792086
Pb 10.611877689938803 10.778581243336141 11.58332634092521
