21
Energy = -68.71078828 eV
Pb 11.860009823742168 8.365614931593258 6.457396223764114
Pb 9.694431328756417 10.675046366780418 6.481284237413384
Pb 12.84243796535955 11.421672418689019 6.794688463754183
Pb 9.285012994987147 7.9468081126047085 8.543361926191935
Pb 14.4516460065792 9.105109117526668 8.312672615716766
Pb 8.164824769237384 13.883840005733706 10.111431900528213
Pb 12.318316642561028 6.83585107329196 9.1755742378211
Pb 10.700403956152691 12.491897944657817 8.937341716892393
Pb 13.827136261979868 11.918823629138311 9.85534121973779
Pb 7.442277601072999 10.855017571287744 8.80744471899047
Pb 10.21657466010639 10.759129936986174 11.563681057682455
Pb 6.485864204833468 11.623832504218699 11.770584099166093
Pb 11.24327918813146 14.104872883385129 11.867785176753117
Pb 7.495890500418881 8.664581652463728 11.279330665090482
Pb 10.505602362735866 7.377638359534328 11.72966842042706
Pb 8.28954731639475 13.755274759631787 13.371245511478769
Pb 13.496838533829 8.901975043782127 11.462258254544759
Pb 13.472822024105765 11.808996170196675 13.059731913961143
Pb 8.275124202144342 10.419847761548949 14.165729893949086
Pb 11.638559299381082 9.270077755913771 14.180141043967382
Pb 10.87581509188469 12.396506735428723 14.655721436563455
