20
Energy = -65.12753217 eV
Pb 9.664094150695313 14.679469692996248 14.38749471966013
Pb 14.345973265289466 11.370587287849553 9.707490364085999
Pb 14.60625239479665 16.34212314055639 15.798416651548145
Pb 14.551046299009665 13.862836044011004 13.762090968092265
Pb 15.149006079039118 13.52387070559731 17.021543356444884
Pb 16.726772406206656 15.397806857058189 11.935245472598572
Pb 14.064855401517582 17.008100331250002 12.611299487700457
Pb 11.174654220912165 15.71386357114141 11.567823767073929
Pb 11.674842065802762 17.045983930765747 14.696792861534846
Pb 11.959424173444452 14.478609836526385 16.868180744658073
Pb 12.872063653031509 9.341665069128933 14.528525320984956
Pb 14.22610168567233 14.793527539024572 10.089941167583964
Pb 11.818495771164777 10.261608516267911 11.479842274381019
Pb 15.670898555721255 10.882265286523106 15.131488982358562
Pb 12.888289036092916 11.323214809688308 16.95571007812213
Pb 16.618013307811392 12.2667561787403 11.921924415525568
Pb 15.000497170759878 9.531146414957012 12.182294530289944
Pb 9.496811111198404 12.828069685869785 11.852062671512492
Pb 11.862407622818672 12.411912888110354 14.007527738943313
Pb 11.719455041616241 13.026535626539117 9.584257839501543
