25
Energy = -81.59557356 eV
Pb 10.587233583124465 9.930602631777052 7.712764869394179
Pb 11.490078810325882 13.053345571365076 8.284681715648178
Pb 14.480659786131506 12.914698463896029 9.665232747483486
Pb 8.260966311178114 11.682823038457366 9.006220995261403
Pb 11.421848921532503 7.585641489896151 9.629043371319936
Pb 11.984592206025392 10.718760792273141 10.653151787214336
Pb 9.44858972251774 14.054589104553195 10.607798101110342
Pb 12.477094149032794 15.529827611293022 10.327108341642417
Pb 17.075062269805258 12.87937925019805 11.34495163882468
Pb 8.55001792403399 8.766959339207006 10.090124504661532
Pb 15.447520879277857 10.249735120459118 11.524637342752609
Pb 13.626993945442987 7.801131411925212 11.807366539243677
Pb 9.939087975017928 16.665089201169778 12.013213838203553
Pb 10.538393041550258 8.694261154408078 12.814967409206654
Pb 8.540513599288404 11.248077139512835 12.360297108994262
Pb 15.11919053964996 15.189424349224797 12.344870412626594
Pb 13.618444155186799 9.558166990518057 14.466291889734125
Pb 9.418358030600169 14.10339093463207 14.042170096138975
Pb 12.38091437725356 16.34865711033503 13.9220944390638
Pb 12.76514843485805 12.910691736327548 13.29175311807638
Pb 16.046770653881016 12.064036630312971 14.2974310071342
Pb 11.60574512848033 14.20416881364677 16.35655760107964
Pb 14.72256102698961 14.806536745006493 15.562884679115335
Pb 10.721384513059805 11.136662208837459 15.221318239084978
Pb 13.714258904729556 11.884772049742521 16.63449709595813
