25
Energy = -81.57299105 eV
Pb 13.607814058249327 12.856238189746072 9.076086374424023
Pb 10.663226281368315 11.458694139186424 8.574060410568364
Pb 13.056310140362559 9.51268089086605 9.173840923971394
Pb 16.32848700289469 13.957278247590489 10.662388800831094
Pb 13.563118493479115 15.006472376894918 11.708122519229388
Pb 8.594840158069877 11.954396483368049 10.908836230667319
Pb 10.551797148998894 14.403090004063655 10.048174864967054
Pb 13.723435891900229 8.165281641996508 11.935518048569536
Pb 15.59713975776961 10.751103268028748 11.116263456701343
Pb 12.240572393720358 11.537144331960267 11.870741459356381
Pb 10.405272341540023 9.010846133009114 11.25165100183764
Pb 16.522615385527594 16.2750425748005 12.885271157355314
Pb 11.007664983936882 16.893411891710983 12.190861545092627
Pb 13.776886765699588 17.744723412009495 13.473945795766003
Pb 9.167380971585573 14.34829343672881 13.148560439077059
Pb 16.639091200989935 13.013549345356978 13.718482683597719
Pb 9.362663754491107 10.959295607336342 13.872575113061139
Pb 11.776165782501922 8.661918965650083 14.384168623847863
Pb 13.081945620578427 13.437709916946961 14.459074038581791
Pb 15.063658709948049 15.658764036108671 15.718524350762987
Pb 11.496645322923817 16.263802196413494 15.35152276779404
Pb 14.81311149256954 10.061183991681919 14.311021180901577
Pb 15.256709144513442 12.58826789574927 16.589068780923963
Pb 10.265400322157637 13.359758632726484 15.994254184784538
Pb 12.375811676518197 11.058817192364405 16.514750049624
