20
Energy = -65.05608031 eV
Pb 14.31178937161102 12.93047492107586 8.857958012021506
Pb 16.37485361166801 11.984785116760206 11.30722983184563
Pb 10.20323226217552 10.152034818527826 11.43492116613723
Pb 11.215434098655113 12.88635562306249 10.024167056635125
Pb 13.486137274745161 10.282230876600577 10.77195291961034
Pb 15.823772415317048 15.07900288303649 10.643698532954842
Pb 12.852296241494102 15.715151954233676 9.668215577344197
Pb 13.967175932120188 16.78654116073215 12.58080829772874
Pb 8.847057104240749 12.848301381900294 12.346280319248615
Pb 10.86045458310575 15.5643833642985 12.381594729890812
Pb 10.24860017079454 10.95752819402539 14.642985406423275
Pb 13.41030569987053 13.228661528539133 12.63021072601407
Pb 12.276568527408116 8.588953477226788 13.327754305453563
Pb 16.28649111400093 14.548070632358975 13.709510105593443
Pb 12.617217502848503 15.508386820108907 15.26196996203983
Pb 9.573104553630044 14.312902655813714 15.07275023445273
Pb 15.141337361575328 10.057814305756361 13.609785147409335
Pb 14.78516410228675 12.785935126515165 15.85497438269376
Pb 11.788007236526624 12.849125465581976 16.921668006440683
Pb 13.067424187739938 10.06978304565974 16.087988631876367
