25
Energy = -80.89476388 eV
Pb 16.624147422139192 13.288001837427911 9.72703496280693
Pb 17.856081267255878 16.057575389688544 10.726887883553454
Pb 12.604776200922664 12.692656019252418 10.552544665729343
Pb 14.642497922679826 15.022173595494595 11.563309213795998
Pb 10.170464778354294 11.441309730533119 12.398504664409703
Pb 8.227649945522577 13.674219827918728 13.574267265383316
Pb 15.073332285819085 11.59573473622997 12.152630941011498
Pb 10.71053557544521 14.936800526724694 12.09903017352604
Pb 19.532514466437156 16.090260025956518 13.53840433620264
Pb 16.26191872127149 17.356580108966586 13.307562889037927
Pb 17.85720352054279 13.373147797878309 12.530467445301207
Pb 12.518870440538047 13.145798877598681 13.913456073152217
Pb 12.583382500383403 16.99038221998156 14.275407188043687
Pb 19.20509630626379 13.419144743409579 15.291501297484636
Pb 14.8705319564656 18.338624330174678 16.129997756509244
Pb 14.957074619582844 11.440973570561972 15.365629215220437
Pb 10.100570204027642 14.930784159542968 15.86071036910209
Pb 9.48416448714393 11.68613506085317 15.753679089163615
Pb 14.96382732839421 14.931360860949573 15.284833979303421
Pb 12.021533475485649 10.08125171590548 14.850716759010515
Pb 12.199621507807224 12.673272771811842 17.17432582321513
Pb 16.80232731132357 13.386327475371019 17.419479004236024
Pb 17.809033219757175 16.40522538785281 16.12093168008886
Pb 12.660485353597503 16.267145152517312 17.36913479457111
Pb 15.724864657202193 16.237619551760577 18.482058004503283
