28
Energy = -90.5205935 eV
Pb 16.385590277018416 10.908643466663694 10.235161651097679
Pb 16.63750689938998 9.610519730925635 13.216715763033905
Pb 13.895882075855603 9.34263603687816 11.321006560973396
Pb 11.544310204552227 11.708440234222708 18.577013851041034
Pb 16.022602544130958 9.438655860587051 16.534949403299674
Pb 17.85468738204593 12.595480655756626 12.559159700534984
Pb 13.506961616306034 9.955189550005352 14.456274345377986
Pb 10.872595435197551 11.262847583229023 12.107462079466783
Pb 13.732404748962223 12.604808275849804 10.958003034872897
Pb 16.72458611972829 14.171381104069503 9.870245996573653
Pb 11.285224392418788 12.381926615784929 8.87901111099636
Pb 15.700529059611299 12.345811239966002 14.999651070952503
Pb 12.606415386548065 13.181173372658563 14.032301415125906
Pb 13.092559873952665 9.073001522066498 17.567790457131256
Pb 14.016720516693175 13.821173145535223 7.940531050885221
Pb 10.5820341342092 10.82729462657104 15.673182467586797
Pb 11.473027369704417 15.60818058539249 8.691700342782266
Pb 14.636716624357813 11.944106238415388 17.976106701342157
Pb 9.506487395098025 14.08270973044353 10.910322779014555
Pb 9.55437166853815 16.455252498862215 15.155480617372683
Pb 9.025850126272147 13.4413352159086 14.0475844564267
Pb 12.906342170356117 16.171352218286597 15.361058520473534
Pb 14.424735594783767 16.49778923909808 9.901642147691154
Pb 10.700665773720104 14.07490602787534 16.847698508451263
Pb 15.178792109947553 14.884813138863962 12.771540985055598
Pb 11.68778348925834 16.083818498578417 12.008512530936901
Pb 14.253889758188416 18.00803129626009 12.863611218338537
Pb 11.298466324974994 18.62646136306483 13.64402030498401
