25
Energy = -80.94019297 eV
Pb 15.893907759029142 12.423351900584441 8.24792490573224
Pb 10.516045625073756 14.02996967216941 7.709397197763037
Pb 12.905189878666333 11.910499022169404 7.2695834234403005
Pb 13.539863662249564 14.847199171626748 8.605575796348099
Pb 14.460376396160834 9.814512670326911 9.42873718401988
Pb 8.84121829693318 13.205902772896767 10.416815540740526
Pb 10.03554538280396 10.870393335502246 8.515132226086715
Pb 10.864829047641027 15.5988648570163 10.606737019298322
Pb 16.369827511730204 11.62021563066573 11.42575662309957
Pb 16.37197325902664 14.743554929125791 10.312346826859788
Pb 11.525009215418326 9.360225593080852 10.989323297582061
Pb 12.090970848263373 12.576916083995808 10.558137129773016
Pb 8.900110123990109 10.188402129308043 13.106076645834474
Pb 14.338531880720023 14.058623738993141 12.56747080372331
Pb 14.45174001812666 9.115949277513272 12.518813899351601
Pb 7.9151257756357944 11.617206491378424 15.896922492605361
Pb 11.815843198700984 15.45825189762854 13.921487423176922
Pb 9.261704144589322 13.467827713776858 13.619981617294862
Pb 11.370742157894105 8.356312943314014 14.21968010690917
Pb 15.211175486856698 11.458291032192612 14.537386715594169
Pb 12.13292368644251 11.735459609184218 13.802801907835192
Pb 8.439409364732924 8.4997650089055 15.707247344822651
Pb 10.843209452163986 10.423657090342141 16.553417228011213
Pb 14.000169777697113 14.002297782703849 15.87795575943306
Pb 10.87574340829869 13.587535004444147 16.556476243509284
