24
Energy = -76.43470266 eV
Pb 9.579306862469958 11.96466762678562 11.439319046900607
Pb 9.508610920931195 14.382652496531259 13.80390854397668
Pb 10.434487239537775 15.044126969419862 10.863906816022501
Pb 9.384316511509985 11.161850179823757 14.55498686929522
Pb 11.692948409688295 9.622953075016564 12.821572888704155
Pb 10.706436314820214 13.173363401069501 16.750296479072514
Pb 12.851354262058134 14.881023510759162 8.97232503442625
Pb 12.958026241596537 12.79091441344838 11.738686470268137
Pb 12.59552140128514 15.674826371603444 13.458753274354509
Pb 11.060388032278409 16.42694953739574 16.056141069443903
Pb 11.838699681983941 10.523787968346076 9.556426632625291
Pb 12.10406424879891 10.361397672354999 16.09261938043089
Pb 14.536743825584578 12.077070900510577 8.853087452788438
Pb 16.759647837119676 16.80046467385859 14.504641799480773
Pb 15.881310552929223 14.90771678704405 9.501634799866364
Pb 14.329673556359028 16.162988816641285 16.317535333650046
Pb 14.51090910437656 9.50500928092313 10.974096020036706
Pb 12.514114220455296 14.97003652957717 18.54975460297313
Pb 14.569312123037097 10.439220526988029 14.230946070324327
Pb 14.20512470494438 12.826849767904449 16.798335906140633
Pb 15.003300845001368 16.6527720267631 11.916376494621638
Pb 15.536631666027185 13.982137705266048 14.106979971926345
Pb 16.580328502983342 12.340889422364066 11.509120431063614
Pb 17.02720462774139 9.49479203312293 12.797010305124674
