21
Energy = -68.80390114 eV
Pb 8.733332136378436 11.9145746017906 10.103599471149373
Pb 11.714058670013086 10.910791449163682 8.68814923422118
Pb 8.565770852560755 14.866176522324668 11.400794227682159
Pb 8.218771136192569 12.077024875187591 13.448937033734685
Pb 10.138564636270527 9.161103862492187 11.26585465929621
Pb 10.84447317244359 14.22542274525192 9.195378656211494
Pb 10.764933312659284 9.947344626811407 14.532609874024981
Pb 11.742916218539005 16.094143677891875 11.866910689635882
Pb 9.375513599617385 15.310649360874905 14.38640800374145
Pb 14.029823181830212 13.36648232519371 9.471721045755363
Pb 13.203775606528664 10.774371533296256 11.69405235593133
Pb 11.173469260155079 13.016043227432434 12.626612009290284
Pb 14.552924460965377 14.219432549787706 12.746781849373148
Pb 15.005207605739788 10.193329631156562 8.778470185887567
Pb 12.938482620872007 7.944897312622507 9.708605534693305
Pb 12.513760147169853 15.090653063336504 15.087055400724315
Pb 12.560532420458859 7.805734555917363 12.946326591773845
Pb 16.255360889534753 11.88139457667807 11.301023156899806
Pb 10.441014107124621 12.767301289188175 16.035049933192735
Pb 13.482343698996122 11.948388946452413 15.074194395594812
Pb 15.5332686773988 8.59636818321696 11.551553260042901
