26
Energy = -85.01839587 eV
Pb 11.069370026181096 17.080130566739037 9.612658557974349
Pb 12.328781702577212 19.130614457260503 11.764064896465484
Pb 9.646842889040157 17.438661181399297 12.52706885308363
Pb 14.53646668932532 17.231992336534987 10.14401417813338
Pb 9.888441966413733 14.471948683283708 11.213617451189045
Pb 12.410480009832051 14.231399335031714 9.082227047938066
Pb 12.857221959021494 15.77342595019371 12.334418048393633
Pb 11.919198814548597 18.000621185414357 14.896131769369061
Pb 12.159511848785085 8.937774689818498 11.368409758930856
Pb 14.882591488473583 18.61842263458734 13.62252956659038
Pb 15.31631903878492 13.882638165167783 10.57402478585907
Pb 10.754294257689908 14.910721796006333 14.543866138024637
Pb 12.754331873457607 12.248976825808079 11.718518137272929
Pb 16.438987496611567 15.98725840581436 12.772296137427876
Pb 15.246612272557204 9.592272039646176 11.205907552152876
Pb 10.760205209611522 11.34473622137228 14.163551215889813
Pb 12.964379406549066 13.080534238299895 16.37984656418328
Pb 13.729411332905475 10.19061572785464 14.035062747232887
Pb 14.234686210935964 6.947399880436714 12.995524455464654
Pb 15.507421640694758 13.084004766545542 13.877486726490913
Pb 11.441367937385325 7.821729776061624 14.501316876494192
Pb 14.4015106666492 15.854172708955733 15.431754375002905
Pb 16.614801470320543 8.887975960429982 14.196790525089549
Pb 12.011087673155345 10.028490048379446 16.966648036711423
Pb 14.285258089213055 7.732108015841705 16.20952730602188
Pb 15.292571293002021 10.82959181966238 16.799288154460594
