25
Energy = -80.60378033 eV
Pb 10.12503226424376 8.627225061583745 8.049880657207316
Pb 13.110567966052823 9.593588596876875 7.841073207495421
Pb 10.923946768107266 11.914411532422246 8.448774700830462
Pb 14.448454410203944 14.328486700545797 11.09840626266853
Pb 12.332073562288311 7.317918404759116 10.010100368084561
Pb 16.13186428848722 11.734793428853568 10.715169306182357
Pb 11.482267632738896 14.931327916447195 10.113335979662526
Pb 8.396615703081366 13.849720477057666 9.740948376198986
Pb 8.248481606390719 10.5974384821082 9.878495110064726
Pb 13.39194159009803 10.262372858675814 10.858928554378732
Pb 15.887769218605634 16.377216275827692 12.799322765356562
Pb 9.26361013069301 7.729612449341619 11.012498587799078
Pb 9.38103808906991 15.040202207417485 12.757052820805399
Pb 12.464883735243493 16.368954231689184 13.043697795375117
Pb 11.381278003910248 8.979965015331201 12.842047167874673
Pb 10.7372310112224 12.08356855317215 11.642291960786359
Pb 7.289203060326067 12.392229013761858 12.355884994280064
Pb 16.595055704152728 13.370723638146307 13.699812025645555
Pb 16.012152040499462 10.272889105037283 13.476894627673245
Pb 14.489643400874268 15.137345579156927 15.420875254810017
Pb 9.504158352049068 12.078544115214681 14.530050754037031
Pb 11.270514553988042 14.743162706623663 15.583538923682385
Pb 13.350534437136337 12.469792460039491 13.797149852536739
Pb 13.459468617785355 9.5029638599662 15.125226788824945
Pb 11.810584671379326 11.783918148572797 16.646913976367784
