22
Energy = -71.28906316 eV
Pb 12.050193357645258 12.441834446136031 7.550992344765209
Pb 9.011469784303015 12.400324570411941 8.519740043359645
Pb 10.97151341642949 9.6631431598793 9.098081884102525
Pb 14.245882012328208 10.813381481122873 9.503180174349282
Pb 10.819227444469067 15.414733102583872 9.235152426922532
Pb 14.141439348240377 14.205391095249063 9.177139506195838
Pb 8.487003831653176 10.649391753647524 11.338066362527908
Pb 11.418685937991166 12.973527357859657 10.96207656314468
Pb 8.139923313319004 14.037955393723873 11.101369031684063
Pb 13.276902959691968 7.822257070942501 10.820216902263025
Pb 10.237035186055428 7.743850638277024 11.748497910569611
Pb 12.727375373187984 8.116715262137843 14.30294250621849
Pb 9.316753847445217 9.367770813473593 14.333772035984579
Pb 15.437584251453933 9.562563404310888 12.383484718086716
Pb 13.289134853769863 15.788100344262505 11.799286969337391
Pb 15.035617298054744 12.916370888892082 12.179017083750864
Pb 10.265467216968982 15.684556124331284 12.80921096631475
Pb 9.285028731015824 12.714301186750879 14.034131403567283
Pb 12.112142069180699 10.556179291652436 12.578337535366707
Pb 12.563040653538215 13.831238100861924 14.46771693967017
Pb 11.506852723851686 10.991172966681425 15.976009110272999
Pb 14.53144493012579 11.129652352508831 15.010257204002233
