28
Energy = -92.15990185 eV
Pb 12.274730685873156 12.244312375898774 7.646431895082534
Pb 15.05735719964762 12.104594938953356 9.28353667099977
Pb 13.132857881807018 15.157488459055408 9.207809870224414
Pb 16.013631352052123 14.68248082101495 11.12850916197831
Pb 17.488462832559094 11.392214119289953 11.300487208504546
Pb 12.235817829747269 9.6328451698442 9.827958534677245
Pb 9.901915222724375 14.346217204907447 8.18283449212566
Pb 15.141811462445522 9.180019009655314 11.41123237558691
Pb 9.426557244837179 11.210124021306262 8.741206580099359
Pb 17.722675735330952 13.364450492047412 13.73422212863464
Pb 11.593108057445944 12.865169019951216 10.928038098910621
Pb 10.241226865592083 16.081570161134632 10.815061885991708
Pb 12.94427106923951 16.275820417974913 12.477293468660388
Pb 14.490299663000943 12.248376788371798 12.784545609443805
Pb 15.397535828374215 15.404500544647602 14.349765783261157
Pb 16.599288028764114 10.225623370655404 14.191433204444486
Pb 8.326300796328448 13.40306535431999 11.049779397393467
Pb 9.699060589377646 15.276556444394423 13.91651336015322
Pb 15.279983971591582 12.568235352950781 16.12524284797446
Pb 12.317144877192211 8.981860251356544 12.990710664471596
Pb 11.454021065262848 12.226600539569903 14.325214217094079
Pb 12.512086675529863 15.221083590860301 15.767884207248086
Pb 9.526517280645935 10.321112051381352 11.893328158557116
Pb 13.17765806218801 9.911700592401743 15.901622455589475
Pb 8.209058042049309 12.275217263107892 14.449770334231488
Pb 12.325528312094482 12.451857191268195 17.707628643279467
Pb 9.573947179687815 13.81834635464066 16.95358562599518
Pb 9.886015810793243 10.59586378805054 16.648876353047303
