28
Energy = -90.74060667 eV
Pb 12.022630685994521 17.004087680708096 17.9383474165535
Pb 13.488410645891923 14.637262271438448 9.125682815958596
Pb 12.56720403214366 18.130355439102143 12.509866065987755
Pb 11.815662600919008 12.392570982245486 10.229366316770678
Pb 13.569057397703096 15.481835436073423 14.553327320313908
Pb 19.79592321070424 12.283453749656386 14.008004133525388
Pb 20.632549724028674 15.36913511928283 13.924283094234339
Pb 11.891828654770372 13.857046630617264 19.07489316561301
Pb 19.39974130178746 14.187984633875418 16.671822557436386
Pb 16.006004697322332 14.801928223542387 16.65935522345956
Pb 14.793132063434685 15.44440621393935 19.598997906743783
Pb 18.276024607254495 16.99202690849444 12.353673341683841
Pb 15.359037995239214 17.96118918545982 17.375747762084885
Pb 17.119613012573172 14.187912842655932 13.721399808233992
Pb 14.351705413510725 11.428635720039278 14.967003670064015
Pb 10.752005693105115 14.793021477583206 16.007415957443342
Pb 11.649116032386596 12.482121726096427 13.524647704210444
Pb 15.517682846549327 18.28408102978793 13.998911714232674
Pb 14.519042450282875 13.006954995155994 11.905744302211643
Pb 11.756881760278826 11.779495100166473 16.808042736972673
Pb 17.321118313349412 11.760660048152 16.19231182284939
Pb 12.166735126800418 16.35631952710963 20.92495660543555
Pb 12.887089858180495 18.907199120114136 15.642117278500898
Pb 14.627522965090161 12.274139731550154 18.283007049015914
Pb 14.946369239349593 16.235948458067853 11.417071918786577
Pb 18.325332761232303 17.06824655657699 15.692487474015861
Pb 11.538059815421837 15.184786304753327 11.785244538607348
Pb 19.19623056669547 13.998908359754733 11.397983771054326
