26
Energy = -84.6324245 eV
Pb 10.299547775736766 11.303301600580282 9.566024297790902
Pb 12.60986905212555 12.639174179901822 7.930836221656113
Pb 8.378995419852155 13.066419272696912 14.649136340899869
Pb 10.408850843712393 14.542199813233836 9.347763924173742
Pb 11.474126987996181 10.151662640361744 12.473500703537274
Pb 13.289314664480257 9.835168169338246 9.517071083555896
Pb 14.370654128063528 8.419780803704331 12.306667770589508
Pb 16.632689483016538 9.832769961963615 10.552089253924818
Pb 16.776418245782885 10.083809147252301 13.734149182091935
Pb 13.790476593189455 10.216233079978146 14.916815370046733
Pb 14.245281679305513 12.023470021286885 12.040684579349794
Pb 15.711421995131753 12.614032703223168 8.919258143681073
Pb 11.384195923022583 12.833337218218489 15.82668334478475
Pb 8.869920138706446 11.77036083973314 17.549397190502543
Pb 10.995031008932976 13.326077074865507 12.203722021073304
Pb 10.299250584047721 15.716323066286225 14.431951003220371
Pb 13.363304977192643 14.935201697796279 10.194301951538781
Pb 9.004518910220131 14.971122613731781 17.23225955121884
Pb 13.493661480320808 15.043729734368881 13.70681226840685
Pb 16.62422123373306 15.434518813851552 10.281145550096145
Pb 12.199833228735779 15.692677567473385 17.08549097103242
Pb 14.465085030912146 17.34620543439157 11.77432591784458
Pb 16.79782789683828 15.773157183872337 13.386283055599751
Pb 11.123820408629253 13.344201195711682 19.012294210926548
Pb 15.67412661606265 13.02604243754387 14.930072787919762
Pb 17.616538042492067 12.826471649456861 12.049270840764704
