27
Energy = -88.88534054 eV
Pb 7.705941016513591 12.458981545935268 9.838410429623242
Pb 10.083451118173702 11.136129498359939 8.365526049971796
Pb 9.094881012765077 9.607361857230906 11.132390107660218
Pb 7.410958354182444 11.922780304868983 12.968462734597493
Pb 8.092393558437426 14.897437934221847 11.789359291817092
Pb 10.237975657021343 14.55254835544284 9.188082665957339
Pb 12.633827316015378 9.641615437873423 9.883702083514043
Pb 10.850163968148669 12.382932361633683 11.708318425920345
Pb 9.778901806989778 10.543296479368193 14.562228494167078
Pb 12.873364823317804 12.553372937063477 8.19093582549661
Pb 9.477598702779293 13.926771033661051 14.679279963273123
Pb 11.71517256738978 8.606907907055518 12.847936331295365
Pb 11.008580330282792 15.966206468642534 12.316991843694982
Pb 13.61113323860656 14.974624051120953 10.057158448976455
Pb 15.269156801103557 11.792937600126626 10.05260320237674
Pb 14.831642730652947 9.260123993881162 12.391444503894999
Pb 11.646216599002027 12.382206120322795 16.485673674945915
Pb 13.32727444781592 9.852352461736928 15.38231775099929
Pb 14.038611907588116 16.663396166089008 12.676323892655605
Pb 14.266177686992929 12.682198851707646 13.434590008068577
Pb 12.445411150465219 15.340128551311809 15.340492778693704
Pb 17.502333537134355 11.269170378593262 12.212975966954714
Pb 16.60849678240323 14.517169484387473 11.827013516505223
Pb 16.463141842181294 10.250199136715262 15.142772038087987
Pb 14.89541520434732 12.831864516851502 16.70544232902609
Pb 15.747471308366416 15.584424884951932 15.069856129231447
Pb 17.657488170762406 13.175495602057454 14.711802834348168
