20
Energy = -63.51424764 eV
Pb 17.26986977988979 11.934214377767752 13.912930341869176
Pb 10.627627267333972 12.224796374552065 15.380528221381113
Pb 9.202745173534364 15.96488790235663 10.611901847237108
Pb 10.090907199256332 10.500270520892661 12.802219417338822
Pb 12.564269039870252 10.80165240220149 10.683162674733344
Pb 13.966826555832817 17.50236990607765 11.981355657284942
Pb 15.921203602627207 15.352860993704363 13.655340156853606
Pb 13.27958104875524 13.850031833253317 14.821225127564617
Pb 17.12330949193988 10.853915948364875 16.89303511145178
Pb 13.199487874638221 10.6455543951726 13.740420726501972
Pb 12.365276976522042 15.44642930388464 10.11175838858964
Pb 13.49210028375201 17.007997446251938 15.072148362335213
Pb 15.730427232791719 10.213125197598533 11.757338225434731
Pb 10.841409674520465 13.422306881969511 12.10203625853664
Pb 16.020111542079285 13.745692588656693 16.59932803263412
Pb 10.963052386543136 16.330771381312164 13.334083322406666
Pb 11.064736990901846 18.344128957484052 10.863912833013073
Pb 14.406103535068938 13.235223300865432 11.778492744096027
Pb 15.742912102260709 9.042019857943805 14.81337782372207
Pb 13.825163904291895 11.278872092099856 16.782526389425882
