24
Energy = -79.21268035 eV
Pb 16.06871654437338 13.395708181354262 18.899138051121184
Pb 17.8958542054466 12.191129295083332 16.498478529346148
Pb 16.05020558960258 10.8658253029732 14.122363891823685
Pb 12.046404043027168 16.724349184876203 10.297915480775453
Pb 14.617457591476535 16.10120785731411 17.930996809605006
Pb 13.665156174219804 14.366687566206233 8.892405702487459
Pb 12.569606078859879 10.727925048740515 15.313848952537745
Pb 17.48118687016481 14.080755534835344 13.725008977225661
Pb 15.621584230467587 12.555139817561543 10.891526703093787
Pb 12.479861388441593 11.511900540371592 9.660536071456006
Pb 17.629352690402918 15.36241012749099 16.858165487731746
Pb 10.228578281854853 15.380301600807309 12.943349706862278
Pb 15.332379635632487 15.940984997692183 11.30477432964463
Pb 10.4911072495829 13.983678433115509 9.856386911690704
Pb 13.556491090891369 10.247828777989396 12.251406713694468
Pb 12.955381871463485 17.485419103854717 13.138915825969951
Pb 13.04214182931481 13.881474997822595 12.393912230483494
Pb 14.828832690933137 13.669121400070246 15.518015376468327
Pb 15.081657845005095 10.75331051264602 17.35244213454719
Pb 12.045081002158469 16.100997861458158 15.940450634607329
Pb 10.518306369200854 11.84959052355953 12.488287093754822
Pb 15.596278604062437 16.863096525648793 14.79789874447948
Pb 12.72849784312088 13.209244339268336 17.86953164845494
Pb 10.495871403315352 13.259106188153535 15.50340768201139
