28
Energy = -91.43489788 eV
Pb 1.7073451185478694 0.6128877921766335 14.155557155759388
Pb 16.901224276836928 16.26972298357801 12.150310100989309
Pb 16.60602265493211 12.754881611598005 16.654200487510092
Pb 14.322830833968855 14.16719422757652 12.75605268694553
Pb 19.698300568110074 13.157242125373998 16.06687779364916
Pb 14.644757991040894 14.543395964175627 18.700038252501983
Pb 13.254594943104077 19.100380046006325 15.287086298152381
Pb 15.364756235650416 11.506471401468762 13.992419478723429
Pb 19.800744331096183 18.042117394286464 13.119768685513856
Pb 17.713542312620845 13.499657040910733 13.432043222659379
Pb 2.1089692784201386 18.015502736451424 15.934350381723187
Pb 18.30418858574563 16.46363381046046 15.678985202488516
Pb 16.003966391975958 19.466301068763805 16.89957856974027
Pb 11.468613125304804 15.218109204767051 14.356544319719251
Pb 10.89883052523346 18.194821990727302 13.382309298195544
Pb 15.0481388438785 16.22406925355972 15.552985234148274
Pb 13.299455723011382 17.65684838099203 18.28199904174952
Pb 13.322787006058752 12.973627677007062 15.993907637154313
Pb 16.393128353231415 17.24827855328378 19.233701543398098
Pb 13.83310325772493 17.297377764491983 12.404076009531739
Pb 18.37334941623341 14.783919448503262 18.708903630717856
Pb 19.08356639420964 0.1194925587116598 16.00600564858858
Pb 10.474821725240869 17.5987216465679 16.43331849018005
Pb 1.675040229362469 15.475664542455819 17.614662694038888
Pb -0.2509656274750146 17.939381910032182 18.525876112516656
Pb 1.2696141680337347 15.359565836037284 14.236832043883187
Pb 11.510666269212697 14.968766864324005 17.719905803007055
Pb 16.595758362822494 18.99363230158348 13.793666790215159
