25
Energy = -81.26221718 eV
Pb 13.121449991245479 12.950679387121886 9.857963715177556
Pb 10.4334942754673 14.639827505346364 11.064937249598536
Pb 10.522273034090132 11.288206974377687 11.070560027839099
Pb 15.622714775849227 14.803970934133575 9.186570425565597
Pb 13.25942399239498 16.202341319860313 11.00802814396805
Pb 15.580907186148027 13.081387130345295 12.127190713282552
Pb 16.56233228129717 9.740127172758509 12.434175432442954
Pb 12.014920124118305 13.004493226492038 13.37213948356328
Pb 11.10916624196675 16.634167487314524 13.636354217974525
Pb 13.537009664123891 9.985120277093994 11.493362063146376
Pb 18.364767987645152 14.424178745383065 10.783872938979568
Pb 14.332147855337736 16.39147564876181 14.285971482747776
Pb 18.8731008473675 11.830320854878398 12.456601032370827
Pb 16.377313380976886 16.623437266035594 11.834403143594324
Pb 14.318907523996806 9.944867311279305 14.80947429399709
Pb 8.649681874497263 14.381745057014536 13.98263056459288
Pb 14.41528943750165 13.34605244136259 15.420967373367287
Pb 11.259979732571603 9.569681284247379 13.771264346955592
Pb 17.16640385370033 11.507778205210617 15.13637997170309
Pb 9.010004729217188 16.56154424146626 16.16321390160018
Pb 17.556907997094324 14.659342829119486 14.152337508733677
Pb 8.864436370482391 11.345633392054117 14.761199019711501
Pb 11.572548420443812 11.61427965596912 16.55444805448234
Pb 11.69574067147581 15.014124378776996 16.559122724077636
Pb 8.847490563385117 13.523630085992151 17.14524498292377
