20
Energy = -65.16067574 eV
Pb 15.069654552642671 12.803256643615185 9.188230031512948
Pb 14.016385903833001 15.630549505222051 10.479597838160586
Pb 11.7588057348224 13.60075025653155 9.2157555081847
Pb 13.556206537840964 10.045085763490416 10.068114193173432
Pb 10.349944849899847 10.624740571117613 10.025068015590753
Pb 16.564233028945512 14.13635158557299 11.687997769675276
Pb 9.026592725281981 13.507337829476029 10.761693886468374
Pb 11.168360677805325 15.716275667796161 11.979655004448514
Pb 13.332117494838235 12.625426364257933 12.22667726467467
Pb 14.351500128705583 9.776997397318539 14.052297633395984
Pb 11.593070814660775 8.791173041586557 12.344485314878073
Pb 9.880717165278412 11.503837420169612 13.188704746969556
Pb 14.16828163536788 15.374107925637398 13.950528884816334
Pb 8.613137928468015 14.33774673615623 13.868640896969765
Pb 16.33057565393095 10.94549768464948 11.53840885172253
Pb 11.53226198326983 9.812959386557825 15.435765747605105
Pb 11.31631260901739 15.167074378740852 15.313352362552266
Pb 16.122849373183318 12.524964081068566 14.407058592560169
Pb 13.326431846928248 12.53581816256919 16.004572933957288
Pb 9.869353892445094 12.48684413563114 16.21018905984943
