22
Energy = -69.90281984 eV
Pb 18.155208891757564 16.230590113330535 12.769800605061496
Pb 10.662688558974587 11.647593797938038 16.145910417185682
Pb 12.733567826155827 12.205338501505398 13.331102684761282
Pb 9.788783567378424 13.36840226678514 13.682290919573969
Pb 12.466566142417062 9.912426389831317 17.869408956052673
Pb 15.666681492875721 20.233232772730165 15.14059741465712
Pb 12.332703159233963 17.707932783910973 15.21278392931118
Pb 17.467807147090284 19.487198330781425 12.800702715309258
Pb 12.205636326552927 15.465548522123907 12.719398753721089
Pb 14.988693706520827 17.60732871471742 16.864769338423496
Pb 15.82828271497354 10.94364277291171 14.097106172957933
Pb 9.634524183447922 16.39623891779256 14.566566675972494
Pb 19.35756575204568 15.017987879397026 15.53419649273912
Pb 14.22616919143316 12.184914546728363 16.530801157374825
Pb 18.404191310591003 12.861169048041369 13.589149274810744
Pb 17.989914084438844 17.947203161050577 15.624970359927799
Pb 16.868754530764704 11.489594626870918 11.2595469947015
Pb 16.167620747200218 14.806361024265586 15.42576122130906
Pb 15.11083018833597 17.386835688537637 13.48792453113174
Pb 13.130263766449236 9.385656173914686 14.92217442145648
Pb 11.951772170526468 14.59218414472354 16.03522435928211
Pb 15.424528654019658 14.093970389323927 12.39429163692268
