29
Energy = -95.79073474 eV
Pb 17.388677788343262 10.790112941224027 1.4687954765897675
Pb 18.880052119948854 15.641005987214964 18.66861081290445
Pb 15.745843222494358 16.431136591833372 16.93490631231113
Pb 13.637725462671341 13.161435405886344 11.627709784020869
Pb 13.716217680011685 16.139191610116086 13.203679468384925
Pb 17.802932893986945 11.873771234342525 15.200379677863737
Pb 13.521007210950634 13.930242715443354 18.935870114752053
Pb 15.784691669838478 16.08541796364382 0.7689158131194214
Pb 12.661296886003393 10.815179488035326 13.538230695816408
Pb 16.33825893447134 0.5314697869284066 16.422465867464087
Pb 14.953292364236248 10.04405571514957 15.88676945498308
Pb 14.651924571627893 13.381179804448418 15.060171246904428
Pb 16.619550627437047 17.87144849340176 13.911028006416872
Pb 14.53144930315401 10.599862705067848 19.270131644941223
Pb 16.52260260000704 14.439842545302218 12.556907925609808
Pb 11.391016244654846 13.792535246095786 13.963369147967427
Pb 15.864422078090008 11.074593095122031 12.786123200252446
Pb 17.54207021264932 18.688235523175607 19.13069632484643
Pb 13.664696972203522 18.62783805763895 15.340507666989593
Pb 0.03217229272196096 12.239410786248337 19.105347274716433
Pb 17.530729428258336 9.880262795718423 17.91351674120807
Pb 14.337118124806029 18.77598526294857 18.602570174937295
Pb 18.937524121200763 18.2156870896197 16.205998588800174
Pb 18.29844591612923 15.15647278930282 15.344237882257147
Pb 16.618668655334254 13.1602166938151 18.24503218596803
Pb 12.21841392322045 11.811656339229835 16.64390190325737
Pb 15.022243893535817 12.853396869983603 2.069790624206042
Pb 18.105178548027325 13.945591025697434 1.9225084214916848
Pb 12.361869442291827 15.676625703708895 16.354996719433537
