29
Energy = -95.74043743 eV
Pb 14.586787746308673 7.314051412085948 12.301259044349313
Pb 12.631313584801674 7.908905684173339 14.753233276456633
Pb 15.724490119731882 8.66096943980867 15.097477747147119
Pb 9.896427330774815 9.474924853740376 12.146787713122333
Pb 17.041790258780754 9.440399931666713 12.326834516160329
Pb 11.733702005759389 9.491453395707476 9.589386936468877
Pb 13.489891352479418 10.75751600115118 16.335585589594803
Pb 10.402684669250943 10.142049841270007 15.250123907361905
Pb 13.36049921106476 10.32579692973159 12.48700985045848
Pb 15.053225254176335 9.337441877180492 9.764384531474343
Pb 7.935761513155298 11.335985814797692 10.221900415519498
Pb 16.18435753269303 11.907034091354713 14.492525186640725
Pb 8.654571334858415 12.22493356259151 13.615444480134544
Pb 16.050403520519605 12.285312406359385 11.118845467685993
Pb 12.759021318916611 13.411413656637032 13.413940875636415
Pb 13.616465911002818 12.145361722241622 8.75658629050643
Pb 10.427962577745499 11.774312694551927 7.674520544359177
Pb 10.781257318437497 12.866631917027458 10.861532268295438
Pb 14.27360175366437 14.905385905276065 10.349811807429822
Pb 7.423694579302207 14.391261167388766 11.547886467621513
Pb 9.644867137691586 15.512695225946496 13.783846893782501
Pb 12.355525502244307 16.876326732321623 12.257781462344603
Pb 15.129930906703365 15.55357662525474 13.44131382626051
Pb 10.937798742928955 13.302587109666737 16.157106805541922
Pb 14.36376413902731 13.921731718393332 16.267621110353183
Pb 8.497924198195943 14.114061617428591 8.569369026738004
Pb 11.633206581898936 14.910446370459796 8.256494287439894
Pb 12.367886364347777 16.22019863967111 15.373057218915143
Pb 9.716151369200473 16.46970790127489 10.412718349384996
