27
Energy = -88.7183598 eV
Pb 6.983931752636334 13.081921268422166 14.871709840705789
Pb 7.847345778440046 15.243545882586007 12.495958341103389
Pb 7.631890805301428 12.052501088621202 11.828468109186899
Pb 9.157175390063667 15.574594781669258 15.575088430079472
Pb 9.694289925347547 12.349471309866672 16.744284895282625
Pb 8.563208249105326 10.220136658548011 14.325266930456628
Pb 10.16418125004854 13.13605697679631 13.733461936337463
Pb 10.339674406211675 13.868642858561177 10.557959778920189
Pb 11.017893236254558 16.432891937139328 12.766089080642104
Pb 13.048528389514878 12.955321635819411 16.576097088162598
Pb 12.469550126866576 16.08307719933602 15.634962598129393
Pb 10.75170768632385 10.67370855840956 11.747060851638619
Pb 11.870360264434103 10.40605713526886 14.913000417307055
Pb 13.196653379220711 13.842354748489155 13.390824893550878
Pb 14.80186977615297 16.658959918004577 13.067549079309725
Pb 15.959993160616705 14.62086394475926 15.301319419616233
Pb 13.439003501203123 15.235364216639006 10.400006300106616
Pb 15.608645054541885 11.187224883689534 15.228086080443218
Pb 13.629225725498094 12.022113850769152 9.873006661534575
Pb 14.414645893173981 9.828877332646044 12.308725780525045
Pb 15.916585150769292 12.677825930950661 12.338131934070013
Pb 17.78946568383081 15.291202446096742 12.41970022630336
Pb 18.59066950220219 12.681427432554669 14.380923803138591
Pb 16.46705695667369 13.936429417858854 9.509108551458668
Pb 17.788832715318122 9.94150578930727 12.795286636281528
Pb 16.649661313814207 10.542085696455915 9.827019152783663
Pb 19.04632265004021 12.44559425816147 11.097162671603446
