24
Energy = -79.21399309 eV
Pb 12.137613147574324 14.483744054255547 14.679120255379768
Pb 13.944077469334996 12.069908221479263 15.957888954371413
Pb 10.829062151446122 11.309297920479345 15.334837886185683
Pb 13.374991502959238 15.764127660441039 11.94291347193338
Pb 8.94069831402653 13.842287604006053 14.471196329268263
Pb 15.421527160425073 13.822221616654776 13.570507445788568
Pb 13.583831907403782 8.875927489450046 14.816252331942877
Pb 9.995122895059648 16.014747980959903 12.060559877318317
Pb 10.742075887225639 12.895635244700522 11.52464925713322
Pb 16.332945635244005 10.781344001971728 14.331623445450544
Pb 8.220884150007782 10.976106201628381 12.9815431154081
Pb 11.96912315278426 15.366185073256636 9.15704805371276
Pb 13.38973860611945 11.18384612429405 12.53449103360548
Pb 8.961066750251753 14.533794309830508 8.961234233494636
Pb 16.58213423929137 11.65434519498999 11.229673172721249
Pb 10.50079303226919 8.690406948139158 13.414283444944571
Pb 14.38011310266622 13.418705531217102 9.678331335633827
Pb 15.778604490589437 8.649970926467127 11.987091685937736
Pb 7.412046009453935 13.866527859934404 11.70014705239425
Pb 11.383538672766266 12.189788165022529 8.27843441019787
Pb 10.59470743780755 9.426166140831642 10.083364487471394
Pb 12.824087304571455 7.739858030158785 11.519210550665827
Pb 8.176259256806919 11.50367507706217 9.62986648693262
Pb 13.99711768238524 10.056007705681084 9.402951293199862
