21
Energy = -68.6439245 eV
Pb 15.202680279996605 12.75903765436435 9.004071286023837
Pb 13.124955663264533 9.698829910862482 9.092013045915989
Pb 11.692367425594599 12.481350585172088 8.356991605330942
Pb 12.569171472751783 15.18241684141471 9.648607147663512
Pb 13.525697962222683 12.169323337189045 11.505345522900436
Pb 10.159971938839861 10.234939421433289 10.386452830835548
Pb 14.964876747102522 15.319424945795548 11.788009604723365
Pb 10.924827874665974 12.293046963910268 13.110912725046756
Pb 7.74483216799187 11.736525825356203 12.574171555430855
Pb 9.603663252960706 13.897322164781604 10.616671258091934
Pb 9.710682855861876 9.267301367048034 13.659461559908154
Pb 15.871304415721028 9.921917254225756 10.752365819603282
Pb 12.70904880591146 8.8717230449929 12.315801865733158
Pb 8.683460807537164 14.540819236349899 13.908371916954748
Pb 11.938381892098338 15.621547220455557 12.960058799552884
Pb 14.287177093565148 13.647382062007033 14.601536624449235
Pb 8.879683366550127 11.7916219238148 15.599963782945734
Pb 16.771831525692196 12.670593342610756 12.026902204621354
Pb 12.368138210066464 10.680534567583065 15.472372524851322
Pb 15.233829534109798 10.457425197165925 13.933604525640233
Pb 11.278247561104786 14.001747987075738 15.931144647386366
