22
Energy = -70.49339262 eV
Pb 14.905019726080626 9.831992218435667 12.866934841872489
Pb 15.188832863911152 9.596885127468468 9.587996806665675
Pb 14.77156221941534 9.919761488275059 15.896228747522915
Pb 12.905072787167912 11.359374401453115 10.876337609421983
Pb 14.686842229644231 12.328661730125729 8.22789265495639
Pb 13.059433582264981 12.413107956690526 14.604994850907772
Pb 16.960011584092527 11.984145779788111 14.63238536738842
Pb 10.039441644227672 11.571544163566271 13.80455620955976
Pb 15.029252759658458 12.578634312695803 17.354073938392567
Pb 16.587226351041718 12.01510618924068 11.048196295526527
Pb 12.468934356012383 14.270516755081166 9.491750255122096
Pb 16.937784313373818 14.723953392999345 12.741550823770092
Pb 10.109146095938625 13.758363239205432 16.393993012005755
Pb 15.386494176037747 15.094129833926146 15.46722873772288
Pb 7.552123891652046 12.41548696676715 15.372330798681208
Pb 12.80775635748464 14.866339949221745 17.317969414065587
Pb 13.623567434666036 14.901798943162513 12.660884189370996
Pb 9.859951662905855 12.926143543312095 10.977652004245387
Pb 15.508866264237222 15.005738826487066 9.935014454868382
Pb 11.283385146855272 16.382157271928154 14.87277549011738
Pb 8.612193662589435 14.720171068943754 13.595788059244427
Pb 10.70576216703431 15.966510655345747 11.703732804607679
