29
Energy = -95.72142704 eV
Pb 9.191803436168614 14.14054169472838 13.87899287394191
Pb 18.334248789754582 12.403009976599694 14.230703222300418
Pb 16.940620554908037 13.54619814338851 9.180041055516403
Pb 12.429818788568348 18.39229709342115 14.902542980083172
Pb 10.666488978072028 12.713773598020303 11.037541764407964
Pb 14.105509161178205 16.522761484747047 17.015199785965166
Pb 13.075620284709968 10.502183961815405 11.917246254278172
Pb 15.49038269904447 13.2239429964396 12.505980103671254
Pb 13.077970553345562 10.107675128761745 15.350656539441323
Pb 12.40933806298124 18.025683849037833 11.729644523878319
Pb 15.180060883572182 15.885692819141832 10.613784907958673
Pb 13.569232233693937 13.47265873724742 15.656261258213133
Pb 10.54220224331421 12.410349377790771 16.65327128476964
Pb 10.219483120051796 15.892578863410272 10.836768414626233
Pb 18.268143441335443 14.781453058714394 11.808206629898251
Pb 13.545536348169177 13.218149204020243 9.660961157489977
Pb 16.7078703980749 14.820095666737283 15.748995592380592
Pb 10.38340894574966 11.100736374773598 13.742159295273165
Pb 12.455505462325862 15.049470310019693 12.96904064949901
Pb 15.63218510733942 10.656262507910256 9.9564971076235
Pb 12.281832877161415 14.32552053696328 18.728521437508
Pb 16.045420422265003 11.280987718153671 16.399782409501288
Pb 13.2964553685629 11.362422797589058 18.394555781960285
Pb 16.141016991196857 10.031878697866684 13.246760049386094
Pb 18.487556106418488 11.585617107316198 11.168061430576614
Pb 10.672427678044444 15.940603006904484 16.36224192397128
Pb 15.503029672294774 13.738584067840536 18.521145415543252
Pb 15.170739684056192 17.008893294898275 13.694330892359373
Pb 9.665399409948112 17.349285628047937 13.579412960282573
