28
Energy = -91.05948351 eV
Pb 10.995301728366215 14.043442463879673 8.202544925121344
Pb 10.026048716201542 15.80888575992527 11.284250880631575
Pb 12.489356414015514 16.62999873296285 13.186113354057854
Pb 12.02199325302828 10.863603345688139 8.9396915119283
Pb 9.507937550787192 16.535899241996223 14.404133752045878
Pb 13.769369167568263 15.557014022595366 7.7323380904892325
Pb 13.325483635128121 12.530087459720477 6.499166266634599
Pb 16.14811092527348 15.660836226606346 9.720705213578315
Pb 13.165180824122373 14.238254792327101 10.659349892705375
Pb 8.122902338847938 13.860455360398017 13.15427671414528
Pb 11.930689806904809 15.359346915876229 16.272474262596607
Pb 9.590427012158342 12.39851863515545 10.662733183961349
Pb 9.181202693696354 13.704398148943836 16.264138722292905
Pb 11.346061005054782 13.673035077307572 13.586392459611947
Pb 14.902568750801192 10.035653151443515 7.68762816619935
Pb 13.45187406055891 11.143032019657753 12.190258948111946
Pb 10.863668682675087 10.712002781261303 14.539727843968286
Pb 10.762272991260984 9.233883710432801 11.573233454516124
Pb 16.173238659013855 13.248865540399848 11.723097716948532
Pb 13.777957241552183 8.410019605710312 10.504380326553068
Pb 9.81199030943072 7.766740924389034 15.048808348371095
Pb 9.188166372166473 10.344880999506772 17.177394864964675
Pb 16.122753039614324 12.848410673375186 8.407875492634105
Pb 11.950812610028372 12.125176865748077 17.41473643115496
Pb 16.309333164652557 10.24934446099808 10.69029398278555
Pb 14.08945828805306 10.68071381093462 15.414599830272802
Pb 12.865953433090876 7.956114599810053 14.048856820027993
Pb 12.05197323882485 8.757650382601568 17.071484240954828
