24
Energy = -78.78019922 eV
Pb 14.141126104357305 18.355137629985492 13.011150031984922
Pb 14.172273091212407 16.02284130867274 10.521699481849742
Pb 17.178112124477366 18.356881098005054 14.345400164019308
Pb 16.770129947467584 18.07304410734403 11.057039460496643
Pb 11.240675419495341 16.31146597133375 16.40966053250658
Pb 11.662619255597077 16.205463377888574 12.992602759286743
Pb 10.278528748112722 13.831709485030737 14.494366724971616
Pb 12.428609130293102 12.953829176204847 12.20930320055828
Pb 12.145766056460653 11.16975774638053 15.019682067469173
Pb 11.320002829650738 13.146269110360649 17.46098738668583
Pb 13.619241231307834 14.328842597804263 15.195790045544673
Pb 15.322365715603196 12.853293145061082 10.768959386937363
Pb 17.633031458646172 15.828291825914803 16.31100933773379
Pb 14.332028661012458 17.770553043697966 16.224903401444582
Pb 15.941574135681718 15.468608972255744 13.159451131615224
Pb 19.029860284331704 16.28350928946029 12.592514248273295
Pb 17.432966865013416 15.141120939884118 10.040457887770671
Pb 15.97911088684407 16.996888951569918 18.77322825289147
Pb 17.459025116440298 12.609730848349548 15.931773244772563
Pb 18.027226340894238 13.016946894784331 12.700421243748385
Pb 16.65132737071076 13.891141297829998 18.757841133530896
Pb 13.526512487805492 15.025320789642263 18.718795998255356
Pb 14.4917557391965 11.87942937300893 17.32860554649067
Pb 15.203707162870293 11.45762380018802 13.764266889670495
