29
Energy = -95.6801318 eV
Pb 13.537891710384798 10.884362677460468 8.600351563838547
Pb 13.683050526358967 13.723393395066344 11.826669910953045
Pb 16.16441953429817 13.23749886122773 9.801503110357723
Pb 10.574931061204616 12.892670110597388 8.954334147792597
Pb 12.786608092399302 7.693137398479499 9.49979977653061
Pb 11.00127584363886 11.536262719797708 16.608738685171627
Pb 10.374403767931069 9.696076211561444 9.071600166592686
Pb 12.642031958165564 10.368953152932432 11.773738869247145
Pb 15.224386380668983 9.215772015817942 13.99162650083303
Pb 16.393981106522734 12.121942026204412 12.927338796782674
Pb 13.528343327630235 7.035259071602614 12.448218329828379
Pb 14.912677920844672 16.423447165678574 9.94240648742874
Pb 16.7154078828286 15.442639526404827 12.279779672371012
Pb 10.611725021534278 12.810291523304079 13.273313042642613
Pb 8.615497255522369 14.569181222469883 10.858406690649959
Pb 13.632580320971158 16.728737153410382 13.036800440814684
Pb 10.373016691700496 8.06136764051498 11.902490333826623
Pb 12.00019402294224 14.66305759453624 15.674779220436099
Pb 15.22806041481832 14.611136830970587 14.947086143302506
Pb 11.8989404504645 8.974219855901703 14.713868545132355
Pb 9.625942560871046 15.869978628634504 13.681653764208987
Pb 8.580607726378332 10.659720718002186 14.594363060420063
Pb 8.452523935952625 11.191728054524486 11.31243398796881
Pb 14.050159526596671 11.708367355812866 15.631036958332828
Pb 8.764143843756079 13.721921784294354 16.120118981250354
Pb 15.49877145388889 9.249973198862161 10.73476146683757
Pb 13.432522583861894 14.176152373463305 8.273464974457562
Pb 11.593952468699602 15.969744116664401 10.519670640345806
Pb 7.1688160814223085 13.4922927714135 13.459449868880116
