27
Energy = -88.17424294 eV
Pb 16.97159597116793 15.98561444088534 14.81620554720638
Pb 18.087975246695315 12.961374999553119 14.846624710448724
Pb 15.83411613435706 13.946778968879562 16.999863352154968
Pb 15.772039734179577 10.885108075203888 15.855282032271337
Pb 13.681082386031543 16.087090141801177 15.043473756501538
Pb 17.28255367921212 14.289621855817607 11.970998979240722
Pb 16.409428906719608 11.136410930819192 12.613554814271275
Pb 15.165331876517543 17.052803808857877 12.222906680188842
Pb 11.024159341374641 14.201974684773823 15.202000060688732
Pb 14.678779183455454 13.315095007256708 13.996904822167703
Pb 12.543371684575336 11.496897263269634 16.153815631652147
Pb 11.84420183061501 8.412024616860755 16.76207208740182
Pb 12.429423987896747 15.09168583263097 11.957221028514905
Pb 10.542956459842918 6.900172602986494 14.456110638826319
Pb 12.97975145315474 9.07711532286068 13.852284438785686
Pb 11.44600867720061 11.88893669150918 12.78661840605092
Pb 12.947448980299146 17.415747491040694 9.733046232496195
Pb 13.839945698987696 12.36942204567878 10.628139501652104
Pb 11.935440704119243 14.425145232755195 8.557617307952423
Pb 9.03962783500775 14.27035952478965 12.658394460098089
Pb 9.929546531568448 16.50916015338944 10.34051368948616
Pb 9.694481960079745 9.99641801056805 14.87039709199644
Pb 15.137214116842722 15.08418207352402 9.51526764109972
Pb 10.441034525409897 8.764354685163207 11.905917802843788
Pb 11.01522880436186 11.278830140904626 9.39119039124174
Pb 8.407001764985365 11.333300469584383 11.413758879760746
Pb 8.831752027138315 13.73587443043157 9.361319516796588
