22
Energy = -72.54502549 eV
Pb 13.485490552874767 9.037473933465142 9.995268446963903
Pb 13.163176142978497 7.5194076729051025 12.700580369384433
Pb 15.1756178428904 10.263504986659296 12.663107390417945
Pb 14.653568729955762 12.115516530918459 9.397903265686336
Pb 11.293524123090892 10.910453470417924 8.295394337191384
Pb 10.325271875881011 8.532567193320409 11.100139529830882
Pb 13.535125526391433 9.16601462855928 15.458135787970372
Pb 10.524394637150854 8.077335798522268 14.480093399518848
Pb 15.13642154146132 13.599144397988171 12.404709858361189
Pb 12.441519805473533 14.068233201995158 7.67019501818179
Pb 11.937125578185396 10.703469913798562 12.964834397975414
Pb 14.1334908148851 15.414394045422199 10.075110015142632
Pb 11.799657610868303 13.00414250292732 10.774997272999732
Pb 10.84199022794882 10.790264180952343 16.210134138249323
Pb 13.530431437013453 12.575024281644993 15.14934029618628
Pb 8.702848581117514 10.817575027945239 13.560943104500575
Pb 8.54672919131173 11.23973077723624 10.247096577093934
Pb 9.339831210112193 13.698632841928257 8.500450594537964
Pb 10.98388355459536 16.11577819768715 9.879729776974239
Pb 12.323855811156617 15.413581676965235 12.950512808836109
Pb 10.29407504362632 13.529279163922068 14.823222693077279
Pb 8.93763748299707 14.206238693329668 11.840143137652012
