20
Energy = -65.21170161 eV
Pb 16.788655839927916 14.952775053185663 13.550021327814115
Pb 16.574814485948313 11.81219550261284 14.34459280735512
Pb 11.05702236067102 11.931900687277983 9.283117952081552
Pb 9.297151181166251 11.64422678718038 11.884929983139745
Pb 14.018603418084934 10.742454963130678 9.574698247539871
Pb 11.69897629580599 15.901540833246603 14.262839409954138
Pb 14.991188624190647 14.081913978130785 16.093769716855203
Pb 12.932658629011128 16.064574464943473 17.18081377565329
Pb 13.491700562042872 13.95580069119522 9.248512808335974
Pb 11.7646119048871 13.116604745540432 16.43482368911638
Pb 10.703129729010739 14.743553767351099 11.184486222134744
Pb 16.072762119941913 12.929899457271139 11.113405586073108
Pb 14.708614924619521 17.072206252563532 14.695385724116651
Pb 11.672213400825006 9.473294458680204 11.431609870083506
Pb 14.117519264626653 15.800061747953572 11.747769492880888
Pb 14.909640745653448 9.916703591485255 12.491611754578898
Pb 9.449363480632762 13.663174014592359 14.253149780234585
Pb 12.741145618899589 12.510746006173093 12.617560188137501
Pb 13.831576702707979 10.725701791551849 15.57215561668553
Pb 10.720882976739826 10.5029034713279 14.576978312622497
