23
Energy = -73.54011998 eV
Pb 16.458611799790226 10.928709571324909 16.343101645854922
Pb 15.630916381644095 11.83555170699162 10.283784094175282
Pb 16.296425855424904 14.070643682186109 12.290951754741817
Pb 15.408912572048829 10.97127882383346 13.480775740496334
Pb 14.92727915581226 13.196732918606145 7.494169929777947
Pb 13.888156236040517 12.175170599067288 17.73099057513255
Pb 12.946768661781354 10.727604084551956 8.999244856620393
Pb 15.591785513580035 13.941099208570735 15.467269767827487
Pb 14.42876676586632 15.24762959678521 9.960715718556829
Pb 12.82550525191167 12.511532493434434 12.010657027019422
Pb 13.33812142243608 15.784122354441648 13.282168779659152
Pb 12.387931167182861 14.163719972065385 15.951501323567935
Pb 12.01740396364473 13.672406400203325 8.055959297657179
Pb 13.626342590914318 9.251060211694307 16.472042362220126
Pb 11.127162223891846 15.512672548419996 10.52483292231473
Pb 10.923034474528773 16.781092667800493 15.992462537626995
Pb 12.570900969993751 9.61028620491387 13.581475611122984
Pb 11.051460019786816 11.234102149202924 16.246391142869754
Pb 9.908303710998432 12.42926988576533 10.208404069016884
Pb 10.479408610391248 17.32197315985493 13.00637001830773
Pb 10.895843620541857 9.318794805971509 11.035457365371125
Pb 10.163638474957265 14.207796315981065 13.604452095366534
Pb 9.55713307656855 11.003143503073478 13.314211794778004
