29
Energy = -95.66663179 eV
Pb 15.106625767473464 7.714127404315651 13.707507221096416
Pb 12.718218800349241 9.512260432902522 15.156662668712148
Pb 15.862334747369827 10.837287399903936 14.53272032798139
Pb 12.002202874353543 7.298237235780045 12.771890010850491
Pb 13.583569129814824 13.26001775180389 12.758981085020139
Pb 13.73900764498426 12.434612534778587 16.482441060267778
Pb 16.0773899863363 14.303035782558966 15.073398557876088
Pb 10.913292894491084 13.008424423854112 14.9773097584961
Pb 14.435140263137837 7.175380443069774 10.544354349041583
Pb 10.49485834373474 10.289268750603764 12.63250459604084
Pb 16.64100465871253 9.844560696095156 11.049882494063372
Pb 13.624872229343914 10.166395143029913 11.964334700474653
Pb 14.053352570129048 15.660130993546906 17.295687682693934
Pb 17.116759443283488 12.915701108717949 12.2407305813479
Pb 15.464223550682004 17.546844665547102 14.937785922981588
Pb 10.700161640758553 16.065432953194527 17.133434194154006
Pb 11.529324155847483 8.665624194336548 9.857088551594261
Pb 14.34832798782649 9.893106335443678 8.66541252646924
Pb 15.441611257798815 15.833088236375684 12.10249504485762
Pb 15.170219737942668 12.883214300413808 9.694313913109736
Pb 12.79636159571877 18.56841846604482 16.49830512231245
Pb 12.342826833040256 15.88706448041835 14.282516865071567
Pb 10.072044393500105 13.92601113973925 11.871158426700662
Pb 8.835150974467414 15.539473247892643 14.497019685491065
Pb 12.958232377139018 18.607090171436298 12.923466543965032
Pb 12.64840272729206 15.574471485405411 10.46275339396841
Pb 10.092783378549848 18.51488537950027 14.862617338769528
Pb 11.967155558471326 12.137840533955709 9.735061452439806
Pb 10.143214496179441 17.207947813086708 11.90433799534955
