29
Energy = -93.69298294 eV
Pb 16.437283416156077 14.222118844877384 11.340652330515944
Pb 11.572946726292843 16.731675217116404 17.45306570129158
Pb 18.16140273680785 11.475702513167702 15.543405207171235
Pb 15.177234678884515 16.851959918823738 13.458189549756174
Pb 14.475519244740026 12.591410387973852 16.60013975024064
Pb 10.595645783536566 10.30742485967192 13.4121706496755
Pb 9.590545408808671 14.98551820211962 15.362360389227096
Pb 19.341746666095915 12.896988731035375 10.351827235380643
Pb 9.955610089285202 16.243785690745728 12.240112064873319
Pb 15.4319056669482 11.854233693783202 13.37969220373671
Pb 13.274744904886278 14.482335780655191 19.08866442087491
Pb 21.849800311791697 14.07962456271515 11.510708091711672
Pb 12.482279228949645 18.266042209559913 12.385508323391047
Pb 9.102521877957157 12.919629328621873 12.712533294964189
Pb 10.12272198478219 13.815345807695412 18.302537209588632
Pb 19.13346330618348 15.709259551464735 12.278028105465816
Pb 16.658336351127033 11.269518566201933 10.223902194027357
Pb 18.408351232511937 10.65187531458387 12.627159284137019
Pb 14.831488758689952 15.953345129610936 16.66802796330796
Pb 10.302904598287423 18.19231692142854 14.802417843417498
Pb 12.327208055418254 11.546612885901254 18.73522727635264
Pb 13.422074080546414 18.707428900153808 15.483817416048822
Pb 11.35888593926202 12.074163191979705 15.81623685605382
Pb 10.344143421241807 14.0667702283306 10.049386132297123
Pb 12.747236140781656 14.690750460151815 14.519684722457358
Pb 12.29269239521347 12.148245881912382 11.680421729719258
Pb 20.37784720175251 13.020449158902402 13.897728330672095
Pb 17.314391158275342 14.30846792447264 14.5237030536217
Pb 13.165815888685522 15.265108498442851 11.30648442382674
