21
Energy = -68.31134596 eV
Pb 10.880903660135374 13.233112908557915 7.635621646964319
Pb 11.162692093506434 10.139583595817381 8.83087910333787
Pb 13.836560466270866 12.100498458613226 8.122039645358301
Pb 8.681892915653703 12.342068984290464 9.734554921666927
Pb 13.13215037630592 15.164650890443129 8.883720934971926
Pb 10.11877353242682 15.355017295974735 9.95340507951672
Pb 15.16610150972313 13.61434324937063 10.985619750212688
Pb 11.830526920363528 8.258151918295825 11.535159417761983
Pb 14.344499589583311 10.203626430399533 10.73957510167948
Pb 11.750063180454152 12.606909233689636 11.06747602330433
Pb 9.920701395116241 7.556299705925884 14.075867185869077
Pb 12.602643860059938 15.684667500963506 12.091445132608191
Pb 8.781251374382117 9.522705586122894 11.503154985696113
Pb 8.443024481373678 12.490833471032731 13.02860937951207
Pb 11.053995814427287 10.520393303411572 13.896385047808907
Pb 14.422297241094634 14.304230546394882 14.295440778473177
Pb 13.945642050411555 8.961324569205976 13.882637837502651
Pb 15.76304045669073 11.56537103189577 13.411658328741492
Pb 11.261276581068994 13.631596113060237 14.520106641798412
Pb 8.032063706956214 9.885788010061253 14.759014749849175
Pb 13.593946467613646 11.582874870090977 15.77167598098476
