22
Energy = -70.20073248 eV
Pb 13.022852319732875 12.292575670461328 16.962302183184303
Pb 12.028238830610745 15.285019143828308 17.000013166713348
Pb 14.86426516447651 14.93893211028805 15.82957555002346
Pb 12.22850443301832 16.195475312241726 13.909021173402376
Pb 15.199665062845433 16.211997060877977 12.942762771420917
Pb 15.909350426713663 11.033194059215491 11.593773669651634
Pb 16.554924149447835 13.214061520753132 13.764874997055223
Pb 13.671710475651103 11.072996031289955 14.122912206183917
Pb 10.37749248206269 10.652463562623998 15.95182385383864
Pb 10.515087338976905 13.529531370690274 14.799405332446835
Pb 12.734351600672476 13.489379341296479 12.289753815514334
Pb 13.828265515471683 8.566880945276733 12.002026248323554
Pb 17.82753153169165 15.221177258026506 11.77239973147352
Pb 15.332175296440322 13.898559982020737 10.405726415064299
Pb 12.918199625941442 10.974470304357569 10.038197119260518
Pb 11.735848235128593 13.857685772599869 9.268321196109746
Pb 9.353536282638139 10.894660547544527 12.898165428542734
Pb 9.401149894607924 13.988015521293327 11.56969985420287
Pb 11.376102179351337 8.488254006231399 13.987770366013415
Pb 10.723084326491524 8.574048965934074 10.810733778416903
Pb 9.542309607947168 11.105343588632856 9.576783218996727
Pb 8.644287214111566 13.679784147779289 8.512272784433502
