26
Energy = -85.33839261 eV
Pb 8.967098721217972 12.116717207746863 15.377783057816178
Pb 9.740424759814083 9.88850363161233 13.233346178892754
Pb 11.97318121030464 10.916581818713901 15.598542068925559
Pb 7.798717745899553 12.692402291374403 12.0793699935797
Pb 8.01962049513226 14.950513392888421 14.522623371721142
Pb 10.9034388288745 13.500737613640476 12.74398726839466
Pb 12.947910155976029 8.686416630857734 13.22618714722457
Pb 10.152283362955615 11.05249237495145 9.888096664010142
Pb 8.376077665741494 15.95270141566771 11.6748334742755
Pb 11.457836087257432 14.27992439499571 16.020528576806118
Pb 10.661775155435222 16.778533706269894 13.874771160859359
Pb 9.67825338770584 14.180716956818474 9.479134025457395
Pb 10.926021231821027 8.19368633695598 10.892916276513002
Pb 12.074866263684022 16.090172037367704 10.862964841245683
Pb 14.573909660537185 13.126402088642104 15.996893569389929
Pb 15.033561219846293 9.863710674776485 15.334278736012337
Pb 13.721278283915613 15.66610733276816 13.848452290397036
Pb 13.364339367190208 9.859084710153684 9.881285282140082
Pb 14.424363507945435 12.191681284278097 12.720439489636599
Pb 12.744924604738097 13.146874899435312 9.222658205128615
Pb 17.57988191402403 11.406936827437843 14.445879721920408
Pb 16.766799195953716 14.518120901330581 13.807534686882228
Pb 15.189288278806222 14.932458417728775 10.836901231064097
Pb 16.23793481730043 9.553514057085689 12.021358307953294
Pb 15.74398047779513 11.929053262509578 9.432531734120737
Pb 17.92730725528984 12.398556161554486 11.593196893587578
