27
Energy = -88.45217388 eV
Pb 17.418845715693955 13.667193245254285 12.814185925946681
Pb 14.427034689266605 14.273420653750227 14.096951177221806
Pb 16.182378648908085 11.319948694993297 14.949628159764396
Pb 17.372544167213025 14.122858202483943 16.090348586617406
Pb 13.90270939541846 13.743984729214935 9.77646783328994
Pb 15.474125900971112 16.044319714435975 11.422143655153429
Pb 14.083598611163922 11.312005378863788 11.923671482741987
Pb 17.059180493214715 16.635518898918143 14.229844700748645
Pb 13.624930972780868 8.197296981149195 10.706896271897932
Pb 14.669591198693462 8.768410351642233 13.665019594797265
Pb 14.49053344548932 10.466580269841486 8.771584339376233
Pb 12.24827077901753 12.18972805281185 7.4715262644730736
Pb 14.506199834987015 12.971043340217447 17.24295600709627
Pb 13.932971719439662 17.60246353433056 13.842871076515484
Pb 14.861284136513428 16.21081727637695 16.656169612355782
Pb 12.825344523970099 10.424863045351046 15.898925508708011
Pb 11.445169286126452 13.020507788251397 13.097994914500532
Pb 11.216670012110418 10.15277048776602 9.63378500418189
Pb 11.421172447980593 9.351644475130756 12.812549338567443
Pb 12.02533149594063 16.129533819739173 11.398282256078746
Pb 11.302331263653002 13.37422866383159 16.539970612006805
Pb 10.450435224280753 13.62404078956434 9.76853421884604
Pb 10.985959956836144 16.068552793933865 14.593476378953318
Pb 8.668166813275393 11.887793970831435 12.083669728699713
Pb 9.62574291346002 10.877664641052721 15.07350253104173
Pb 8.86156591528407 15.269684681213349 12.120684318049562
Pb 8.465009660122053 13.84022474086147 14.865459724181024
