23
Energy = -74.28031548 eV
Pb 11.522565152815073 16.01383040150193 11.902224393718097
Pb 11.866102830942717 15.945283918257015 15.255278096571107
Pb 9.943934543250013 13.64533068302046 15.898283765111675
Pb 9.904340850631046 10.66673145727381 11.60967763946808
Pb 11.576219742527472 14.907022567292143 8.849782915880763
Pb 12.035617934831942 12.92757773253927 12.374757605044776
Pb 14.400980884551387 15.38756489463675 10.290420738421991
Pb 12.697259397774129 13.693042916212637 17.622665606951433
Pb 16.701731272607375 10.658821259697039 15.816072350895178
Pb 17.16043562468027 16.027488498818258 15.63342826385489
Pb 13.799092112138418 12.677508596512125 8.424392418177133
Pb 17.249105790034896 13.226663714713599 14.216447285558077
Pb 14.468303377119547 16.2757476800272 17.17877124563457
Pb 10.636465479900334 11.846746485377096 8.535758483238444
Pb 11.221350245987884 11.067562030500286 14.93173085964219
Pb 14.611114907713123 15.415626293229671 13.716904713934083
Pb 12.947507643956536 10.272242226042504 10.35069779873637
Pb 15.169004062350247 12.502722291096266 11.477580298408748
Pb 9.308763637458956 13.801908252738132 10.781967093589653
Pb 14.068620406614448 12.351715627444971 14.918169081757602
Pb 16.14273365526867 13.450999778259845 17.38082016629265
Pb 15.177852778297385 9.779988868994874 13.109078642019938
Pb 12.112054503456267 8.761262262986582 13.053787260386038
