21
Energy = -68.81006478 eV
Pb 12.767776161523033 11.680233427383357 7.912057743181819
Pb 15.633896203372874 12.810765127933138 8.839925706172822
Pb 13.107565795606126 14.804643553745477 8.778063840480147
Pb 10.339221612355814 13.196373910555723 9.535250685536571
Pb 11.041954122921657 9.887836326440016 9.94311856183496
Pb 14.530723723189638 9.67163655244502 10.113960883600935
Pb 15.133978439837696 15.01491276229977 11.578316245168068
Pb 11.683221166960385 15.602222729319118 11.545972328576498
Pb 16.681047160734963 11.933058524648715 11.64909757160553
Pb 8.776580101581136 9.584306514312864 12.217897425725056
Pb 13.304171043469875 12.391103798100833 11.292294932092934
Pb 10.627827866896725 12.191614172549956 12.953940437724928
Pb 12.410476504554781 14.643809256214368 14.747821364904555
Pb 7.604327594280377 12.227554000271505 13.966082800440802
Pb 11.819658347630613 8.897934938013158 13.12157820023486
Pb 9.364198693512813 15.108712617036577 13.735651445778
Pb 14.942966149415218 9.907033263633213 13.464137769581706
Pb 9.474981915572943 9.975719261142512 15.374244678789715
Pb 15.262584907851348 13.04015871386022 14.33024666220796
Pb 12.577963391525325 11.270451908433287 15.550628027897748
Pb 9.792163449112662 13.037202993566739 16.226997040370108
