28
Energy = -92.97608342 eV
Pb 17.385908019554705 11.923879281638577 10.574151630345138
Pb 16.500670611902603 10.937047408053687 13.620348027957567
Pb 17.4942076128109 14.01256637645701 12.927034216701488
Pb 14.941029457377407 9.681267188932623 10.819916015837569
Pb 14.865563986670272 12.193428041015403 8.613226618795958
Pb 15.944080901693727 14.903928194448547 10.063102694833495
Pb 13.44010860745141 7.992445829396964 14.183299929585642
Pb 14.344756650025458 12.847485287575658 11.929141284528825
Pb 14.23404113166092 10.563422970505746 16.044427453091146
Pb 11.967998326753024 10.74575111091671 9.28938450875343
Pb 11.98354652160242 8.097237741031163 11.278250179141946
Pb 14.992093838346534 16.06257890921673 12.967421733037298
Pb 11.310754737441666 9.249368089127877 16.477394035352926
Pb 12.176293660491382 14.225199556086523 8.815596568562535
Pb 12.249630580005723 16.72797282346894 11.181269821027454
Pb 14.976905239586499 13.659510346367494 15.21349982789845
Pb 9.304856607869526 10.093463228115002 11.476292252994167
Pb 12.037726881545545 10.767893842785139 13.408129534942088
Pb 9.399729544956928 15.806513850175472 9.751271532534181
Pb 12.112855546741178 15.753554239257094 14.541107984224192
Pb 11.017103879517034 13.725418465691046 11.986635359333759
Pb 10.106354251147987 7.937014931550667 13.87673283658137
Pb 9.263294875707038 12.638537582216625 9.261918779139993
Pb 11.682174425353105 12.634614359384448 16.288367988769938
Pb 9.346893582697128 16.702765253724724 12.767939342294342
Pb 9.000371401292414 10.923543744135912 14.802440504611916
Pb 7.815050964930623 13.81115935284293 11.93961884052963
Pb 9.195965839904938 14.255446989627748 14.8670359677608
