20
Energy = -65.24599006 eV
Pb 14.137987202150109 11.481177214896059 9.080615170329889
Pb 11.305301037681348 13.09793750863374 8.872644019947144
Pb 11.70008992740291 9.597736990977513 10.028583800201876
Pb 11.94125752978879 15.982366975113479 10.517365254109466
Pb 14.85434223351793 9.448314566488035 11.417240968032667
Pb 16.106465174197666 12.828606096846539 11.697246441090947
Pb 8.800598815137064 11.330200576478452 10.489304953755937
Pb 9.4438764819462 14.428485594353353 11.404071911981308
Pb 14.507200323615972 14.610591102335645 9.256400137573923
Pb 14.650476058982258 15.872973162522316 12.219786135468178
Pb 7.305039684460334 10.504233813295206 13.281284459801793
Pb 12.819524337395135 12.662643750222502 11.959241214107488
Pb 9.47344465743336 8.604707756111264 12.165384620704907
Pb 9.713144583533886 12.34611897531861 13.743095649970257
Pb 12.466947304044279 8.996810013600971 13.496346785357334
Pb 11.770108659614587 15.283340371181401 13.81744073583185
Pb 15.172077590172506 10.81093067462443 14.248396014357136
Pb 12.378647543814255 11.781857583606318 15.55324342537038
Pb 14.783748345828021 13.933117617472302 14.668249203158318
Pb 9.816474676804559 9.544601823442619 15.230811266370205
