22
Energy = -71.70859269 eV
Pb 8.294740218181616 14.99958668712951 13.01711862225474
Pb 10.317143858104615 16.136259041589113 15.533114037158361
Pb 10.814938246936423 16.954383472470873 12.456619132109111
Pb 8.7290438478085 13.371220901996015 15.825870326770055
Pb 8.526229947633025 11.458938745097626 13.171311003243952
Pb 10.441096982375168 14.515186860860437 10.298041587595982
Pb 11.263479942841172 13.610792906314904 13.395947962655077
Pb 13.33127586165562 16.079503753123557 14.389533524527476
Pb 10.478890219404526 10.624727856916824 15.696910187891461
Pb 13.462652153751623 15.425304481893559 11.159508758966293
Pb 12.07442774591826 13.4765124720286 16.525431993521046
Pb 10.00933776789061 11.330785301539608 10.336384207407804
Pb 13.614815366338167 10.949351638510018 14.526873239449273
Pb 13.111219543007335 11.728242667441362 11.367823465849954
Pb 11.011948317827855 9.432177526843152 12.78326280811558
Pb 15.37791152343788 13.553294449322179 13.19406205484005
Pb 15.639888145574966 13.031876078864864 9.804375255066198
Pb 14.121635379741454 8.483982172061475 12.391508360341993
Pb 14.91810273923742 9.763368626601421 9.469168750666595
Pb 16.4855417824267 10.436552873957579 12.298917290667456
Pb 18.28406093383048 12.855717459300946 11.63048448183581
Pb 17.968763708814677 10.671089688941073 9.432189854944296
