29
Energy = -95.46317949 eV
Pb 9.05125206813895 13.06094237593268 11.631243623674433
Pb 12.762412150601694 13.128146620158704 17.84101486632481
Pb 15.305836377214163 18.166994244204925 11.582020986849237
Pb 15.476039924042889 8.171426956214585 11.59248964780072
Pb 9.792747774631943 13.077014523510897 17.015726515263836
Pb 16.953102258806094 16.456621304826314 13.68613306208881
Pb 17.06377670383937 9.942482711909685 13.69169366777908
Pb 10.33786256284123 15.830043673586504 11.06069502291812
Pb 10.429370468361046 10.33339160772168 11.075446743190268
Pb 11.400382209402943 13.094076328257652 9.384029960631572
Pb 14.381874291514004 8.500600039265388 14.747650675664287
Pb 14.221145688487653 17.806044431129294 14.738191016207471
Pb 16.462618057068934 15.251938752315672 10.594336005053817
Pb 16.533528195381678 11.119920569114697 10.598283406999485
Pb 11.68472793835614 15.816234101340896 16.168552243636313
Pb 11.77716158393553 10.404073378753464 16.1683826318517
Pb 13.362115773417361 16.268822584264573 9.59614995672013
Pb 13.464324920880282 9.995147586986686 9.604628111163256
Pb 12.362775663696171 8.167966706905766 12.322217652354004
Pb 12.191815875256836 18.059757485133225 12.310629905205905
Pb 9.142982537595977 14.870861134908713 14.291532732774808
Pb 9.200566451211722 11.263298333666954 14.294785332175527
Pb 14.55165113628443 13.149984387458025 9.057376994371424
Pb 14.996148492318431 14.822984523941622 16.011512104401664
Pb 15.054675553887158 11.512263815145731 16.013671516189106
Pb 16.760793916541463 13.195344552393173 13.482245729264406
Pb 11.891748060851821 13.113114567005564 14.352346017131634
Pb 13.812856146127672 15.14815142441922 12.646236932474535
Pb 13.880526213871821 11.13748871069877 12.650065312860987
