23
Energy = -73.91341601 eV
Pb 10.506881468389048 14.148885929900096 7.730781197871438
Pb 15.560184366544553 15.526639274450543 10.283196811411962
Pb 10.125270401953937 16.714478547837427 9.41310379867396
Pb 9.036384543396931 13.763860086709435 10.536310027074906
Pb 12.50104281830543 14.681601139500366 10.403326251962898
Pb 13.68852626241356 16.544359036765876 12.788808570112778
Pb 10.361962313624943 16.149186080632496 12.534026498452398
Pb 11.663436247875497 11.755188868102705 9.566174522226014
Pb 14.80706129743117 12.239154602438711 10.20919813910828
Pb 11.072539145879327 8.443369652212779 13.985994460400004
Pb 16.077479479687046 14.050954537540616 12.841083397323331
Pb 15.717173797938864 9.964144582293402 16.252972135382457
Pb 9.89006692970729 10.560449194285587 11.887099733783279
Pb 13.040025814225439 9.205033571333427 11.332604276755877
Pb 16.735392386245078 12.874376829715494 15.618294224327835
Pb 12.029235271069298 14.26354398656684 14.728142721950663
Pb 14.691124354922106 15.379639323254452 15.707295913627972
Pb 15.935682667988699 10.742243454965747 12.897725514812757
Pb 9.283483870354354 13.227600494185582 13.659384723798011
Pb 12.692571559430323 11.323255765484475 13.763994729769161
Pb 13.745020971150923 12.479562207226186 17.082174331635144
Pb 14.279923364379579 8.130895188964478 14.084381462282197
Pb 12.49446245762738 9.54888012245454 16.5709909103775
