28
Energy = -91.78318279 eV
Pb 10.071289109308827 10.635746717104672 15.63593134967488
Pb 10.426222510697478 16.97748697976669 15.662674593418412
Pb 9.999230343623037 17.874729491767425 12.684430192213352
Pb 16.041155192392758 9.753183054467755 14.28488024682784
Pb 17.72057795577615 12.39391148930863 14.586369583687667
Pb 9.549742921701581 15.19185038257682 10.788592840899176
Pb 13.898696445769142 7.493252083610631 13.85880299473467
Pb 9.712367630670128 13.796673950792929 16.16605477683807
Pb 14.35652259892658 9.194447747649876 11.281345591884758
Pb 12.133605988172581 12.266593585679534 17.591503814782634
Pb 14.63251415033919 11.159352733923008 8.933122483371978
Pb 8.263888795539241 15.392925974333096 13.7037235518451
Pb 11.418880608979268 9.321902860608118 13.115421196851768
Pb 15.108173936479607 12.395361366621012 16.385984470724104
Pb 14.690793523158709 12.672312373820052 12.315011298798941
Pb 13.02741806217485 15.096701481099789 16.32193805903234
Pb 17.955615324321016 14.223315082175201 12.101360618183172
Pb 9.496877153243073 12.410860070730513 12.887408030730404
Pb 11.803665170722239 14.695892168577046 13.117768187232976
Pb 13.199035183559435 17.54344104944252 13.82884604080836
Pb 17.235264343516924 10.998140627188818 11.19279022052415
Pb 15.304802900208207 16.088060023393293 11.421923871490465
Pb 13.100677083054661 9.608706638470458 16.087038876679962
Pb 12.274261757213074 17.01562134149203 10.646304414669359
Pb 15.951534425335788 15.194250279204729 14.594111665149057
Pb 13.08172760075797 14.104693482413456 9.466427289013765
Pb 11.758399604552954 11.349454152820606 10.555543923283743
Pb 16.377793913655424 13.741867044811702 9.37542405049903
