26
Energy = -84.24126981 eV
Pb 15.0019852643726 7.94793003726016 14.064166907713034
Pb 9.033468150451464 15.16261160632468 11.308891109187762
Pb 13.00241588978884 12.527180678988037 9.150273174568328
Pb 8.125417519043607 10.094419781605009 11.15979369957634
Pb 16.034052100215035 12.327770584639927 10.849313578576078
Pb 11.94917751769181 15.853239321954373 9.973769130981648
Pb 11.788192826706206 11.705856337722164 16.13823075364445
Pb 14.937799927541047 15.152726598500692 9.50665206529829
Pb 10.199275323578487 10.548904107096952 8.60569238968021
Pb 11.065128686926888 8.970695048641826 11.43716290001161
Pb 9.547229355965136 10.329925155725226 14.107460494566832
Pb 14.559904681934164 13.505124443554333 16.80586357248817
Pb 10.334614833577163 13.915466336168585 8.03463729828968
Pb 7.873269470919881 12.667838440072975 9.462778004287625
Pb 11.587366003446508 16.273065302237402 13.187089799213608
Pb 13.605758365367675 13.897839132975742 12.463241358979262
Pb 16.742663793965264 13.12288678098127 14.41527136804481
Pb 15.13853877780268 10.500350559870922 15.95833278947997
Pb 14.737750254512553 15.968451091879947 14.685551899388923
Pb 12.140146611259292 8.677824726223433 15.04605338618577
Pb 10.592298468182136 12.320964520122443 11.49049064076089
Pb 16.896526169519223 10.195319149400218 13.057794790709439
Pb 13.588114047094937 10.630981935658246 12.817801632544754
Pb 11.789662254076344 14.933790493966578 16.155264482957005
Pb 9.537661469909791 13.735966258081842 14.397172717194097
Pb 16.578601724653886 15.419891058849034 12.10826954417348
