28
Energy = -91.97303602 eV
Pb 12.940336693083651 8.620908876327855 9.103251725476616
Pb 10.59376379958115 7.835088153209433 11.418686736359662
Pb 10.170176675127012 10.426227553550396 9.376962896561011
Pb 13.707873976057321 7.219392342631015 11.864787511427686
Pb 13.19716631330091 11.927538550864025 8.920965933141085
Pb 9.369585884672855 10.644364735768685 12.709204384658477
Pb 15.572715622480173 9.841799156316338 10.698588229962413
Pb 12.60356648985976 10.556241143731684 11.904450771685857
Pb 10.201024089186102 13.530999532715429 8.076523202033204
Pb 7.877040643270801 12.679355541383426 10.307801850329398
Pb 10.634510070534441 11.887722976932958 15.483280798993835
Pb 15.255473578624937 8.973525999373104 14.043095009698163
Pb 11.03380698894112 13.594475018884227 11.407319746235984
Pb 11.841172918525599 8.549097429792447 14.403982231876718
Pb 13.570256332939993 10.553753449578819 16.397444990189864
Pb 15.30319618003186 13.6090165987005 10.789174363103873
Pb 8.607838815322124 15.787419590129577 9.787434938243349
Pb 11.878678174023026 15.959935074108447 9.318673373083392
Pb 8.26592265699386 14.573747361553478 12.864668107591198
Pb 16.804478332025084 11.739074813365606 13.117992975032482
Pb 13.605478977477569 13.05904428778889 13.899691124686145
Pb 11.074854772839984 15.230204191680354 14.852379739772369
Pb 13.62045002987698 16.179408403896836 12.332880491314889
Pb 12.833305025756541 13.53952528956921 17.240341145528262
Pb 15.92174934481939 13.07956074418685 16.211458782850883
Pb 10.401211314162392 16.993959035364586 12.107744757965985
Pb 16.519261808745224 14.880715927117329 13.5382142711841
Pb 14.2634936692524 15.930718482957857 15.607280326954905
