27
Energy = -88.69502173 eV
Pb 17.639820908653125 13.398446298272392 8.867125438629683
Pb 17.374596207498673 14.237460884581948 12.122289658580105
Pb 17.614287617786523 10.96641810252917 11.111562693719375
Pb 15.516992889611524 15.897506590723728 9.694609313490048
Pb 14.640485668236447 13.571330405675777 7.441507901544535
Pb 15.834220905055302 10.694223576051249 8.416260027147583
Pb 13.197898016442796 16.52680687308638 12.016006079060611
Pb 14.869527162746538 12.913787470505058 10.737034690156179
Pb 15.763704656012388 11.706837887663248 13.808940429978358
Pb 14.829940818564838 14.782002275751507 14.322899881207167
Pb 14.434293573490608 9.783253832651516 11.387655592485723
Pb 12.21229356441398 14.846886367726533 9.432734602999764
Pb 12.380866486001597 13.41612425582952 12.578479865066853
Pb 12.493935687865095 11.413532390428426 9.069516900982904
Pb 13.093320015350814 12.835166362487424 16.487398919300382
Pb 11.35325009780217 15.464043027643152 15.161479519484871
Pb 12.79001084669723 9.835716074939683 14.865641189008961
Pb 9.868166342135645 15.472669022816373 12.29912863264966
Pb 10.866729943613077 9.828521683523608 12.089848179939189
Pb 10.48485666886781 12.070710612360214 14.679616456796497
Pb 10.779499783051495 10.442192791292518 17.575234188284085
Pb 9.920458813703672 13.594835812062675 17.614276283199107
Pb 9.772387667950262 12.582891383759502 10.702325180783646
Pb 8.10202540934757 14.213351816435106 14.861725508867393
Pb 9.522643513874852 8.871614875604955 15.037728580819548
Pb 7.879721530573125 11.193951859897131 13.155944039716868
Pb 7.792140069998399 11.275866027693832 16.531777555496667
