24
Energy = -77.48655039 eV
Pb 16.820454380579047 13.819377440839174 10.864320481292582
Pb 15.59742514678541 15.533613004914875 13.19276419195282
Pb 16.3016704885869 10.772297476537084 10.75057041138268
Pb 14.483172312047403 12.458841641817191 13.171726476989301
Pb 14.068943072567594 17.076221910854045 15.39656539503416
Pb 14.327343333511903 12.912819007125384 9.03533839891559
Pb 14.662548954972465 16.05446110195084 10.069847203151733
Pb 14.88164694616537 9.224136589923313 13.232084091579326
Pb 14.354202935441855 10.836574965153135 16.033667498305114
Pb 14.317872309859514 13.98248484354219 16.05336008413573
Pb 13.43530887993508 9.65602666993526 9.731715378567687
Pb 11.926661481385205 9.092619696799208 14.908705551778613
Pb 12.777574699853727 17.260891887018108 12.422063733518852
Pb 11.569402696131286 15.053126573546198 9.970200573954672
Pb 11.414649997756761 12.341896675303573 16.043645539208487
Pb 12.46303921432711 7.519622443173438 11.861020346595202
Pb 12.025769084082969 12.216365740757805 11.321417102563194
Pb 11.292054053632329 15.69349390894402 15.347923689322021
Pb 10.379414665476473 9.644747248774285 10.294298417875403
Pb 9.593601716289868 8.033598260222943 13.016738450036367
Pb 8.982143088929286 13.566659696805305 11.107220648674222
Pb 9.713989851609812 16.30258607334817 12.483959067889078
Pb 9.84945015794252 11.142341129715367 13.336510489415264
Pb 8.858229817337834 13.901765298207046 14.450906063070324
