24
Energy = -78.06146012 eV
Pb 17.196063401328825 17.147481534949204 13.588939116535885
Pb 17.716831373417396 14.519966625875549 15.429723107301578
Pb 15.745897994898012 13.228508454653554 10.753185666867045
Pb 13.48489666411868 13.162576708108633 13.442283449006617
Pb 13.384874346404896 11.747174517539094 18.05763486384571
Pb 11.229731365871315 11.362519924902417 11.2592654971461
Pb 18.25418180849929 14.419209434789476 12.227439665694073
Pb 16.234780678746286 12.080748151593298 16.832450647896714
Pb 13.9975268718424 10.443809523636501 15.108143436154842
Pb 11.17586882916702 12.128086970525471 15.55364661416553
Pb 9.902854705595846 15.14027734174861 15.564108862822241
Pb 16.27768198282086 16.452760732252987 10.537271527796939
Pb 12.409897325155901 16.904210628543805 16.66168192037905
Pb 13.402153188016246 12.139286958300717 8.922707424840427
Pb 16.72974985188405 11.72384673920381 13.612034749542033
Pb 14.359839131267623 18.086009761057095 12.55756675053813
Pb 14.623372024844656 15.700083772844755 14.786864308961785
Pb 11.41943746339238 14.174530559487573 18.154152059499665
Pb 14.685976646185901 14.780472260591242 17.920841221200188
Pb 11.49368376403944 17.026345067913297 13.45708482452445
Pb 14.265430179999427 10.449405270284682 11.61464951560076
Pb 10.866503196729873 13.938148797536234 9.270539043513299
Pb 13.168649417924595 15.311595600972922 10.935930539491695
Pb 10.415564258779481 14.127468643027258 12.566486787139052
