28
Energy = -91.17162215 eV
Pb 9.727242267446357 15.051893706067812 1.4472096055629922
Pb 13.922369748549485 15.317373958496848 18.942467862185453
Pb 16.741705288753273 17.260420768712763 -0.2993820883175479
Pb 14.735026368175019 15.89234372994359 15.252694338898808
Pb 17.973415143867456 17.263272794282464 10.902338956233246
Pb 13.627314910825731 18.461935847508258 19.926765449358367
Pb 19.643381860218863 19.22246819680081 12.825653669754342
Pb 11.668112047165648 14.541067630131522 16.616061065672962
Pb 18.29341137906301 16.350486908714636 14.472893150916722
Pb 16.343210073024988 18.851745701451975 13.389642042561617
Pb 17.04878181361833 15.062616249440957 17.684161076752627
Pb 0.053982444765885595 14.619156884839686 17.06139727904725
Pb 18.144069743637075 20.019456309916812 18.802379275047944
Pb 15.448865455510372 15.867526693288758 12.006808664298173
Pb 15.385242011803033 13.0616612676575 13.477174234538372
Pb 18.320073627836702 13.970094619039903 11.960807176978896
Pb 16.036418347198715 18.293069206701492 16.986378062631616
Pb 0.6567320098814537 16.383790241223352 11.930630019937642
Pb 11.319177232205147 13.477951967648089 19.634040902055016
Pb 0.6908953269585905 14.053720295774793 14.014766416427342
Pb 18.12292551231606 12.857643713947436 15.19724422733077
Pb 19.641885754362736 17.471979372362032 18.08629811408505
Pb 12.64793631162673 16.021847407984954 1.528226614277548
Pb 12.52826679741553 17.697770588919 16.938568455092636
Pb 14.685326216625558 12.969639276656745 16.61808969352391
Pb 1.106414058428306 17.29959889554652 15.083981879690292
Pb 10.675513968873695 16.696746883499273 19.26385471914623
Pb 18.765159842643524 19.8954468958078 15.745922549011082
