24
Energy = -77.59616324 eV
Pb 13.244105515633336 9.417349419517304 11.089427043303862
Pb 14.613870384522258 9.389029945583744 14.039727818037406
Pb 11.377503509415511 9.38939437345313 14.36471467666847
Pb 16.430509974661604 10.26228533289692 11.620996641178284
Pb 16.021550422165465 12.321522255269382 14.173107421392409
Pb 10.086245795490376 10.023664133310131 11.49869793371066
Pb 13.323391936480284 11.424179224976609 16.248206747256624
Pb 11.627251519490581 12.172294007002689 9.352919671196714
Pb 14.819716247591488 11.813580592146973 9.021659518288706
Pb 16.886431001204656 13.324231553651053 10.939619538474089
Pb 15.46322771209273 8.86489379298616 8.937309984371808
Pb 12.019695621254302 12.890942887881467 12.727121446013996
Pb 14.585086234533856 17.529848295450396 14.723538782133348
Pb 10.589532235574765 15.166992425538874 10.216637417625487
Pb 15.442155885262535 15.308070110417386 12.815225792198039
Pb 10.170079841206046 10.868154140729882 16.8105484604506
Pb 14.210037473202725 14.534685038903064 15.912982701942708
Pb 8.873752210653693 11.916467396188747 14.137374508046564
Pb 8.76589157472035 12.784030161853323 11.062069413061938
Pb 13.84093893592556 14.805812586918545 9.956425105093405
Pb 10.861660331898621 13.887159843409862 16.223361882597487
Pb 12.484314796868548 16.813955373106108 12.27961137933838
Pb 9.54453656336039 15.203720889987753 13.368352203027095
Pb 11.62356015428367 16.792782096313733 15.385409792085344
