23
Energy = -76.03289521 eV
Pb 14.843885260330085 14.120792266212122 14.97522442039615
Pb 12.658260035327622 12.006360696676639 15.882163550778829
Pb 15.606590159504591 10.94573586731351 14.133271015469639
Pb 11.823355627641462 15.01991616285224 14.6854639214481
Pb 14.127361267472873 15.897475162695208 12.155728282672177
Pb 16.988704819721093 13.87326026397399 12.71976933525464
Pb 13.855516111655298 12.650777520997242 11.957230092601334
Pb 8.83841333141186 13.854353479184462 14.259105345590344
Pb 12.503077150995564 9.219607322484427 13.966899928765553
Pb 16.03624878225873 14.155616343211475 9.648979255929916
Pb 10.642247000106352 15.27011671798306 11.577706187525497
Pb 9.742309213236753 10.690447623572645 15.442176291565811
Pb 14.592100082949269 9.291723114854099 11.419318057325452
Pb 14.135146280959368 11.512475071054086 8.863545085462183
Pb 10.662814074524455 11.815274155275867 12.460018687313635
Pb 12.937831414269132 14.668525390590474 9.281562167478988
Pb 16.892105120836106 11.335437551428297 10.734460347986104
Pb 7.905700317730743 13.44046324299728 11.073129171906732
Pb 7.3654402853509975 11.121836737882562 13.294423438334515
Pb 11.477416579214843 9.321260369252974 10.373882795782258
Pb 9.393775024763146 8.59405961719349 12.885088500884814
Pb 10.495424365044254 12.49258592035916 9.151881715358948
Pb 8.344076396419288 10.296364171877896 10.287003424095671
