25
Energy = -80.62779384 eV
Pb 14.470837693607818 15.084971401436674 9.950345793558574
Pb 14.098513876015145 9.43777947751938 11.342200884771678
Pb 12.448001374739128 17.010486396832125 11.587537628792726
Pb 10.940598700418304 14.639257232786761 10.155470394224393
Pb 10.984150400612863 9.360982683275479 11.827952295009867
Pb 15.949902312493277 12.328688730585123 10.423273488039213
Pb 17.642788274700006 15.112684797620313 11.205421292612144
Pb 12.566049406721321 12.118333064657248 10.818559771910138
Pb 9.322785507427167 12.263170308123978 11.927502552901752
Pb 15.207617518795562 16.264175869883463 12.99941041773348
Pb 9.90051800489139 15.588596733182845 13.110807021705575
Pb 16.214833376252276 10.751462036972207 13.42485414852523
Pb 18.677644766248832 12.228977780581202 11.902250934463142
Pb 13.695868186241592 13.354799376024634 13.534467399592467
Pb 8.844823009580145 13.182978212665649 15.065016365894495
Pb 12.449033018323165 17.38731456166892 14.796349656493616
Pb 16.97080239650197 13.824329572840263 14.191023314441141
Pb 13.040526946017076 9.626992030429319 14.46063206113193
Pb 9.84358443453461 10.239503083707055 14.545784122317254
Pb 10.534803391077324 15.474754534174199 16.37196227495378
Pb 15.497850913854153 17.343828193387342 15.978284552507624
Pb 16.65083562023597 14.72521117267546 17.255430968860043
Pb 15.085159160952468 11.92555704603447 16.317686340663045
Pb 13.578738178943535 14.959422042226596 17.118311114436462
Pb 11.880386846275705 12.262396976170107 16.186118519921024
