23
Energy = -76.02453566 eV
Pb 9.889805546764686 13.230373916725915 9.374886063721288
Pb 13.064002364271106 12.135793965614916 8.365273212577215
Pb 10.546260216357375 10.127931338519979 8.725542301075304
Pb 10.373241302865985 10.338142362087764 14.075707562580126
Pb 8.613182142182659 10.796300665647175 11.258726649897781
Pb 15.454444800537665 11.561891397696009 10.827840802715796
Pb 11.31777635006217 15.664837627676787 10.936162454935557
Pb 14.353999157352991 14.61890575491246 9.976555468858452
Pb 10.829018240574596 8.391625407543868 11.484681865036462
Pb 9.33400627570806 13.675829929496922 12.786452567327977
Pb 11.36095083908043 16.046582089268263 14.46806288827965
Pb 13.960172232785249 16.654945788342676 12.369958562808966
Pb 10.516281655773142 13.10901602215248 15.816468880421901
Pb 13.482514984617072 9.112954964290633 9.709202669014985
Pb 11.967516086390127 11.727613137184266 11.445301967510098
Pb 13.577045189527794 9.24253766109884 13.061027556583992
Pb 13.371879996537224 13.54132331373737 13.861327662665042
Pb 13.019926339487624 14.38100546588136 17.26076126548095
Pb 14.780469341568004 16.298068476260465 15.36136347598411
Pb 16.385349851841998 14.335997555116057 12.875009225057564
Pb 15.981689745576727 11.236002832791293 14.063466448331644
Pb 13.330890294046005 11.218748733462272 16.21769446089983
Pb 15.858726649210793 13.419190831592342 16.341262208509054
