23
Energy = -75.07919519 eV
Pb 11.532552485843206 12.343480718061588 17.514515281246698
Pb 14.673191133489443 10.225614293916994 15.37465992805317
Pb 11.354657077523532 9.916457450245032 15.033326528489713
Pb 14.93592502907956 12.623808549699326 17.738782791644937
Pb 9.375344759794817 12.492871091665602 15.035262277800859
Pb 10.47484580921174 15.301346658109685 15.966699768618
Pb 13.0798152424439 15.314580250557471 17.69994610794467
Pb 13.33516384773075 13.28312814096837 14.823888438451709
Pb 13.18609825434698 9.69198287502566 12.431439877437128
Pb 10.20474600486375 11.300483632943402 12.223697607793241
Pb 16.922265729935845 12.650869186395203 15.164559268115651
Pb 15.901620666169723 15.469586496786 16.20163896665973
Pb 12.987089061857432 12.983075456414461 11.394582368125372
Pb 11.678936574249526 10.178794028981345 9.528389224453994
Pb 10.552088877547078 14.648085828361944 12.758825798023276
Pb 15.780372318372306 11.694357535897245 12.35658850898795
Pb 13.181694027349257 16.51754791756556 14.436576513028761
Pb 15.758223071030223 14.943001670450954 13.025952172979073
Pb 10.78815248798562 13.269244113266097 8.805244882674184
Pb 13.448426480311213 15.080268852987759 9.00314647795726
Pb 13.98048697607228 11.990338523998696 8.238793305041249
Pb 11.381217203276584 11.175023207874037 6.446644225034631
Pb 12.539936973714855 13.979911706370416 6.182970413599151
