27
Energy = -88.16717595 eV
Pb 18.200523479627343 14.799124886689146 9.631288128177287
Pb 12.23463014322931 18.398152188524275 16.23150117296799
Pb 20.384646181963102 14.335125904796016 12.048225570767013
Pb 12.040151103017921 15.249159907870077 15.595716632893275
Pb 16.917350926004197 16.440259640364893 20.686816787092063
Pb 13.062093827103482 18.702002408662512 19.324775449820223
Pb 11.195694726416185 16.228503023822757 18.54095149423968
Pb 17.925431222782816 14.442011061982432 17.242426021507804
Pb 18.480928350332466 11.87983726637188 11.101745313647694
Pb 15.578357787624208 12.969545452832056 10.118383136598606
Pb 13.49756024664609 13.847847577539646 12.515106360593258
Pb 15.865032476232503 11.599972975010978 13.08036978214239
Pb 14.346218707354005 16.857162932489636 13.90584570675691
Pb 17.259867935108947 19.644651006467555 20.023182223215283
Pb 18.470410692856696 17.599661455122707 18.03526887221332
Pb 14.894234126688993 18.737473210874555 0.957926873200986
Pb 17.198503696614843 17.077540028106533 15.161556644162635
Pb 14.610133570107324 0.18147152297391253 19.9156488181698
Pb 15.46507540089531 19.626342266424697 17.120466019058593
Pb 19.978238781661613 15.573984218546231 15.0551186808291
Pb 14.99017830389597 16.062633324890122 10.674502234144096
Pb 13.732581551789712 15.821063119381519 20.75582415876585
Pb 18.907256830183886 12.549745302350805 14.352555443650287
Pb 17.170447426904612 14.715927383986202 12.672583022961602
Pb 13.225225215785496 13.717987667896189 18.153171437817022
Pb 15.179954455766113 13.934423022599631 15.48890903211459
Pb 15.059996828318184 16.431024258478878 17.78314568170726
