27
Energy = -88.77402983 eV
Pb 13.904715036760017 16.909261924291883 11.694778724310261
Pb 11.202035805067643 17.675027054663392 13.35487370260391
Pb 15.692110324483435 15.357326899581599 13.916537310879429
Pb 13.024900170458444 15.618583871344786 15.78570604506614
Pb 13.929306036242576 13.722467254960176 11.730762863531913
Pb 10.769017549934649 15.85264687724598 10.288888637245261
Pb 9.799285976727143 16.038731490285638 15.719631590339917
Pb 13.758668287049042 15.308418770458674 8.915447740313587
Pb 15.490165087708066 12.534996633769564 9.321659393109824
Pb 16.776982799088696 12.585066115848393 12.532834743612105
Pb 14.676958345632462 12.705537834470748 15.451452400753157
Pb 8.469274554526333 16.151547436905634 12.70585423863783
Pb 11.266566512679296 14.207567560501548 13.267814373050598
Pb 15.964288798628692 9.910488435767695 14.27728951840128
Pb 11.82701842232086 12.731335926088734 9.065464866151707
Pb 11.161235623110136 12.866586901397698 16.24512259175948
Pb 8.152179533934044 13.549775405970486 14.514915034392908
Pb 9.08740782849134 13.054066853654108 11.160849423037204
Pb 13.35986375544082 10.535808958364038 12.200795863777676
Pb 13.586217068712882 9.890962444859523 8.849890417815274
Pb 9.864109715024743 10.889296320866954 13.745600360788854
Pb 12.798911548872246 9.8633628398964 15.468220873441068
Pb 15.84965297627206 8.735502330518996 11.073653481160243
Pb 14.256891948546825 7.329382234089584 13.562645575232494
Pb 10.613120005645706 9.942559048799447 10.413699209827598
Pb 11.091714598618887 8.01915689965348 13.214170381381553
Pb 12.933619072667147 7.312001768271635 10.644037161755906
