20
Energy = -64.72886957 eV
Pb 13.300838972380092 13.444410113933893 8.353214936161057
Pb 11.666416998115158 10.701668656573977 9.497989971027897
Pb 10.26979749570433 13.549367551447538 9.81337594162801
Pb 12.195255613829366 16.057671060259374 10.32194143798151
Pb 16.011942228438254 12.182586344145706 10.026506738584585
Pb 15.299109316171212 15.249072211684824 10.412671349078982
Pb 12.551987599245034 9.523796597512998 12.414519888504023
Pb 13.139876560597655 12.894147401318138 11.450587129605282
Pb 9.846536154038521 11.506058733404815 12.57143158781587
Pb 10.408103814237645 14.801712216165782 13.068712258626475
Pb 15.564080772566234 10.598356583991553 12.832508074633154
Pb 13.710644622072445 15.97740561769917 13.481949325608669
Pb 16.30026310187657 13.82544535784833 13.374865316691672
Pb 12.972140681844666 12.561033229331482 14.443968692739993
Pb 9.835154362556276 12.740703824278732 15.790495215886954
Pb 11.219192804620782 9.910760066213252 15.317482327767555
Pb 11.71877667476508 15.295918377257951 16.240550921924722
Pb 15.755037263589173 11.58715684689217 15.91193402945738
Pb 14.836259728742618 14.610094487938184 16.42956626341221
Pb 12.695596528347574 12.279646015840664 17.542739886602558
