23
Energy = -74.26450884 eV
Pb 15.506368013208167 15.447709308799686 10.514473548721089
Pb 17.66869324096704 12.893363698033005 14.696203879346083
Pb 13.557009035919721 17.24975295013302 12.574534335301076
Pb 16.072135402018514 15.581855059837713 13.74188186045839
Pb 16.443575841647828 12.653048635255077 11.841423511205543
Pb 15.735094996002235 10.344533960037337 14.394818940858432
Pb 12.155592075626506 13.58776926033592 17.358023530269772
Pb 12.410593479222399 15.510689598168721 10.225813615055078
Pb 12.917552625842763 15.825247935180025 15.339659383063854
Pb 14.949086338508941 13.290789323186882 16.014105887044053
Pb 14.142854987108008 12.612119825560077 9.482840581788118
Pb 12.441125658211357 11.856119790147268 12.562259547484363
Pb 10.585312558693978 16.073196622755077 13.086703932107628
Pb 13.314640706585589 8.362971204940095 13.825001825235823
Pb 12.707247137520087 10.680534715720619 16.050418948263722
Pb 14.831277668890385 9.83122731253086 11.197282972605105
Pb 10.808688741028845 12.750673713450592 9.480637602516007
Pb 9.41735992631934 15.708239527246945 9.99576107187901
Pb 10.202266387803606 12.987812903308633 15.021931671983989
Pb 8.887451679373449 13.458095371282102 12.167704879219695
Pb 10.294517074095689 9.628987119831885 14.062070900014422
Pb 11.753719227242165 8.869523335511055 11.157841540284752
Pb 9.204406357049553 10.599406213603753 11.084539241591646
