27
Energy = -88.7769005 eV
Pb 15.474079357280347 9.58225526989058 12.90753189653936
Pb 17.143536008564485 12.374649122378825 11.861475098057468
Pb 15.533639807969386 14.121053089339451 9.443226252192483
Pb 14.420780133191151 11.030514288317493 9.29368552089233
Pb 12.488831278478814 9.47279992190099 11.370567479035737
Pb 12.991492315423427 12.901584818411553 11.481084346945615
Pb 15.984115902860214 15.671683775905523 12.201761277157571
Pb 17.75325728647124 11.039395042220312 14.822021837929691
Pb 12.673016710756901 13.756290004108694 8.187705903207231
Pb 11.017647354679795 11.287230334548894 9.130219040989934
Pb 14.78423425858952 12.5398302044925 14.265747062695024
Pb 17.510491397352638 14.359278843862697 14.78806835790934
Pb 15.181495425231356 9.772482862942057 16.27450659740219
Pb 11.986224413689879 14.464126262952917 14.380649151627704
Pb 12.980808131023444 16.11400784699611 10.636225288366408
Pb 13.007385055962946 12.388605326492161 17.139567409138728
Pb 16.31764447969232 12.607796184439906 17.262477312544146
Pb 10.178875130889779 14.24515530240391 10.43263521660982
Pb 13.662374650022791 17.25806473793326 13.755694416556075
Pb 12.285572416508877 10.053909721055781 14.596942861114787
Pb 9.903879853239483 11.334044665786283 12.36364295035221
Pb 10.356503507071068 17.088597519928054 13.419261343699356
Pb 14.604535077779312 15.36105080946505 16.48465421541173
Pb 8.65551417192282 14.260807845400146 13.428923057485445
Pb 11.922323497071847 17.31297659108314 16.370125797150397
Pb 9.364087519869665 15.552365589661983 16.225132667162576
Pb 10.010266757062057 12.242055916737709 15.669079540482848
