26
Energy = -84.94217518 eV
Pb 10.52976092815824 10.518798921443002 17.305764061607217
Pb 14.864087539212575 16.220212158716354 13.148962856815052
Pb 12.420268135391431 13.173532058092233 18.111077587668742
Pb 16.42261048189927 17.384424000061944 10.021279032418642
Pb 13.31460622540775 16.722301923246448 9.95953808621988
Pb 17.358653215365848 13.044324459827877 13.421231338930074
Pb 11.494815953364915 12.633438747472887 14.980736100004783
Pb 14.147818187533979 11.781280235684251 13.12577278039835
Pb 14.59013038808322 13.946468385302941 15.713315170446355
Pb 17.93181215621991 13.633637125426459 16.79384875721157
Pb 16.425819624174107 10.728121072007138 15.32115645198648
Pb 13.476500982144747 10.283543622611889 16.22857964699222
Pb 12.254764132846125 14.49422442824128 12.155844433182578
Pb 15.531151668002513 11.661077656007901 18.460031530351504
Pb 15.312890964609894 14.123715633036488 10.666762404910921
Pb 11.71166701104628 17.838608360391078 12.497205642795963
Pb 13.784111054859562 17.10387374058732 17.512974015583826
Pb 14.464835725733007 -0.14379507019587956 11.650403257526492
Pb 18.315263999314 15.57884045687722 11.633245650685728
Pb 18.88517370930261 15.757396419548293 14.680124406407849
Pb 12.74294824899348 10.166906860489753 -0.1069142920184507
Pb 14.036822868038671 18.96031619519421 14.878397481537647
Pb 15.630267980106224 14.848600087509617 18.73427939211949
Pb 11.827245474380733 16.24611564687236 15.208331857620312
Pb 17.18128712363917 18.445232206922928 13.411001473224028
Pb 16.888923802645316 17.1946109309142 16.73404446043868
