25
Energy = -81.13925947 eV
Pb 14.14132018050703 12.740308395744949 9.362835145244578
Pb 11.040061467623861 12.415054817663217 9.179089011697268
Pb 15.474051851783898 15.470984162746143 10.264856598435365
Pb 16.190758550427322 11.843299118566469 11.670046889346708
Pb 9.617381675135045 9.923415880540599 10.55578051805253
Pb 12.209035669319952 15.246752502854635 10.285676301922944
Pb 12.848835744125134 9.889044214900242 10.586556976836178
Pb 14.10217381477289 17.162324330667126 12.52415972087368
Pb 17.76907792228535 14.498040894051861 12.313531155948846
Pb 11.207048614881456 12.275185888759157 12.463219570224808
Pb 14.099142182731367 14.031222858323506 13.352738363851577
Pb 13.812867904037281 10.671169848280698 13.794948953614101
Pb 10.780230499765363 15.816318319424264 13.222579401960393
Pb 17.060571383430673 12.433555420049892 14.754137948274925
Pb 11.431955153560809 14.494638811699117 16.211545487937713
Pb 8.529904170105775 10.451596011394242 13.571068625619715
Pb 11.192148160475599 8.799665755347037 13.20675027715982
Pb 16.20591813141224 16.498101506990988 14.987774856838076
Pb 8.95492080114382 13.42034186937348 14.519445733890471
Pb 19.033509459584216 14.949208866921271 15.066283195497617
Pb 14.115061528361137 12.55816662270716 16.66632358941377
Pb 12.485272625207424 17.48344966559802 15.216056018127704
Pb 11.05992572941742 11.076839764619379 15.71475103937486
Pb 16.83560648012379 14.34536792488051 17.367869695538154
Pb 14.114378771735074 15.817105019850656 17.453133396272655
