24
Energy = -78.72235104 eV
Pb 10.62763661807602 12.285279763446164 15.167662658016111
Pb 9.621567848864563 9.600669472433028 13.58494257670852
Pb 10.191636123149044 9.96568324360584 10.198443191130117
Pb 15.167885364985638 15.37505823811382 15.15863287296806
Pb 9.20646626597409 15.034240926542127 14.099029165160289
Pb 13.793510959622544 12.458474406094908 15.723910314529371
Pb 11.487304207650475 7.571943566978237 11.916164768605887
Pb 13.877748591063785 17.772408661530584 13.439078131604079
Pb 12.553886299984134 14.357274883531257 12.838623207900117
Pb 9.787430766186503 15.400146276235638 10.716293597464109
Pb 12.520335464076789 8.747782706289149 14.903308986800008
Pb 13.394242339177017 9.311612750502896 9.74334960374375
Pb 11.568122908080667 12.879930516227986 9.62503058335917
Pb 16.153860663038497 10.31790476005299 11.244086167370673
Pb 12.850160426775743 16.597267491664486 10.448086945551966
Pb 9.305857816900591 12.476729351033889 12.08036934729272
Pb 14.732670995052386 13.070760203876455 10.184017671972192
Pb 10.733838862572224 17.591724363004484 12.878598414832375
Pb 14.632769423802419 7.755838794746919 12.466971209881729
Pb 16.056565569843723 12.869644915223267 13.270328983140068
Pb 12.809579874311527 10.988042711999846 12.511870811008395
Pb 11.965447430299212 16.033554828485254 15.606160895877482
Pb 15.581921368900945 9.944427148508666 14.628934967234303
Pb 15.747289504538301 15.748064468312396 11.773112579658127
