27
Energy = -88.25750353 eV
Pb 15.71777194458242 15.136511439544035 15.844060676452266
Pb 15.713919944542218 12.198856144955402 13.51114177679429
Pb 11.436889134557836 16.917587015640567 13.171327483372009
Pb 14.569941441696466 15.19894155575289 9.161726519805425
Pb 12.908653830435245 17.773649467748204 10.386373753701458
Pb 17.980891362580742 14.496241928436891 18.598454915454735
Pb 14.722632306712928 13.298082288879426 18.411781312761477
Pb 18.494396883359443 17.138926057752876 16.864968757082178
Pb 17.447327140264235 17.40912352207837 13.799779993027318
Pb 16.737930004814487 17.072625783735003 0.9096410618421279
Pb 15.388719358490599 14.198916088435162 0.48067182433067535
Pb 14.682865964801616 16.601947951605883 19.04589853555487
Pb 14.635504676747797 15.511760896386734 12.5335687322625
Pb 17.028505034825667 18.911147713538664 19.198734882174264
Pb 14.085046942932632 12.419441432848364 10.883934706543899
Pb 15.62566845056622 18.718513949008805 16.276690712529376
Pb 19.483837008880318 16.964853636024472 20.0403386160108
Pb 11.71621784330949 14.684742055796429 10.895077973838703
Pb 12.646972579232907 13.693661993874198 14.073428846217363
Pb 17.035275039154893 13.83080446324683 10.884391543146505
Pb 12.938507842799124 16.802252243638996 15.918850928962273
Pb 14.12922906480898 18.818936416442458 13.269127799664844
Pb 18.268074387731094 14.21183214379441 13.969763418276438
Pb 16.17063561369963 17.592703287368455 10.707578434714959
Pb 17.100735887421166 12.19888714562144 16.36661972088467
Pb 18.586659406179468 14.389874035042071 0.9250771883102615
Pb 17.25937663040732 11.923858926827496 20.092808552220557
