20
Energy = -65.25075235 eV
Pb 14.071828369502498 15.1212165053708 10.878834976236943
Pb 13.00988343492301 17.021751222132742 13.277407013833562
Pb 10.603682404567653 15.001690841246548 11.894988649666118
Pb 15.75480784621377 15.01435851821054 14.299265646651472
Pb 12.75078279468796 13.705332954124765 13.928355879543242
Pb 15.155577735862375 12.690533077793102 9.0956810624081
Pb 16.68634294556469 13.252924594612576 11.822561541104799
Pb 10.51793903429566 16.241020821324216 15.128605923114634
Pb 11.89682571338073 12.833814033594193 9.590614943398462
Pb 13.505308394470243 16.070920163109093 16.404556696778982
Pb 13.035338067766432 9.450406988443074 12.493113127565369
Pb 14.36442360887719 12.900589072113391 16.803700838701808
Pb 10.311423905872509 11.573089083767108 12.38004923771439
Pb 15.37619899474714 11.27848666484055 14.196682727112517
Pb 11.948633303111626 10.9322861549607 15.371627946173053
Pb 13.650440543720862 9.955015768721404 9.198902286029217
Pb 15.9998787424382 10.195346834317613 11.247094567410551
Pb 9.317093956561743 13.268485108814428 14.737647866557364
Pb 10.741909429467256 9.710810269147869 10.05966649070613
Pb 11.321783411101462 13.80202396048827 17.210745216425885
