21
Energy = -67.49452106 eV
Pb 16.47126702825586 11.69907155874645 15.78454727972257
Pb 10.909992734684911 14.895696086567806 10.196062637729609
Pb 11.167437189068497 15.970393075298876 13.281170639104586
Pb 17.305644128274455 16.671069433198998 15.163032916101967
Pb 16.784187392034358 14.451371954830247 17.46553050145675
Pb 14.785139022574878 17.031068108620882 16.983473310173693
Pb 13.382891970750583 10.145642682871546 15.369911638966679
Pb 13.58788530263222 12.07626461553749 12.463657382735098
Pb 14.104578395893743 13.895368161335055 9.881450728057212
Pb 14.224684603911566 17.787702285509628 13.9575603748597
Pb 10.942333363796868 10.350881860696362 12.956082015225322
Pb 13.398299863626985 16.759926249306474 11.035608833514774
Pb 9.419351935872275 13.082312904968044 12.252997365640583
Pb 16.340549322490585 16.082896793536985 12.072387963573089
Pb 14.621039041000685 14.566846827453288 14.596108705057954
Pb 16.709536748967768 12.89203082014167 12.61018179103289
Pb 15.762336748669103 9.90975621711779 13.300196576659573
Pb 11.629923022468235 13.132365909228044 14.692531953029428
Pb 14.217070190753212 14.978876446624655 19.204744229388417
Pb 13.61668922671726 12.706538406042412 17.226648950857218
Pb 11.497606841861714 11.741893670614385 10.08178349958019
