28
Energy = -92.25522243 eV
Pb 12.40822041270513 9.17349715534256 14.009896706241921
Pb 15.233990545721536 11.116901826878264 15.209998844216434
Pb 10.25267441235432 7.871064918071219 11.819979483473091
Pb 12.345363760883595 12.370567880326426 16.592860385200805
Pb 14.265938648891995 10.405551743277181 11.626508580191459
Pb 15.303647246720029 13.411189937692695 17.613745669086804
Pb 9.390352324672113 10.266219560736765 13.97249962778922
Pb 17.554734940341714 13.554383271004049 15.337696277773624
Pb 9.154952463726746 8.581340004685616 8.721421831834931
Pb 16.698519541119037 12.353328170306373 12.44177807282856
Pb 12.030929942208205 12.346357547658586 13.272946342438448
Pb 7.619467916326588 9.806732785979353 11.337305253328092
Pb 14.34138897946594 14.34678710425198 14.313492727845935
Pb 12.419251643575793 8.524513028081484 8.994631038354441
Pb 13.645267461376877 11.547613168358472 8.471686650611515
Pb 15.989382016092225 16.40326181145225 16.06053775366903
Pb 10.882143228626807 10.83042326478072 10.607086967776779
Pb 14.124221770971861 13.818328258115388 10.790325394456053
Pb 12.979835968315447 15.628563470708338 17.254358802882418
Pb 10.846189970048023 10.866827475525326 7.1406815936570105
Pb 8.827053755640613 12.932521197180288 12.02323893612924
Pb 17.091964645396512 15.596883761720308 12.873876613770072
Pb 8.237430180572456 11.876956919323094 8.825288149598732
Pb 12.593713125667426 17.260318440073203 14.503464934844093
Pb 11.067555545082723 13.684987804970946 8.923577104958214
Pb 10.599162036019163 14.776072182035822 15.055166446755928
Pb 14.39749522749583 16.935242523097163 11.824132197592046
Pb 11.450253541755117 15.53524672202638 11.88720020697673
