29
Energy = -94.93942507 eV
Pb 15.340990806249247 12.597163161302843 13.70815789060508
Pb 14.435395210830352 15.736956283357982 12.40903405973928
Pb 15.36274147050472 17.389015271057374 16.026020768672613
Pb 16.19480305979613 9.43433098403057 14.256665258818115
Pb 13.312664893577889 10.19187478100046 15.549507790216941
Pb 13.054110196605619 11.975573025979426 18.277567185648895
Pb 17.523859529406604 14.383552729351662 15.963848411086937
Pb 15.867323559354004 13.517087947459938 10.194714898535997
Pb 16.973213496105434 16.739980880090805 10.601020079050892
Pb 9.880153159401653 12.58027310316773 18.77478630432476
Pb 16.182604931951172 11.453550289499153 16.910965004570286
Pb 11.627887954796558 16.759525529928094 10.78812889891562
Pb 18.557295406303098 11.545451893253714 14.702483293253069
Pb 12.3571823714943 17.741396421525963 14.125623686350973
Pb 17.410419308513312 11.003090234307338 11.775133072053865
Pb 13.150389881803752 14.377641207520822 15.58043701503407
Pb 14.237590337163828 18.70171001447405 10.312581035594123
Pb 11.872641391495387 14.905521546176644 19.34596556214621
Pb 9.97103758056497 15.163538393540879 16.6679826767388
Pb 18.412072472833472 14.047241813608377 12.510246560886326
Pb 12.517964073180519 13.64502507852634 10.496674661386853
Pb 14.959633014940106 14.737417883261255 18.183444087261577
Pb 17.766190638880545 16.92830630462768 13.846308464005576
Pb 15.34564244858822 18.94760135068699 13.255378357822822
Pb 11.879168572990357 11.60066993212565 12.900730381474583
Pb 10.61769414658019 12.069831345259757 15.798226781241748
Pb 14.209618710319695 15.988774850402585 8.875839628683444
Pb 12.425879055473256 17.2359672878745 17.364408823304565
Pb 10.886043626319301 14.73299861604158 13.314212515541266
