27
Energy = -86.35013944 eV
Pb 14.689711285340497 12.309330760357453 16.80932515656352
Pb 12.117551455704858 10.031774588491384 15.93281756683324
Pb 12.599827572804287 9.022573433285856 12.758888648173556
Pb 15.174601413918094 9.925000277303802 14.588640991076025
Pb 9.60503986644509 9.220906409590738 14.049683486048671
Pb 15.573893406092296 15.453225077403816 16.493263243501325
Pb 17.73101085057981 10.681632900043482 12.760616600378947
Pb 16.51096722162976 13.156412769027224 14.314143913415032
Pb 11.580445677937597 12.933161108324818 17.204373439065026
Pb 9.560019448327004 12.234586778391467 14.922623801991271
Pb 15.442036217107411 9.683057977131 10.892103706150664
Pb 12.450464367783498 9.995963260084787 9.691020584730234
Pb 12.94724512068534 12.930398211446374 13.928130771982106
Pb 10.212705845923402 11.184826427820376 11.709116992745644
Pb 16.836255467724307 17.056228094092074 14.054794140823967
Pb 17.107449973001987 12.567900986264723 10.325901601959917
Pb 12.270915528179925 15.688869527464899 15.888143871911504
Pb 7.770737604820672 14.670053252343944 14.126097863151767
Pb 14.821785924794142 11.59742395834685 8.220367290165143
Pb 13.211201746707427 13.038143583912655 10.594307892653749
Pb 14.18452828569567 18.143334749027364 15.179967856068448
Pb 10.125367999883952 14.423157053236611 12.089202269627707
Pb 15.66201584943714 15.106624252870885 11.938522387169751
Pb 9.766774284125603 16.871182238689055 14.496817416505117
Pb 12.780088436383002 16.224913382815966 12.596458729080464
Pb 11.748141922729692 18.98069227991302 13.442567670292831
Pb 15.374935937183881 14.724345373266479 8.8478208188812
