22
Energy = -70.75063673 eV
Pb 15.460467092029383 9.44238981880024 14.783332960843818
Pb 13.019697540633272 9.114192014470165 9.564668838781413
Pb 13.37921078889239 10.082726968468487 12.618941556851611
Pb 16.569008670648444 11.206747840334629 12.27591711316489
Pb 13.152337703911037 11.405076757295591 7.501062421876318
Pb 10.412810095734587 9.456495960871555 11.7226705157703
Pb 14.269419385389014 12.262397418623276 10.272300668059584
Pb 13.878283628726587 11.69774245076075 16.570723356417467
Pb 10.351424454205398 10.913785843464842 8.909434750735246
Pb 16.966722974969265 12.154677971366928 15.356926211937875
Pb 16.310008018107744 14.40772222952403 13.068188131027634
Pb 15.114635867398077 14.639469697284017 16.073982857973046
Pb 13.230205659059258 13.374737873921168 13.69725285314512
Pb 13.410675828997983 15.461827254063166 11.313402067929134
Pb 10.85596574184018 11.288375903735165 14.414721031421479
Pb 11.55791843554604 13.865956461120527 9.251113500203132
Pb 11.975456373303324 14.607168463605957 16.588531551573396
Pb 9.284425978876552 12.504019175101005 11.620976554808314
Pb 11.966772135990848 16.525604216834047 14.04101520961746
Pb 9.539679023359751 14.102761794395688 14.55265243363375
Pb 10.022188660884442 15.771002853198551 11.422325558035157
Pb 8.854779097209887 16.975908217339086 14.021273350825627
