22
Energy = -71.02920173 eV
Pb 17.187940871364702 12.291937556298926 15.430637874787283
Pb 13.219939371394373 16.921194972243292 16.50978394277636
Pb 12.202233067389773 13.98045935610489 17.169224850799182
Pb 15.485611317902451 14.787452603990118 16.403294803320517
Pb 12.152914980982723 9.703953633853258 11.955439679822103
Pb 9.679765814442323 10.717173667908297 13.778776080289747
Pb 14.21376613546227 11.602174808428321 16.407797500070043
Pb 17.51042830365422 15.11640561646103 13.77286968868409
Pb 14.713705012002164 16.87154891149527 13.689602905047746
Pb 15.040994325604371 10.343585531156034 13.620985876460352
Pb 10.724559625055809 15.878319325751972 14.864344217537822
Pb 12.25335901883894 12.538628165758041 14.032736438079361
Pb 9.431676442141367 11.095929327629538 10.640358058704365
Pb 9.299205418026142 13.268491971377403 15.792944572453347
Pb 17.11537429750854 12.244601242566528 12.204250500084893
Pb 18.51011136868453 14.41231765614325 10.71899893874062
Pb 9.153796561536565 13.767871355019249 12.50066516811695
Pb 14.018164280471172 12.457626728212388 11.131747076330884
Pb 15.624498001384598 15.411455046079556 11.005939666416035
Pb 12.39095925142212 15.154003526237624 12.167511162708838
Pb 12.214384531504946 11.017497855494815 9.07887387500185
Pb 10.846317544286862 13.892574905575973 9.766533252926038
