25
Energy = -80.59434936 eV
Pb 13.866939015769976 11.003726436696276 9.840631825669831
Pb 13.83915959477035 14.273614614279305 9.690495723224421
Pb 16.569471562392486 12.548754188375106 10.598052603372523
Pb 11.235414698662828 13.810528715118158 11.58182635727411
Pb 11.78123691400991 10.71664775527787 12.31761532487534
Pb 13.12129946775452 16.52546184000205 12.220932736909791
Pb 16.171508665791468 15.96369704256975 11.218695846230556
Pb 18.300315384698337 11.088869574543045 13.001012361002502
Pb 18.360754809772683 14.485429955417874 12.91369496576619
Pb 9.210049560937199 16.266253694738943 12.644788978845968
Pb 15.182001906735126 9.897090464611397 12.471704724705365
Pb 14.279445483359213 13.088746241531803 12.99600569413506
Pb 11.020585549997822 17.880365850532414 14.646795928518305
Pb 6.761413294626835 14.926648807318207 13.928833542577983
Pb 13.36616649858761 10.71821024152679 15.273195439856117
Pb 15.670727314169325 15.762360808396485 14.693569669902514
Pb 9.155269941328873 12.927510108740618 13.951740775621053
Pb 17.00305186515849 12.51458442213575 15.528493141515549
Pb 10.320131260452959 10.133531498563988 15.086381631791358
Pb 8.965062767640049 15.720196140551407 15.989243436762582
Pb 20.135370005956183 12.875385710347421 14.925759085998209
Pb 14.134074007800663 13.568397271455638 16.595569256383072
Pb 11.883370354610971 14.9017445641722 14.679397516467311
Pb 18.52748046572874 15.277624205841997 16.105300429657863
Pb 10.816311328944304 12.801231566912834 16.77687472259339
