20
Energy = -65.89401708 eV
Pb 10.87919790616975 12.183303725936186 8.343227884912624
Pb 8.84762848087723 12.993978762844483 10.6916107983583
Pb 12.739259928512148 9.785468527925843 9.390226923804338
Pb 13.99622405862611 12.839090395007641 9.062985344721394
Pb 11.367612189988293 14.99664221389886 9.919072900237392
Pb 14.49795046535732 15.757454387907194 10.438062056851349
Pb 9.631478587203555 9.92312959895386 10.180755641435486
Pb 16.267952014926163 13.272520663354182 11.444410123770435
Pb 11.746241489234707 8.758421388521061 12.385239869026622
Pb 13.616149102184272 11.46729750531746 12.055620816644572
Pb 11.34917512710329 13.326130328704533 12.79395531932483
Pb 15.333625338317145 15.565055658275236 13.489142511232577
Pb 12.346839783642423 16.45673408543624 12.717835360262479
Pb 14.149270509971805 9.450443782647584 14.573760386811133
Pb 15.503071203466549 12.48887640193791 14.578377281939762
Pb 11.07378058586491 9.582998385369892 15.477926699134304
Pb 9.10696197172822 10.913869329178883 13.243407038582742
Pb 13.15267968606573 11.646654407110836 16.689804735427067
Pb 12.874197877988136 14.646207033201208 15.43345782615917
Pb 10.240723836443687 12.66574356214168 15.811140625034884
