27
Energy = -87.6351597 eV
Pb 9.849915099408603 8.979983887835568 13.741251333326224
Pb 8.064734034182603 10.432268573362629 11.522567624864363
Pb 8.10228354975518 11.678524699743132 14.425052728898512
Pb 10.922456662575925 11.147495652041487 16.15775609344426
Pb 9.793231269231443 14.206888793946689 15.314299562762315
Pb 9.841790825586026 11.880192650683375 9.403445778854305
Pb 13.037695740390811 9.167899681938122 13.523877829109896
Pb 11.044891707379195 9.090953041096439 10.730200727065414
Pb 11.719633983624032 16.691611723076306 15.936706056295298
Pb 10.738208305617517 12.287326525243097 12.594881655372472
Pb 12.547138169896328 13.787769943666941 17.079290482385392
Pb 14.143620104010987 11.02924902811541 16.20821937547511
Pb 14.038894982155655 12.579871311073102 13.243919279735238
Pb 16.214912750388276 9.996831377157738 13.949670313080146
Pb 15.060129471539616 10.146715229155689 10.975013546236754
Pb 12.830015378602607 11.245131796392732 8.90456566637264
Pb 11.682009441349384 14.411401977175878 9.901377385203544
Pb 10.732485986392343 16.05676347231948 12.737836693115204
Pb 12.8692625674399 18.321773066353167 13.508839692905372
Pb 16.855894456526993 12.797015320657412 15.366084898451632
Pb 14.607789023001146 15.47697013198634 14.927327618477525
Pb 17.393870206352705 12.541692519832457 12.09637862192059
Pb 15.026379142700605 13.370778525272884 9.846718220106943
Pb 13.883773384570874 15.667358541101756 11.935150757309259
Pb 16.11363491061366 17.867521845275707 13.078357555304603
Pb 17.012265006733536 15.681089190345828 10.880195349126275
Pb 17.839449215194563 15.425286870370952 13.977380530021009
