38
Energy = -125.62431516 eV
Pb 18.571804647730772 14.407116972949643 16.292204880468454
Pb 17.477541128921104 16.514806604975913 14.05098544271721
Pb 19.04617062475955 13.832458683040759 13.051705761504865
Pb 18.611457793220552 11.409806514879874 15.210212534620386
Pb 15.606132786249152 15.750666570875891 16.76513848423186
Pb 16.798325664632188 15.115287561930916 11.096128746109041
Pb 14.624395252400397 18.178554187964668 14.453295622263516
Pb 16.10638762927741 12.456557822026376 17.38344945490963
Pb 14.071277544897868 16.901835926273726 11.353854359587128
Pb 16.074168313086492 13.261057489476844 14.177203449992033
Pb 16.44944178885953 12.101133312741855 10.024301683745879
Pb 12.461684795357145 17.264782040110035 16.60226139277236
Pb 16.014869307906682 9.391200137730934 15.766996695263531
Pb 12.747062074406577 15.25330229832264 8.818887579996046
Pb 17.217769629739667 9.967839878836907 12.547006456981855
Pb 11.61109628145735 17.60485756631751 13.407060540231333
Pb 13.748986911064293 10.71053263992803 13.677642753779956
Pb 13.10772421117396 14.919610891718538 14.338649136567541
Pb 12.86232200812135 14.05975567271871 17.686783801547993
Pb 13.87625421172753 13.517578615850748 11.367258753065295
Pb 10.583218406637364 14.838791152456196 11.380521002147193
Pb 13.548759449659997 12.117225559736259 8.478208274817133
Pb 13.040021254357331 10.68603315970754 17.291953340757
Pb 10.204567496791363 12.317229300555601 17.36436185452985
Pb 10.081461029564053 15.228320322820782 15.866390379988042
Pb 10.580461751303066 12.657653373494224 13.88509822340035
Pb 9.799749844312155 13.394980251559438 8.469967239224513
Pb 9.750830212271895 16.661918242533996 8.76737550522484
Pb 15.14362156052173 7.550745093217171 13.155926136083506
Pb 8.664958576660853 17.33954960350312 11.742409274909908
Pb 11.545716219746415 11.285749966781063 10.937418525926272
Pb 12.92907287052093 7.901694445670606 15.415816370442139
Pb 7.783579050838487 14.559066463885141 13.257809953228254
Pb 14.577780077816033 9.43414674903462 10.491860562523945
Pb 7.309338417984697 14.947784103978721 9.986088366170081
Pb 10.397364868653575 9.855500548021888 15.42983631326207
Pb 8.351680444373704 12.159093313587817 11.165884194253731
Pb 12.087908710292224 8.266028334623568 12.292077234574936
