36
Energy = -117.53511328 eV
Pb 15.716182378060363 17.21173397368021 11.864945637203366
Pb 11.465235123180392 12.506964481893533 12.432978989853178
Pb 9.26315108448125 11.447297882440358 14.448564600873983
Pb 17.588501292005358 19.15821018783864 13.905023258007828
Pb 12.361735313156686 11.370722680048793 15.402867276309758
Pb 11.733811078412336 17.319900701365807 15.516017929196845
Pb 16.662152279953197 17.540687548906746 17.541486213445477
Pb 14.091680895525139 14.195400090744139 11.281738843186572
Pb 10.724681146281396 14.142272990134087 15.620704017408361
Pb 18.9685890311865 19.540547698501253 20.662215269179704
Pb 20.393983844042364 14.662082384006974 12.975875152335412
Pb 8.773309795352727 14.177239585861708 13.034364428972724
Pb 20.30836068458719 14.499373943295371 16.37814352858397
Pb 17.540966594159833 16.60709236116475 20.914046296749675
Pb 15.910499531844534 20.945236830657187 16.19729453035348
Pb 12.434270200877059 15.984600270990406 18.40424439750402
Pb 11.545468098504426 15.886115261070115 12.62324935281898
Pb 14.72070797441949 11.621080448480415 13.04308741722363
Pb 13.428875941517349 19.161481708620457 17.536430249578558
Pb 18.77072387843072 20.006169076228563 17.436804728796876
Pb 17.244184737365835 15.802248028402321 14.522684933944618
Pb 13.85482077938236 14.441004960157507 14.534916520383947
Pb 18.762456650157255 11.684110273421204 16.971978542517427
Pb 19.86230991742968 17.1044714534284 18.654339193299272
Pb 20.089620275398733 17.405176386086453 14.931674030607281
Pb 15.630406256866756 11.73899127204643 16.319865843234044
Pb 17.82413023415795 12.333641539320544 13.90506109145945
Pb 17.481572527898017 14.439905026140144 11.383657217510155
Pb 15.114537420061104 14.618045233432111 17.633925657374075
Pb 16.061569143640266 20.572341723318274 19.37618444988956
Pb 20.858675677463157 11.91230753220234 14.564102038824473
Pb 14.587190104425234 17.490630765861464 20.14690185209856
Pb 16.193266712003307 19.330007934966446 22.230129887146752
Pb 18.91158394938002 17.267956234233246 11.692719953002491
Pb 14.331447218935475 18.849984926925245 14.352835082833222
Pb 18.011762770951712 14.247387145623996 18.781362129788366
