39
Energy = -128.84909427 eV
Pb 16.836982771524454 12.045063952773088 16.62643050744671
Pb 17.046435009211972 14.083513953937697 14.156986441692062
Pb 13.109214250400205 13.986620474247758 18.65849592211208
Pb 14.03407836744821 16.52873218151293 16.442467907892844
Pb 18.83346497467345 11.341851892643259 13.757707760437226
Pb 11.846665923140133 16.956080215210285 18.91312547650195
Pb 14.303589369802435 10.100078175568573 16.73351455885341
Pb 9.920259223004464 14.348180857839528 19.02050673681794
Pb 17.208559068280938 8.927056914309123 15.881043117392943
Pb 14.524237351809727 14.914841850096925 12.211968128951053
Pb 17.824918035801804 13.284460169840068 11.029674044001847
Pb 11.012944629632894 12.032278051460809 16.99347857224136
Pb 13.893376108142862 13.207068356184998 15.363668479045776
Pb 13.955346512479855 18.27773152296647 13.41138343080794
Pb 18.437307630306854 10.149959442776963 10.554970734281728
Pb 8.809762379912282 17.001682754016713 17.468362132042245
Pb 11.19619915980288 15.206180428818351 16.016439556471504
Pb 17.765731439999964 8.135711269705109 12.919540803407802
Pb 11.475941784421806 18.690474807088247 15.847880213235795
Pb 12.22127330059999 10.079159934958152 14.310066811180057
Pb 15.64533063261808 10.835786110276295 13.557127261135772
Pb 14.590659500227664 7.755774473278031 13.908227390631028
Pb 8.306693596184708 14.014994415029264 16.13990550441417
Pb 11.09805805292672 19.797599697581102 12.689390717042786
Pb 11.54107031090047 16.34575896639765 12.925259538654732
Pb 8.725434858673887 17.941575960611235 14.194319550834976
Pb 12.459880971784722 18.04583635144181 10.412307836417874
Pb 15.729780290920253 8.154069670755145 10.432032000591212
Pb 11.602868324668213 12.862766628570474 12.483796661197891
Pb 15.522514609462046 14.55415531329255 8.99957769411266
Pb 16.546738850384692 11.399639276677831 8.244072127078914
Pb 14.347224064881605 11.72265151321645 10.675585864800384
Pb 12.543739398539598 8.759760894317314 11.3453585551637
Pb 8.804807262160843 14.820492388979817 12.948337953353828
Pb 9.316970867241732 17.633505733297685 10.990460177792185
Pb 12.305133944708087 14.575507609604939 9.779654044242735
Pb 13.682528867365741 9.40702997793584 8.3084982381411
Pb 13.565745733513838 12.479875558501847 7.470885379976076
Pb 11.246371986495532 11.338294061997821 9.510706894630697
