30
Energy = -98.69300321 eV
Pb 14.834408473909544 13.104968268892199 8.986526695267443
Pb 12.541627800632325 15.246882339480106 8.950295032203758
Pb 14.356045089340544 9.920843948821323 9.210444585943247
Pb 11.636900204194392 11.644111176496562 8.396922120389647
Pb 14.552763558114629 17.32709376119823 10.702653783463125
Pb 11.221686950452689 17.197877263552908 10.986515237601651
Pb 11.509261013522307 8.710674708421246 9.900257425134726
Pb 16.693335533296892 14.687940728008227 11.20135906557782
Pb 13.265245579009852 14.732874942178308 12.225080329222244
Pb 16.15649413972803 11.480166354711452 11.61214022287351
Pb 9.916209142783678 14.12270938668694 10.716990919636885
Pb 9.235898425007425 10.816413862504263 10.545519616338531
Pb 13.944312463548911 8.785093181438889 12.317552164089394
Pb 12.455185558941526 11.59352528773134 11.52364715280733
Pb 14.56773227700993 17.711107966501086 16.317075411457097
Pb 10.71562832749193 9.224639951127198 13.062071093798279
Pb 10.196427493477643 15.655849950994718 13.805277268092214
Pb 12.787102286364204 17.831053154334988 13.6822990686459
Pb 9.405107466316773 12.295337486071396 13.526817492640152
Pb 15.892957359664537 16.494255973447096 13.68923675526704
Pb 16.09996620770658 10.152585158192466 14.552767239743673
Pb 13.556982857132462 12.536930598404755 14.903934429879646
Pb 17.02258404513389 13.361753819952959 14.352862655071045
Pb 10.770161723182015 10.64986536018991 16.089532225325694
Pb 12.221517679354088 15.766649820925984 16.805078433616565
Pb 9.985423656952749 13.691394530610891 16.43878317926871
Pb 15.455435771245014 14.74667969598504 16.89177697572054
Pb 16.003879685144046 11.709511830237878 17.381158447020916
Pb 13.685189427016251 9.719177089053703 16.65416640429614
Pb 12.908148584197573 12.675651183719603 18.164877349480484
