35
Energy = -114.66103091 eV
Pb 18.106415085701954 14.498966324514557 14.25900447722029
Pb 15.854011926815856 16.657711945699656 14.974575533932944
Pb 16.691022386947697 14.217408414280111 17.33389951282416
Pb 17.78564582570279 11.553909952381948 15.31990581690305
Pb 15.73392566407104 14.739879539594957 12.146397123610186
Pb 16.170486373183863 11.25809429640079 12.303779299425447
Pb 14.451352995964436 17.869975405618952 12.25712727840281
Pb 15.85433573613254 16.594793920038644 9.506355710157882
Pb 13.540603066678 16.047270435779545 17.029359742370744
Pb 14.661528267162613 12.961423640573102 15.176673234177944
Pb 15.831605639240228 11.046836828465404 17.955434193696906
Pb 15.140221206037806 13.435580651764639 8.868204628218452
Pb 15.38974366379064 9.319037138411778 15.152331316121536
Pb 12.934024402736162 15.353880542596071 13.753435369251932
Pb 13.18763678919543 18.473176070375498 9.454892466144733
Pb 13.657714450756636 13.189263958624744 18.648790944788786
Pb 11.208270771252256 16.683906213277904 11.245784809332385
Pb 12.81675389112701 15.691294416311143 8.22316124857384
Pb 12.918915564684669 10.883691120203746 13.062411697260007
Pb 12.697532031827961 13.575012276317695 10.894674810311384
Pb 14.861212583638686 8.264033643335031 12.16088548457779
Pb 12.641279941502514 10.646119733299106 16.754523772177144
Pb 13.784841229928398 10.404999566963225 9.76992157651599
Pb 11.249119383730447 13.7979907225944 16.563525421584014
Pb 12.264530537423783 12.682272330304485 7.591359680920272
Pb 7.908187561165321 14.981934231455632 12.33153297086789
Pb 10.204892676544171 13.029238370947228 13.095686056835913
Pb 9.61387503872095 14.119337520811683 9.512018194407348
Pb 12.26703065837796 8.094083842400694 14.439078521843426
Pb 11.798455879123956 8.188744909584992 11.325391855547737
Pb 9.521555271411463 11.236214220959406 15.98949204761035
Pb 10.40606499943872 10.925256252268397 9.896715445376742
Pb 7.105735458353428 12.431584012884784 14.152126321276423
Pb 7.473029695155995 12.056129645557315 11.035183783093018
Pb 9.140771387585641 9.957183767327349 12.938959733344783
