30
Energy = -98.39566155 eV
Pb 14.201691922529251 12.48966711249617 9.132722473352725
Pb 9.903254118844291 15.308925888162142 9.983019008824694
Pb 17.249853743720756 13.358205465297525 9.250705557692072
Pb 16.29649957103731 10.770394339138022 11.111828465311605
Pb 11.825730974861656 13.094543317324392 11.250807730765516
Pb 12.954058919697557 10.006863676922126 10.952480952194655
Pb 7.417030942353272 15.033876002925547 11.999000615717378
Pb 15.208200661159392 15.857076199781254 9.383502383396866
Pb 9.615328156177593 17.224118797759314 12.628749230023427
Pb 12.104923460573433 15.543857089992224 13.24700988926403
Pb 8.680866416352638 12.45657640751568 10.600734078242278
Pb 15.20454070894686 13.902211763775208 12.088922675240307
Pb 15.33776741894264 17.253657508251745 12.312918911385104
Pb 16.921842669416662 11.630228099979771 14.60521533787796
Pb 18.592430852996184 13.020465890451622 12.208430692265118
Pb 14.768470268153438 9.211284874525811 13.824317287757077
Pb 18.004375716871785 15.9903648971898 11.027574847367571
Pb 7.70217572405294 12.43271279492675 13.789188713390184
Pb 11.883790583084503 8.04201390250227 13.186329322784973
Pb 10.345108387924984 10.827791785521926 13.030333333631837
Pb 9.006805778311804 15.157600713118047 14.96989436320879
Pb 17.309115036396914 15.381412279648469 14.236375129109057
Pb 13.214745973831151 12.364160171042867 14.591700733762519
Pb 14.439101466140203 16.48228143248086 15.288899781755987
Pb 15.12383049294936 10.419774807303734 16.91505072030886
Pb 10.068513092098025 12.175348399033464 16.173149493736034
Pb 12.09275752647372 9.420554739107251 16.05317291068565
Pb 11.980594713474717 14.842776560227085 16.66439879317783
Pb 15.338445556133317 13.733585343303696 16.9277670511384
Pb 12.776236811845951 12.135757405646837 18.133887181983592
