32
Energy = -105.30849182 eV
Pb 11.365899509780093 12.284291046225867 13.528591946083784
Pb 16.21338343608446 10.459974035388566 17.464143277119728
Pb 10.423241348967318 14.396424362133098 11.17616386133199
Pb 12.463266694989258 16.042749835591522 9.39336552628166
Pb 11.085129064483958 17.579395128139005 11.900813263572365
Pb 13.782345435683572 12.142182565905598 18.82337353912804
Pb 13.392385339402306 15.439626709598846 13.021060976615006
Pb 15.56398020562033 15.444517228615789 9.917780154142415
Pb 10.303696063814712 15.313624193768904 14.310437591669084
Pb 13.808672407366613 18.68734322169021 14.184862895080704
Pb 19.30193548734711 17.94756631937383 15.293584726141875
Pb 15.38826906648555 8.77409485184865 14.913155067688889
Pb 13.34077171404893 12.993119793717664 10.57101865506547
Pb 16.206806405361394 16.559951683756758 16.290866784362947
Pb 13.820931574649862 15.450212767574985 18.781740549642365
Pb 18.583344006174798 12.591267173754774 16.813687828607925
Pb 19.140661607852188 15.902861451372871 17.85575000517498
Pb 14.297606155142901 10.823491449819938 12.825315356627794
Pb 16.649353621395225 16.87741111698585 19.832260820185855
Pb 13.001579078149586 10.653452778672772 15.98777984429679
Pb 16.711324575643573 17.141854155148295 12.934821539355744
Pb 15.208793934146536 13.317219437498256 15.896025204506108
Pb 16.28728205829933 13.62001650114211 12.452348095153283
Pb 18.602917111722224 14.865349934816194 14.51293584790108
Pb 14.13559392135339 18.220303126170517 11.02500184156824
Pb 18.02396124431606 19.067785169023416 18.033738187802165
Pb 11.697354372740504 13.673141477490002 16.772741637412253
Pb 14.690898441640893 18.85461066358442 17.96412571658896
Pb 16.596455101887738 19.78734959561114 15.250394835480343
Pb 17.44155741309233 11.131619682408811 14.146419597365705
Pb 12.179086316924552 16.97891975410764 16.40282213013863
Pb 16.67917498048597 13.662008651712686 19.12861632454223
