39
Energy = -128.64421167 eV
Pb 9.619493582415135 14.377726598939384 8.53616584475189
Pb 12.370245731085927 12.586799825749868 7.887957763899923
Pb 9.542328270459581 11.206993988093695 8.833944278777873
Pb 12.46585226245462 15.644861610713752 9.121715989220746
Pb 8.138844402078236 13.064432776101798 11.32795817219623
Pb 9.384610880905953 9.93187105656192 11.995693937327879
Pb 9.969428232839304 15.962441479710089 11.36295443292058
Pb 11.483204975766709 12.97868515209002 10.978556316716508
Pb 14.76859941274219 14.947708208262661 11.272581619816558
Pb 12.40646290706922 9.662651263826378 9.773264112276763
Pb 15.427842912033377 11.177369842716141 9.407881979925525
Pb 13.781414276577777 17.96285592936374 12.27331130571336
Pb 7.77384014734738 11.628594306760915 14.385527818219602
Pb 11.344487091049134 11.82563026552641 14.123259013146912
Pb 9.76690150812263 9.31455083886288 15.38762659777785
Pb 9.21866303797088 14.518921264501884 14.430837091408542
Pb 15.050669759973935 8.392055076945471 11.09837586816926
Pb 13.204745804153507 17.920729186965403 15.517307485688534
Pb 12.47276527490506 15.177432841344853 13.534375367943968
Pb 17.576446957045547 13.449666091013949 11.631671665934624
Pb 17.38479718700925 10.184522903848766 12.084996380876545
Pb 12.305685112735778 8.565704403737483 12.880467858416187
Pb 15.831206704506894 15.894698215942324 14.616044988423887
Pb 14.403469003428945 11.630442457272894 12.290757730233956
Pb 17.263847054427057 17.31891447856034 12.084248718179158
Pb 14.071343468816094 12.987396936593123 15.648289616597662
Pb 12.60717704789228 10.23052572799025 16.747370615790032
Pb 15.883627756231192 19.39841308139735 14.208774114403516
Pb 9.770895128647073 12.307097499108664 16.97061251852828
Pb 16.132313683554788 18.201142743685505 17.21430767478624
Pb 11.499111683324493 15.222678643769646 16.76289198967552
Pb 19.12291180019755 15.016122243180979 13.947669510306085
Pb 17.139430626749586 12.32459311220304 14.736472415253905
Pb 15.040863317311716 9.453036592260101 14.467064106085958
Pb 18.625693344012447 17.898738838263775 15.155593864044066
Pb 12.871477013364487 12.908382174801051 18.682114779773222
Pb 18.011147616568376 15.259995276117648 17.127273303514343
Pb 14.73573593079894 15.515119115686769 18.33773021419656
Pb 16.178246194400277 12.704882453275214 18.107308323113624
