39
Energy = -128.51587882 eV
Pb 14.485621038599936 7.660894902605875 13.350581014302584
Pb 15.47004261773497 9.734311999635368 15.805861677644113
Pb 15.737446654916628 8.348818109411686 10.299387400621676
Pb 12.478996890048258 8.015448992322732 10.470630993158943
Pb 17.705087483998796 12.075348505947023 15.119867472167252
Pb 12.607845564722012 8.176247047625532 16.04471961368277
Pb 15.511170124802439 13.129236210037064 17.43042480917726
Pb 16.653592037224616 10.260073587917189 12.698465763142519
Pb 17.084536386636984 13.615541736820138 12.20248576050835
Pb 11.20095194018788 7.539746063556938 13.374587926771175
Pb 12.748616464522447 11.16566998931318 17.15891164073416
Pb 14.047228888744154 9.438098637467064 7.881099883983342
Pb 13.557063969395802 11.171126563260048 10.91662003154498
Pb 16.970324551645863 15.361644011261708 15.26852474288417
Pb 16.363064721526737 11.596100958956635 9.373872210975394
Pb 14.512060060039241 12.634591358821828 14.206197537451605
Pb 13.354501071747993 15.450563813651339 15.408927662192568
Pb 11.83859976423054 10.615202781129135 13.942316707165984
Pb 11.170959028582716 10.468135179677837 8.841987437726116
Pb 16.243405619198658 16.850170995872585 12.37460162728775
Pb 15.458234156413981 16.2985720512316 18.09677282261917
Pb 13.6565209091537 12.54059295416719 7.7364629489951025
Pb 9.716178389563884 12.189984044792052 16.326152648225783
Pb 13.61550453629932 14.79943448117976 11.4908965006444
Pb 15.12286466332528 18.23972171533518 15.520859955399269
Pb 12.674682353564563 14.548898020096038 18.53327548567376
Pb 8.589686463754902 11.725730507725336 13.303330493132457
Pb 10.885254934610613 14.006350938697068 13.569950030511109
Pb 15.875879743766976 15.039127593241092 9.220580148335484
Pb 10.623039596518783 13.515186201198317 9.826158086141877
Pb 13.023446507041578 17.895532553259443 12.925958323406599
Pb 10.071976875080098 15.48994413197926 16.85400875084011
Pb 12.687114527815258 17.734199953431606 17.624020132952896
Pb 14.31890967018805 17.815049602089328 9.979670273396229
Pb 12.778541172273869 15.585656389552968 8.32877443540268
Pb 7.670487547262391 14.32563782049419 14.996864003260887
Pb 10.854243987776078 16.678233036831312 10.861909736578308
Pb 8.196390690532649 14.726193479130817 11.891577059651599
Pb 9.563465831268873 16.954652976954907 13.992936523275455
