37
Energy = -122.28023113 eV
Pb 8.0722014943966 15.904875018740444 14.213981842379708
Pb 10.309963482445474 18.185620407319117 13.20787081945802
Pb 9.34045544291618 15.290118003814932 11.248982570807316
Pb 9.526644454948189 17.70643059399174 16.343631055433757
Pb 11.08007069626354 17.757667103129577 10.148190572055151
Pb 9.17029864327718 12.928947604029403 13.772603211593175
Pb 13.68459008581592 17.860259292885527 12.3513075093943
Pb 9.262170746124157 14.326297132160299 16.89550546531594
Pb 12.820761871789738 18.0576167273535 15.56174103815753
Pb 11.491229831192332 15.25514757509839 14.638784792078294
Pb 14.02837208778336 17.21881755282057 9.17868814164559
Pb 10.781397298035696 12.32819210381933 10.746287004236551
Pb 13.691545870277258 14.145061105718368 11.545770209968397
Pb 11.820414928813607 14.77146208819928 8.78081534015376
Pb 11.479477361161077 10.413420497295524 13.24770736639575
Pb 11.67522276510551 16.234219380133446 18.080167346254704
Pb 10.830463811219836 11.368987320468545 16.187980096691028
Pb 16.40963285330003 16.129581014461674 11.063829618102186
Pb 13.542803507045543 11.710684041615638 9.177168123924615
Pb 15.188544627238993 14.387237941268001 8.330055155313225
Pb 14.842433344321941 15.689165078653708 17.555768081593413
Pb 15.937597937918843 16.57897148496569 14.500368985369034
Pb 12.674486857092608 8.500500683381846 10.755471660151029
Pb 14.45646217537628 13.412114821979799 15.03571723347779
Pb 12.66666201338375 13.168873414054643 18.140358755922662
Pb 13.878126275993639 10.20945419040044 16.21352472698345
Pb 16.511887692854714 12.490857918741092 10.55649968287006
Pb 14.664786439667068 10.378672890722092 12.672345150762967
Pb 15.695291376347617 9.194105954551935 9.615349933862046
Pb 17.608870903540296 14.442577309197366 16.356871353642692
Pb 12.926465262730055 7.526014920286253 13.917361413964446
Pb 15.824748372093326 12.409293111073938 17.995045523007267
Pb 17.573502282551026 13.934206301371269 13.183279092084478
Pb 15.30261849086248 6.9407061408883095 11.848257027994231
Pb 16.992385299146477 11.300113754106373 15.16098369494025
Pb 15.986252130039265 7.966574681854753 14.831114806829286
Pb 17.597039913039428 9.223033465554995 12.286494223293811
