32
Energy = -104.05260593 eV
Pb 12.476582245355665 12.98201203651214 15.15069729909751
Pb 14.55977725652943 12.779574459683733 9.333062011466897
Pb 14.176076119538427 15.597424586143143 7.954737800202606
Pb 9.373454448124651 12.228582747262893 15.053112374854486
Pb 17.25044641231634 12.147798582409994 14.096143856362763
Pb 16.40296192572 10.142461047937369 9.372776934305994
Pb 12.650329786818487 15.373005988687416 19.143345756142576
Pb 9.103777164749038 9.146464570826481 15.841686022337553
Pb 14.45950338387952 13.47449600354942 12.533707466038631
Pb 15.916502358310979 15.746993330759462 10.679646476447093
Pb 17.104210914064325 8.954765211189969 14.546658437943625
Pb 11.589184229105681 10.350558121008904 17.464274905781654
Pb 18.428684680094953 9.779570637549996 11.88040111671358
Pb 15.160689738317368 10.13484082273928 12.265298169085217
Pb 12.935106384684433 19.717238090695098 14.997305687681571
Pb 14.662793144012213 18.307988896645515 12.69447080818328
Pb 10.520361812075063 13.470322395783718 17.840976316312524
Pb 11.71974807691573 10.036624033079672 14.012805829185014
Pb 17.49283348130865 12.73771196788875 10.994226418999153
Pb 16.277358409156445 15.759925709849329 14.087236395742323
Pb 11.36774946321643 14.276059996413764 8.965728117728956
Pb 12.614629702632014 16.902235365854576 10.303049563219792
Pb 15.837322350238301 18.587522626532703 15.798609225793511
Pb 10.976790194865258 14.624398906674998 12.104184274980032
Pb 8.499913869569266 11.126315670027358 18.122554263021676
Pb 15.428339070142387 15.713507665564398 17.374922345043725
Pb 13.18484441662083 16.290649225953786 15.052482261468263
Pb 12.024608442461261 11.813747704029606 10.96595396794361
Pb 13.321465086139904 18.16580589894147 17.75257311565853
Pb 11.264055783466812 17.774822480380895 12.945863358745925
Pb 14.574174013012557 10.535237453992595 15.629182949834277
Pb 13.928978719840753 12.661868360073202 18.06287922236104
