33
Energy = -107.0535094 eV
Pb 12.559128539125517 17.350546059540445 18.378281572228357
Pb 17.827533087384644 10.782181705110993 11.56679580793149
Pb 16.175448369762655 18.390990817477384 19.591778372448854
Pb 15.047344151224376 15.438925184879 19.729082960332114
Pb 16.9484113023954 16.151676700666137 17.068706441492587
Pb 17.238741217821204 13.480015490069224 21.062007360659855
Pb 10.412179674105477 14.95976007447261 17.645416582478706
Pb 14.932883140341852 12.273771664403236 11.321817602575587
Pb 17.323950739627602 16.34479971623891 10.872236267884492
Pb 16.598375190372483 13.061877438181265 17.964349122377577
Pb 14.284444007300808 17.946952720298412 15.480051975816227
Pb 19.42159413667365 10.804252987216026 14.263226311488072
Pb 14.793248108462071 14.878935378685796 9.384532847165266
Pb 13.622795474947296 14.82686389050578 16.58693483278967
Pb 19.346169919393002 13.620628740269566 15.855488038271154
Pb 17.49795745505544 13.275525699666527 9.55258714735181
Pb 10.454177889391872 13.929361351895487 14.615093534057973
Pb 18.04463825878584 16.45810167534117 21.461865801448656
Pb 9.437934946605488 18.008964212809918 17.38290902691232
Pb 16.53079002844508 18.657487141422912 13.269685262438088
Pb 11.140858864522295 17.034462701820395 14.872876761576563
Pb 14.215182818165003 17.444046205829952 11.350742093779028
Pb 19.247878245972462 17.882835060976365 18.756915163774156
Pb 15.354309253238897 15.358237961389127 13.642622530887481
Pb 17.196823527694598 19.40800867512086 16.55627444973815
Pb 18.54943361726643 16.31370185274874 14.28397499845808
Pb 19.1721555035495 13.646979706410933 12.394885796665328
Pb 8.170565452804311 15.857720552123677 15.524013543536814
Pb 16.66815647366801 12.198190979881382 14.414489616734954
Pb 13.41154187734648 12.502627446184444 14.197385600123855
Pb 19.399343240254684 14.669183226359264 19.04178423363114
Pb 12.562484782203528 14.784945654080655 12.002975261966741
Pb 14.264282256179689 20.10820287801144 17.758974631066454
