32
Energy = -105.36640068 eV
Pb 19.01591729982428 12.385301469227683 13.145099071266657
Pb 17.46836543243249 10.417445985082368 10.92708247814744
Pb 16.582501661828225 10.50639604402904 14.144616067306188
Pb 18.7797944710857 13.422388217513259 10.13959485692798
Pb 17.850590891216985 15.486437871609091 12.654666395471939
Pb 12.190931874419615 9.419752760391408 14.688248435046125
Pb 13.055714164689093 11.486795095231319 17.277889619443883
Pb 16.835842359512718 13.600974439368837 15.202338366952725
Pb 13.37394999787761 11.198705522005845 9.14840137606192
Pb 15.756200418532417 13.142017342500564 11.664376441384263
Pb 14.146173557793778 9.824438968707145 12.000032941334641
Pb 12.595832822143286 14.795294316661115 16.531685849261365
Pb 16.329557777004062 12.451120603155324 8.305971883610368
Pb 13.84742529233804 12.410686559058274 14.343651288944525
Pb 16.597272661830203 15.651608193844769 9.385608286223368
Pb 10.093698850399207 10.026803016056611 17.339137628113548
Pb 14.60948237056386 15.792312436110352 14.043622390075788
Pb 13.666151192858525 14.435308328529011 8.423420412694078
Pb 13.82875168788886 16.567558708824702 10.978421636697156
Pb 10.322022884566532 12.99062144791139 18.350402731832382
Pb 12.3641662547954 13.50991986269422 11.506158008190294
Pb 9.010534389309484 9.327786369435602 14.401418431292015
Pb 10.459850771667387 12.570434844089645 14.719017508428202
Pb 10.628418085714591 10.564669405316739 11.719181000826005
Pb 9.474219810690842 15.49051497033548 16.5262848735221
Pb 10.703068510759875 12.906439723725901 8.628700188263414
Pb 11.03711702115036 15.908621190961206 13.568390314067083
Pb 10.95723776854408 15.95380911860458 9.661386678712947
Pb 7.726510086018857 12.229054362321127 16.29288277707805
Pb 7.525936164252465 11.67915819508354 12.895884019801176
Pb 9.010841719559405 13.905108122026153 11.159962090590177
Pb 7.762374718421778 14.768739665639723 13.964487621207532
