37
Energy = -121.98254378 eV
Pb 9.013169103617095 13.988606677885066 17.172198313705394
Pb 14.667979919863848 11.118196149896873 17.21002548053144
Pb 12.552248569134232 11.818055483012103 10.810732207198669
Pb 10.712009439031071 14.082004775680808 9.38817356174115
Pb 18.247414486280515 11.429236170994544 10.880193270935338
Pb 11.542913800822083 12.074350086153173 17.623457557195376
Pb 15.966286352369929 16.49850311379576 11.351156925611114
Pb 12.605499810966593 15.497163509587716 11.854117691811359
Pb 9.278988133015764 16.732137813898333 15.350266104202781
Pb 13.379590155275691 11.835462244387033 14.067929269159514
Pb 14.77174067395121 15.086507939592158 14.556383574007766
Pb 11.005454593808462 18.30157616667273 12.812934357499872
Pb 11.141691990404524 9.81728008223466 12.851922186355322
Pb 20.105371875551967 11.799343324233034 13.575294983807893
Pb 16.95980022176588 13.19480003820507 18.015807814617414
Pb 14.223802645913109 18.25506592773986 13.747149830566629
Pb 9.23683516305733 12.462672108760923 11.926662291663147
Pb 13.482475652591049 15.762966421208414 8.829827680726998
Pb 15.199126141185532 9.089649396395506 14.697146350583846
Pb 13.462196582232455 18.559341519102716 10.567896199655602
Pb 12.018436177102455 9.34188307520016 15.894737851970111
Pb 16.70324473822931 12.318534828834979 13.8061627029857
Pb 15.579468157978905 13.303981370800834 10.619446921190086
Pb 18.17730698030952 9.251402799288199 13.30406741821904
Pb 12.46864827669113 16.960199553779777 16.07922647773722
Pb 19.16128002121169 14.216827141925053 15.642759171926816
Pb 11.071237835872754 14.18096363418358 14.576894897825511
Pb 15.37733213919115 9.976362167395735 11.610471429223113
Pb 17.56449761449363 16.838383345673556 14.14519842631283
Pb 16.653056221341075 16.202451603213174 17.032055172522227
Pb 8.999404823567358 15.872657685045573 11.91222760303815
Pb 7.65071051314328 14.101852765551348 14.26190736111177
Pb 18.739607350414268 14.481032310791361 12.145395084272794
Pb 13.905123958231611 14.388918755602814 17.792254260743398
Pb 10.733356572281048 17.336978016979373 9.458479723499028
Pb 9.291955509558349 11.333652992907144 15.27415826442324
Pb 18.268545586192594 10.823295349835599 16.230688624143255
