37
Energy = -122.18563295 eV
Pb 9.8916217173316 13.68119927356822 12.041575110383159
Pb 10.446132445900856 12.528511252522605 16.58277307436514
Pb 11.1078762090424 11.34140924263267 10.030762930329434
Pb 11.854149635434915 11.312873815098701 13.393764587359378
Pb 9.63178156422854 14.223031965942914 19.33459865987856
Pb 10.734654110949412 14.324344267384634 9.001936147099169
Pb 11.62253048499702 11.72185786855978 19.62194969784672
Pb 9.845478474526486 15.913643016863787 16.477778499096818
Pb 11.287292061323402 16.570588049364797 11.35998608723465
Pb 14.277673231920865 9.175214704801276 13.941399408739338
Pb 14.022650663236696 10.112347431964405 10.80394137279552
Pb 13.67891297480935 10.867002735554852 17.04767995497058
Pb 12.168376982274129 14.947505145017601 14.292472574416685
Pb 12.574812118506738 14.630293755026983 20.928733922826666
Pb 13.288438437000531 13.657380506028547 11.180097359214194
Pb 13.557864056491585 12.860726052175066 8.073669158083765
Pb 12.864366053841405 14.224684312275285 17.620355253008007
Pb 11.194885894001189 17.078180603483055 19.255921631313235
Pb 15.20717627461774 15.969478546306616 15.600155398888177
Pb 14.747950006875948 12.320845050669364 19.908357329843888
Pb 13.321610865437897 16.153315970826668 8.674258229603597
Pb 13.593444170521584 17.916963206558314 13.217685714237911
Pb 12.526292962490157 17.814254279710404 16.39157147080076
Pb 16.753960594739716 10.061236242076369 15.734166376445637
Pb 16.05130792015966 15.078947350846779 12.369484430094092
Pb 14.804908842205487 12.544176961608905 14.340109444939417
Pb 14.398154829094935 16.65450472741504 18.89697578003893
Pb 16.405251800254284 11.844013906743507 9.518986292129318
Pb 16.961853589903065 10.400572552155106 12.423859553990882
Pb 16.295049928995255 13.062574709392305 17.162170341385693
Pb 15.516169889043159 17.911580863729 10.430989783971707
Pb 16.86539372532957 18.143435159704666 13.418753780785195
Pb 16.514717499727876 15.05190390401965 9.013438573297998
Pb 18.399601270747592 12.529712927052039 14.470366388157178
Pb 18.77817980153599 13.545907754043863 11.183544757205047
Pb 18.938289121572723 15.612477859536758 13.831418418346367
Pb 18.566596983872845 16.91464642578653 10.912187555825806
