37
Energy = -122.06070556 eV
Pb 12.55427918596886 10.942473786996063 18.345942951692436
Pb 12.49789941654022 8.453554401487548 16.059759983052313
Pb 15.230496381407642 10.821040259809248 16.322931861294183
Pb 9.811608438899123 9.717180798057663 17.443589815076177
Pb 15.397853922611782 8.032877585577769 14.678767760365222
Pb 13.533448122656116 13.761809300912835 17.172898230862405
Pb 12.794320559642232 8.094846530009889 12.50487552773317
Pb 9.959588160202566 13.043073715859677 17.68888499983596
Pb 9.9486235227662 8.963028802762649 14.068447093932765
Pb 11.49708992656287 11.7195892112228 15.11818850009023
Pb 15.964354681838481 7.967448270267407 11.610086953297962
Pb 16.40943783397938 13.644225452365434 15.162370329578346
Pb 14.599366801566434 11.365883159313851 12.905060320027118
Pb 17.559111744433505 10.247638617722204 13.6485913993759
Pb 13.62747592440078 14.65080310152513 13.944910894624686
Pb 7.959545786456526 11.297067545087655 15.480438130913658
Pb 11.222878111313385 15.622192499528238 15.95624767403579
Pb 13.897373287393322 9.740421194482643 9.839060592518019
Pb 17.314434495444758 13.547363070229247 12.104628095818185
Pb 17.03159223211218 10.731995949751674 10.505987298181886
Pb 8.094877534685603 11.724616711247666 12.291260221714992
Pb 10.578199136785548 10.079876619554394 10.74974923805726
Pb 16.488448354120287 16.695350444674386 13.264096153297041
Pb 11.216729127455267 13.202648280013388 11.919181227219823
Pb 8.607490575072973 14.298139045542024 14.468378271450048
Pb 10.653574866270487 16.47035005153424 12.728486909067001
Pb 15.389905356720945 13.315937135129223 9.329304432256617
Pb 14.018246160996245 15.6811713375173 11.011503484683479
Pb 17.264657109816056 16.204230842501754 10.06064354317234
Pb 8.99334206722498 12.53276911919256 9.193156213068857
Pb 13.6280472308201 18.12734993435435 13.344508789542559
Pb 8.197339796161586 14.88494206628591 11.183030864861086
Pb 12.223453447223191 12.461215858633308 8.79715279304375
Pb 15.651877148098453 18.852903936147516 10.864128589281503
Pb 10.830168148398402 15.351193645271183 9.382484810202463
Pb 12.484965913314163 18.378640612039522 10.256646933476638
Pb 14.73766470424113 17.11625239214638 8.277141998491755
