38
Energy = -124.76734623 eV
Pb 11.759886121409126 10.633044518216936 17.18849391622864
Pb 8.957761532561749 10.368468131189458 11.898089677670042
Pb 8.378666126725893 12.57418429660559 14.08700154904696
Pb 14.34487187954018 10.818057377899368 19.180144604958997
Pb 12.251733973043622 13.215191303976653 18.98795461684202
Pb 14.57314025731535 9.558861572200422 16.169710780656903
Pb 10.83492421845476 9.003635974681043 9.599658275326272
Pb 9.191354855145413 11.816806463323244 8.740462751484785
Pb 12.049374860740125 8.740009712094219 12.606700448257609
Pb 10.763407692059335 14.168845701821061 15.625441797249216
Pb 7.608260319331097 13.283832626037633 11.06487665170177
Pb 11.560924794952205 11.601832716986724 13.918481954158683
Pb 16.964863767491202 11.464049347298921 17.323621330808404
Pb 15.535710892860706 13.925040122283628 18.91008711543876
Pb 14.073942579838894 12.754467500861333 16.18569027128251
Pb 8.989268144213154 15.629210707731309 12.92777441792905
Pb 13.108429014271438 15.784234935173775 17.146567331357506
Pb 11.56423305952427 12.57228814788109 10.776607934036427
Pb 14.717496642407951 11.902123671229758 12.63574777047382
Pb 11.342743087631707 17.26933499133301 14.444236056769595
Pb 9.64009268473125 15.234662902344509 9.463530983430752
Pb 12.289480561028835 11.260282806314226 7.820224747373867
Pb 14.006688917700453 9.588511429198881 10.071822097166603
Pb 12.946848925717882 15.240438675578947 12.619330845210088
Pb 18.28981922389503 14.560022134487296 16.42006566224597
Pb 15.253710150032433 8.85521860525175 13.039584723372778
Pb 17.85316858761215 12.092979537969176 14.088681925702959
Pb 16.011817514104816 16.921529466954986 16.96700365308551
Pb 15.976020765757468 14.809889493878496 14.157595145241022
Pb 10.903915201843562 17.706154093959245 11.251953650928048
Pb 14.685568686120174 12.746469147977624 9.431382782094907
Pb 12.848889221841045 15.460672007108668 9.379706754109037
Pb 17.343534781256807 13.577905152705707 11.17753203414503
Pb 19.370947044047508 14.940226243398168 13.363549016195368
Pb 14.66509540007833 18.03597356202789 14.038466891746852
Pb 14.06526415672625 17.978943299165426 10.825964037078856
Pb 18.050813397406227 17.551853125311016 14.614313689424542
Pb 16.938965769297134 16.74976804623581 11.659161722997167
