39
Energy = -128.94136981 eV
Pb 12.717445253742705 9.377929353477509 16.04346244206671
Pb 10.286839023079496 9.539178770317312 12.733352152794245
Pb 13.893403905473008 10.583089267510804 13.036206606434895
Pb 17.067696589644157 9.681319219938738 12.856971685733528
Pb 11.62845172980734 10.412104559925377 9.87124241886862
Pb 15.936168943131145 10.13738067627114 15.82990294418046
Pb 16.084362767636815 11.857347419202243 10.736206661573778
Pb 8.460950982722167 10.853133503356489 10.334743855265293
Pb 19.890343317175976 11.23966712971612 13.41567954818523
Pb 14.424638781338489 10.64759778971875 18.5474466398139
Pb 10.157393487284079 12.280842816138295 15.437156875438653
Pb 7.777781645105805 11.724957981479148 13.330002576393722
Pb 11.429822842430378 11.566990659380311 18.205490719380858
Pb 19.38050164498727 12.36777887813474 16.35347310834333
Pb 13.57709720623201 12.583350301483108 15.565949269079045
Pb 13.624352894616052 13.008628798714028 9.046180330689142
Pb 10.932779408214895 12.6520481946468 12.147715469126211
Pb 17.26768147246819 13.182186136123558 13.818362601356165
Pb 19.45017461690264 13.830982515218908 11.304156058673362
Pb 16.71499326855994 14.925573596753424 10.164142815818789
Pb 14.066697511021541 14.144290762021974 12.167795888081763
Pb 18.193762913185246 16.416424763284542 13.031793653049094
Pb 10.217597029333655 13.198268733603538 8.885789366363865
Pb 8.149104505380876 14.157270641161853 11.264554636632088
Pb 18.36836592264339 15.566372915741013 16.22634590236913
Pb 20.59102148483297 14.388002984751415 14.21336988850239
Pb 13.452163140858937 14.126394795347574 18.46899855196837
Pb 16.423599160535616 13.049412918283128 17.36935832264245
Pb 8.21443413376994 15.105298719596012 15.024537989263155
Pb 13.930847674064534 16.25305972643213 9.297042629058437
Pb 11.492752772915651 15.244234940305267 14.50156652269777
Pb 10.232636876305703 15.02572424982665 17.629104750952052
Pb 15.205038335358003 15.674136810029447 14.961695608344868
Pb 11.333210862012546 15.76521390663952 10.923266155202896
Pb 15.024571876100305 17.360792612519592 12.063833597864393
Pb 12.702552415526535 17.08816201063582 17.021647688852106
Pb 9.75942414263819 17.931474949768397 16.023777436296545
Pb 9.338840351675413 17.257580709639814 12.908133491687249
Pb 12.35547735335422 18.272929300443568 13.978675980215167
