32
Energy = -104.1205717 eV
Pb 16.600562691812563 15.648016747875413 18.463750061301546
Pb 18.590388703148395 13.155516647646712 13.763461004811404
Pb 14.436706668916528 15.204725408202197 8.889655294255373
Pb 15.457067600379498 13.833584091686722 14.479147137342244
Pb 11.4236258950538 14.87486621678454 9.611492083116703
Pb 16.649590853754265 7.917664322138623 14.359165727498224
Pb 10.670956626453096 9.696468323492567 13.470765723567864
Pb 13.395456894724365 16.26297768097142 18.75331222609521
Pb 9.262993465049886 14.76309115665623 12.136742687590068
Pb 15.416541060897732 10.499070045410535 16.1339152820389
Pb 12.097836609662059 15.25715785737128 13.906371379852512
Pb 14.798459662145705 16.81552015646153 15.943302479232276
Pb 16.32413776465152 13.839783142476147 11.264725311036907
Pb 11.448320514587087 17.43755101005347 16.390611413027816
Pb 13.63375160513809 12.3725492367571 10.109695529493528
Pb 12.84322736318317 18.519678926429176 13.500016931229894
Pb 17.71891672867079 12.905819513720052 17.045852910228867
Pb 12.062867254658261 11.01523441729453 16.223343892988954
Pb 18.531701539285464 10.2343032541962 15.168904632683452
Pb 13.632901283755473 8.711620212268748 14.068268651835485
Pb 15.28158910256628 16.64785452972096 12.567773216878827
Pb 10.64756005241076 17.50517306979343 11.543863094543056
Pb 13.008935112809647 12.048120836078013 13.301609994219366
Pb 13.471681773634026 18.06773853153253 10.055054161167588
Pb 10.508725228197317 11.921030442710897 11.060980261166554
Pb 16.597281174607105 17.13179953315623 9.866208192251323
Pb 14.326397316553352 13.388931914998585 17.55992118811136
Pb 9.638480765225994 12.539657121786908 14.585967875236891
Pb 8.988528372495459 15.676050691057991 15.24760756979947
Pb 17.964479260124495 15.797768366632157 15.488510006005827
Pb 16.22529053787444 10.625389745434559 12.772390059918616
Pb 11.14050843653458 14.266315969853009 17.194980943511457
