34
Energy = -112.46497173 eV
Pb 14.042734232742582 10.279613157260004 8.103407561505223
Pb 12.380149350418272 12.942577571048165 8.893478127295866
Pb 15.166660054689604 12.612569377896891 10.617036563622746
Pb 14.445397550808943 15.480788469087374 8.465778508115454
Pb 13.330357018306175 7.444769144146796 9.49562420885671
Pb 15.821670128483964 9.052633167591898 10.629105957430847
Pb 10.95602469167229 9.585758926077448 8.731580137078693
Pb 9.357314872609473 13.032195408928768 9.974537061133569
Pb 16.53348382920383 15.844079143724345 11.02029540364357
Pb 11.7820447300589 17.131166598208225 9.109866536494104
Pb 12.764433650143637 10.465726363137051 11.282631448644766
Pb 13.28627582392002 15.435284590043771 11.54880802169011
Pb 15.573268054960417 10.777154091036467 13.437220017956356
Pb 14.616385181697058 18.31766935561454 10.11667146446716
Pb 13.794664816417331 7.81270256895948 12.971770438115337
Pb 10.804561332242017 7.823484084460702 11.510039147130643
Pb 11.21734230648511 13.121042767965701 12.753412975234061
Pb 14.953640727055928 17.657687396444118 13.319146553657351
Pb 8.952397165555855 10.606217546320899 12.239589421604702
Pb 11.417632182669612 10.694651677875482 17.635014687789738
Pb 14.1170527509022 9.32902512165813 16.238767491592085
Pb 15.541088092895079 14.127448423336691 13.963812355347676
Pb 16.43182221549589 11.726663176019274 16.484296557944447
Pb 7.926013688579725 13.639591071484197 12.831944765709824
Pb 12.090190770729523 18.47928787473956 12.13899532757501
Pb 13.178656776276009 12.426428622183428 15.489271251337783
Pb 9.779341185271667 15.986264234853278 11.609818511234124
Pb 13.005994329289324 15.84879296248694 15.266673176255129
Pb 9.857113221910021 15.263033064721288 14.909381573844561
Pb 9.24479748993414 12.011804986449512 15.316860836357082
Pb 15.026834101298038 14.566340084321258 17.455517925547518
Pb 11.12517213554494 9.33482748750622 14.526529478901972
Pb 14.284641307313683 11.714048353112458 18.815139447225047
Pb 11.954581289348233 13.891756349945267 18.125698115393167
