39
Energy = -128.70018494 eV
Pb 15.587636440332565 18.431490690237805 13.045878395467575
Pb 13.04030387324835 16.17848556611232 17.436074315287865
Pb 19.12056398853842 17.90678803315848 13.52075384455366
Pb 12.037925810498729 18.73712025093399 15.35049460678205
Pb 16.43114729272573 15.613735463348906 18.189073434305335
Pb 17.505093559867834 15.197424801290731 14.905619437520423
Pb 17.630475351724222 17.27992195986685 10.798391179277202
Pb 9.874136448417016 17.65569937543615 13.145999307452216
Pb 10.677128170689043 14.122979557734197 18.34558292034437
Pb 13.066895680179046 16.100728839823844 13.82091464331395
Pb 19.70754012976582 14.925942993908528 11.992212053552551
Pb 14.139033570947324 13.194294635894723 15.969103839725207
Pb 9.006805173282869 12.819074241964902 15.807256101431822
Pb 17.03476716535096 12.541143035192254 17.68595655855643
Pb 9.869619542528113 16.156133139660685 16.00516567385993
Pb 14.637684549883206 10.438073773842422 17.819084372907867
Pb 13.829545184561741 13.228925118743565 19.17435319461406
Pb 12.595634077979923 18.927028277255992 12.116762383880952
Pb 11.490608189927723 11.12015419524352 17.5404149211366
Pb 10.032012738805507 9.762166541814151 14.96891906860418
Pb 15.4687125019569 17.91806231097619 16.097921087551487
Pb 19.63452403955317 14.535251667281614 17.479289249922203
Pb 13.330101515848412 9.74653242697754 14.84639036464065
Pb 11.661146945563523 12.759253663841237 13.492156244637417
Pb 8.787339557850986 14.609943590661212 12.964502946694772
Pb 16.473241802200484 11.065115546038703 14.770043274216528
Pb 15.33441752639316 13.832202033947063 12.757488097808144
Pb 8.57994696243691 11.362224975577083 12.706906565273982
Pb 18.836638894388226 17.595749215786274 16.749827055778212
Pb 14.510193742758398 16.467834793047334 10.562158678568748
Pb 11.29931743260213 15.658477117803134 10.837117869105748
Pb 19.653452670467978 12.666220868380039 14.747180172584384
Pb 11.403695867905693 9.8695486439179 11.900264046488687
Pb 13.59422930632794 13.186671712519269 10.111581292130996
Pb 17.01175621308533 14.167699471383264 9.951028961548214
Pb 14.624888479462015 10.748015098232544 11.909948264925061
Pb 21.002354948547147 15.732291524790648 14.916265247154653
Pb 10.364571467614192 12.59396889787337 10.403616646462751
Pb 17.94602334689541 11.978736110613738 11.989413843045142
