32
Energy = -105.28359064 eV
Pb 18.4110109950076 13.07827072383588 1.631761397751834
Pb 20.468023926168417 16.356156144029345 14.278592913944069
Pb 18.798848247517235 13.524494595806495 13.721707915896301
Pb 14.528278232716946 20.07955405770205 18.17102250042927
Pb 13.733282155820884 14.642779375401096 20.24058074850855
Pb 13.838850926824202 16.08368194978639 13.466515293672652
Pb 20.315399395059806 13.562447290005242 19.859738367968504
Pb 18.52430288235267 18.936988061786785 12.957263530078535
Pb 18.839548039937874 15.226033346346783 16.992984697044374
Pb 17.901197183565223 12.113961964060362 16.602815374654615
Pb 19.739619404501283 18.47120527243177 16.60672670112734
Pb 15.446883216195396 12.10867846703269 0.7276845654108357
Pb 17.03234918983017 16.41367140425414 14.309566837043935
Pb 15.873043680385107 15.11346394473466 1.9372017658791272
Pb 12.7435776043982 17.527348258458083 18.656621592518857
Pb 16.21885565196475 17.363180897692388 11.00013766965581
Pb 18.964121247641163 16.342734133036668 1.0704265180924677
Pb 13.48190922859025 14.907025139967109 16.759468447166107
Pb 15.059818403109709 19.167731129795378 13.24620481834366
Pb 15.322143412281685 17.59682565081014 -0.09006493357830402
Pb 19.019812638362986 15.973102859022172 11.444702501888015
Pb 16.275440428805357 14.204249887890503 11.706207752912185
Pb 14.264898875341812 0.5510830538117559 15.232940058293178
Pb 12.858368004106707 18.576115564864686 15.600325361227672
Pb 15.502905044744168 13.312370248179535 14.746818795123422
Pb 15.025384043300832 12.317268025592087 18.229630957331352
Pb 17.964784263712904 11.300909850599593 19.732470716425002
Pb 17.104593544152614 14.639212954586055 19.75283348423326
Pb 18.08078889338147 18.566140859693412 -1.3841862581807678
Pb 15.909638363931883 17.086801399448376 17.497116253325295
Pb 17.022997718239655 20.047628090846242 16.053536194933262
Pb 20.722949717621095 16.66524933247481 19.274432258305545
