39
Energy = -128.15488459 eV
Pb 10.917234476300198 8.488561530774833 16.201321057429826
Pb 8.715197092272238 8.754089316322416 13.9058259956038
Pb 12.14391947828247 11.22785234872054 17.54947842384504
Pb 12.001268847435234 8.59217660321496 13.129684531706708
Pb 15.329456410618494 11.327295135789367 17.94486490185173
Pb 14.072783858494141 9.099309753463514 15.807143624699366
Pb 9.308249067045612 11.37284643053116 15.857601795005912
Pb 7.169586612467543 11.519466796194898 13.485020014219563
Pb 11.55505252239457 14.218555843031751 16.207030239912985
Pb 12.882189448287791 11.727412699298451 14.3616941968435
Pb 17.094194011260868 11.30291405201295 15.188681579470844
Pb 17.66637459644766 13.333776040749104 17.74209963548443
Pb 10.244222719321536 11.159427260953697 12.204481532156144
Pb 14.485593064042753 14.4960288841993 17.989724618621967
Pb 13.167933520704821 9.716260695556684 10.019242373752355
Pb 8.573845518931027 14.344512090479203 14.422648711470867
Pb 13.851082169148922 17.477962415040324 16.8485785716049
Pb 15.428729894458561 9.80433131870283 12.694677361067098
Pb 8.114226286271567 13.707400673734771 11.227723221881032
Pb 14.17497915007174 12.574106302889303 11.136091260232877
Pb 11.247312483400872 12.249887292017691 9.085510245716613
Pb 11.431171549385347 14.275804149061223 12.35069938792632
Pb 16.343186908039097 10.551116010204582 9.546205654020055
Pb 17.738451598500063 12.190287463628897 12.169004321340157
Pb 11.520268684429704 16.9895097770089 14.410424861468995
Pb 9.113021397483587 16.653822511916527 12.09278131611118
Pb 14.633678014142932 14.986279431038144 14.703495567609567
Pb 18.50628378958015 14.278607626449745 14.67296188105895
Pb 17.10517524731922 16.356096323227508 17.03671045256794
Pb 14.083867638171236 11.856017798139193 7.665402131135615
Pb 16.296557314155027 19.27650715360211 15.9789509968979
Pb 10.014308372849547 15.396690178215206 9.24083430463103
Pb 13.238535449122239 14.885709371370405 8.61844031358608
Pb 16.54243533293979 13.741340252215386 9.082787544434366
Pb 14.278626847694623 18.41861340563119 13.608076392888556
Pb 12.208685565050319 17.27786707309345 10.903580217976469
Pb 18.33054855671997 15.271530077103325 11.47365247033979
Pb 17.31501593269708 17.24579592241762 13.761343923899618
Pb 15.051854025359395 15.749335443297857 11.57062782082919
