35
Energy = -115.6129686 eV
Pb 17.96932626569729 11.497166464889762 13.632657699329581
Pb 16.776174918196368 9.425200435729174 15.79034207256164
Pb 15.47118473471298 12.8864569287678 7.508036540734738
Pb 15.625852387365757 9.404375385487723 12.71784356757939
Pb 15.874492098159058 15.709603048174158 9.108672523011705
Pb 17.172853448205988 12.66143227144613 16.60221159532719
Pb 16.730785149365293 14.58940859841848 14.090950206661802
Pb 14.105551595421316 10.603260177016034 9.749634788384812
Pb 15.963584233752611 12.730870253403532 11.323057795750225
Pb 13.789527120219175 15.494217103241454 6.6354540084306635
Pb 13.491471998006793 8.998065287707263 15.265053811031457
Pb 14.723046500779132 10.979086517652036 17.747746739532133
Pb 12.24419042095373 12.35905367719985 7.09075612796205
Pb 14.688564587586589 12.000844059816313 14.57775675205826
Pb 11.108407088921924 9.765497616944371 9.108846948632303
Pb 14.050174578877249 15.592642566732877 12.484723214533746
Pb 12.084331180734736 8.431256141973966 12.014312392126078
Pb 14.45693949190911 16.346928381875113 15.881887381019123
Pb 13.222584779178272 13.936858878494032 9.714205305730374
Pb 11.565432500969461 11.404644719230998 17.374726259581923
Pb 10.253562898152328 9.773732057297135 14.469605041687705
Pb 13.3833976932131 14.200742480479573 18.217816964989623
Pb 11.941719700785955 11.715366908623286 12.226428786802675
Pb 11.995056106175683 14.096415403207505 15.203532457945931
Pb 9.065200400593866 9.665457569894869 11.522428719397292
Pb 13.054785310591912 17.194069521061557 9.308742871477246
Pb 10.810207761753075 15.256079553807258 7.999689251033322
Pb 11.814646486055901 17.405995078355584 14.143575576902707
Pb 9.712316013713696 12.601936202173643 9.762567380441585
Pb 11.551249132184685 16.93242951785135 17.25629519038218
Pb 8.769213530827821 12.383295342888701 16.052556454250002
Pb 10.141938292347284 14.316467482071484 18.228921862440494
Pb 8.68373122076079 12.631995813563256 12.88659499899765
Pb 10.830075976780016 15.128857013940785 11.804612323991167
Pb 9.184929872171088 15.594300411043275 15.162507265907434
