30
Energy = -97.4342765 eV
Pb 14.503626995001632 12.485886433507853 6.918440934806066
Pb 11.207075437684125 12.941575235272547 7.236651483656112
Pb 12.656553177222914 10.303370975102718 8.359171838781682
Pb 15.607181319653353 15.398782455064154 7.056043729638908
Pb 13.013151571617547 15.071103638495966 8.598686403369475
Pb 15.719703016969579 10.579432079127242 9.279811619311095
Pb 10.37491696590348 11.971359570763472 10.166902623012648
Pb 15.942267749789508 13.737480350617538 9.717238307104711
Pb 10.436882637770234 8.904390058957821 11.164814155151456
Pb 16.265425151224747 11.19469089772056 12.60891186110606
Pb 13.696128656793853 15.978259753495982 11.745447527697225
Pb 10.38544795875649 15.030668399498401 11.362364545203981
Pb 13.385620688998918 12.461016326440564 11.187276573456689
Pb 7.581640744850047 12.520284774244864 12.189116130367951
Pb 7.963879100538916 9.18598639935789 13.489655554640251
Pb 8.72530397843321 14.77028523393308 14.349724486715404
Pb 15.602663652163358 14.101680829995852 13.794970677624573
Pb 11.350691537838038 8.174934219642493 14.116808878635089
Pb 11.167966268891249 17.166811107062625 13.628906448387696
Pb 15.712231601614315 8.69065375436883 14.480689043523375
Pb 7.388883197201235 11.787150268839548 15.305296445281405
Pb 10.277707594626678 11.368528424169465 13.586502484755162
Pb 13.753966863816062 16.479552378035343 15.231071959776772
Pb 16.30566702879847 11.473265161590666 15.918736520697308
Pb 13.75756516904407 9.013591191556369 11.829783513047273
Pb 12.037070299940359 13.997466759900442 14.026682916430046
Pb 13.345587668094604 10.83217296518084 14.755673338441987
Pb 9.654919692719945 9.733630546042319 16.36212328290186
Pb 10.19620756024171 12.944721104911801 16.694924849077662
Pb 13.827533584593407 13.54473557789431 16.681038738191354
