37
Energy = -121.85037567 eV
Pb 14.543140503976495 11.479107596804461 18.560036468207883
Pb 16.43645785712328 13.56282812358411 20.16368457910006
Pb 13.122768545821824 14.233931973361317 19.618103375533558
Pb 14.996099461451221 11.286379169708013 15.194475677246166
Pb 17.576413796345584 12.239625097940134 17.440772968316875
Pb 12.063522693051253 12.295905564440927 16.423740150954742
Pb 15.438427379071207 16.551699082792915 19.73198706929807
Pb 12.530654821197373 9.318287594750377 14.255992823708223
Pb 18.008914889448455 15.43186545614764 17.94803614179553
Pb 10.586802133607385 14.96603514112355 17.446082039967642
Pb 14.09437024840374 9.623115134380587 11.513454020250121
Pb 15.065349337070224 14.350764152309972 16.939484003877467
Pb 17.332025409248196 11.058121627080775 12.978011841700985
Pb 9.764118780368548 10.94942886564251 14.016355140536376
Pb 12.690431113578029 17.3427849314835 17.97010600709688
Pb 12.65252215243894 12.447580110912952 12.99605175395882
Pb 18.80010910846981 13.426125071789686 14.469922624865053
Pb 10.9307544209686 9.880608960195811 11.307058452164105
Pb 9.413776641333792 14.097221669310866 14.56888612552067
Pb 15.895658701097975 14.214699222671506 13.151190640221644
Pb 16.240890024251314 11.278567033291155 9.95357500746042
Pb 20.343890277436806 15.533619627017066 12.57909789281892
Pb 15.763450794638375 17.84006929121372 16.715485599814293
Pb 12.80430341124563 15.605694041879763 14.726182927539869
Pb 12.804161226727157 12.102456234580416 9.697488067480073
Pb 17.980909808981973 16.58634101404277 14.540813690416833
Pb 10.157823533621695 17.427387875643422 15.255209177809691
Pb 9.778807537452414 13.038371910507122 11.262550594766056
Pb 18.584157533826648 13.385713837997573 11.036257119985574
Pb 9.647122448966321 16.215062776003624 12.140825301312917
Pb 12.134360010872804 15.325617337245214 10.262317557470292
Pb 15.496736283057329 14.342722363397124 9.816073830533778
Pb 17.675590306324935 16.612901884906645 11.19829668759424
Pb 13.051111368443724 19.011090296108833 15.253069609921727
Pb 15.533991517516407 18.29120798968672 13.236844818858538
Pb 14.65170045195896 17.388143817478248 10.176939756224028
Pb 12.220775041738609 18.07101769370144 12.26764002680482
