36
Energy = -117.45748257 eV
Pb 14.362031005166328 15.202296998869574 11.825482962387055
Pb 9.000146869402938 15.816987881194711 11.35469899168933
Pb 20.500351864581848 13.128663434947821 12.922526445648145
Pb 12.85471065539206 14.988437494812052 19.48030055148689
Pb 12.755728976195885 17.275632899612106 16.942782228803033
Pb 10.029304517718185 13.300334340484547 13.01116622391903
Pb 15.572726246380773 12.478677422306616 14.691023319695809
Pb 18.261582648421715 10.897860921523446 13.089365477809544
Pb 17.52295288144171 10.00772127756491 16.01187856684818
Pb 11.902696447633488 12.192295978225442 18.128721111978287
Pb 9.427762330115398 12.780223562710459 16.112106088312522
Pb 16.64768325136912 17.484472142566126 13.087381209563002
Pb 14.527386838121197 18.883583246135895 10.798818717855593
Pb 19.270627094391163 12.561109555323787 15.721356170464091
Pb 17.781856358269902 16.91194283464908 20.302938107713892
Pb 11.746474486334236 17.33282393514229 11.185392672909686
Pb 15.729250139326075 11.979570944511039 11.418748184801615
Pb 15.776984157372059 14.626077266941584 20.937853071621653
Pb 18.71489651788021 15.592082198015408 14.826202893937905
Pb 11.902600236793027 10.92637002750491 15.023498746478495
Pb 13.378748768009388 18.094564745773205 13.81860849210746
Pb 17.922889384122293 14.50548279898201 18.10171535142753
Pb 15.126412555773456 13.044263347438495 18.192362945364316
Pb 15.958513943126752 14.048084172961543 9.018491030845796
Pb 14.480740310771326 10.258489678358282 16.982814579362135
Pb 17.759749811489577 14.409104476529308 11.866965725092701
Pb 10.439710008122498 16.41169235072104 14.195748065236646
Pb 16.921788284942583 16.985950174285048 9.86717236223041
Pb 17.612301992907515 17.662396488209144 17.197056111460746
Pb 12.403202729637856 14.19163788066775 15.339957515727876
Pb 10.185275623405898 15.502672426480148 17.584748167148465
Pb 13.851959198897628 16.493286594780457 8.697842338607503
Pb 15.495906756883539 15.591793074776707 15.888467811636467
Pb 12.628553839026953 11.75716546128926 11.990814580169609
Pb 14.913969220656048 17.47204947417252 19.23480007417533
Pb 11.650584158627753 14.22226260024381 10.168253214192658
