39
Energy = -128.46862961 eV
Pb 18.270060802391754 18.477589237367287 15.005350466726176
Pb 17.947135127994514 15.258309379339885 16.261808761267254
Pb 17.8457180399558 15.968372168000569 12.964524099126221
Pb 15.29292574388709 17.74381986275924 11.904672081173798
Pb 20.813683066966917 14.27482378484881 17.31892174876139
Pb 17.770672015596748 12.77691897858774 12.61790643454715
Pb 20.33220200525968 17.372892677559747 17.285283821567077
Pb 16.846668519322748 15.244231912023444 9.917222448138645
Pb 19.101550242022498 11.815046806472672 15.452816842502283
Pb 18.92806161122424 12.119206541382944 18.760901783240087
Pb 14.922833934974825 17.53915574069697 8.751336414309094
Pb 16.454476677375034 10.13113274644285 14.194640341049025
Pb 17.47022055874896 18.374571602839495 18.29146565512088
Pb 17.156178307234693 9.899715211856394 17.35305892431838
Pb 15.47128871637168 12.24430193306288 10.276418499208832
Pb 14.666999041077977 14.59779803500537 12.600855819948787
Pb 14.272594343086311 14.503433364402655 8.113718674360914
Pb 18.608426972771923 15.391219292237228 19.48951653240459
Pb 12.490549998807067 16.391702641984548 10.34345973612568
Pb 15.629439992519508 13.065294721267964 15.504039218313606
Pb 12.38223193916987 13.17018815365964 10.369359265686715
Pb 14.05380090892225 10.349945795073051 16.513790406213367
Pb 15.154525039112583 17.224130437986574 15.58006988178077
Pb 15.325488107871301 15.681823195703906 18.588140145470735
Pb 15.652774626608622 12.308666617251168 18.931734049633594
Pb 12.15284731171692 17.42593686860768 13.642869017951273
Pb 15.974631194062097 20.406781586318225 16.24923436592798
Pb 13.576372784248923 11.480808971705315 13.20248985262036
Pb 11.721763696243018 14.20306539512023 14.503818653232996
Pb 12.796070837804939 13.296146559263931 17.566577439002543
Pb 14.282149570676498 18.787925766713318 18.649173770560655
Pb 12.88642906809472 19.57441314103415 15.922862189242727
Pb 9.713285074169786 15.130799508102852 12.00614451195642
Pb 10.606172955484476 11.351496306270862 15.625108986922044
Pb 12.130654378625609 16.506934549336897 17.104376802381534
Pb 9.213828605037353 16.436396735270947 15.033038635894018
Pb 10.187927527954002 11.877819488838561 12.36658874514486
Pb 9.548599782509312 14.073573269425586 17.22957348151654
Pb 8.239921216647751 13.41477135872812 14.39829183920117
