34
Energy = -112.01107886 eV
Pb 14.70459385847365 20.841458515872517 14.243079909248786
Pb 11.652701034153786 14.573732555210848 10.650231554062822
Pb 17.02834781597252 16.202813719527363 18.442128756602983
Pb 16.699611879525456 15.546838139753447 11.540021346665942
Pb 18.785024380966604 18.1546969285164 16.300541649022705
Pb 17.430601275014006 20.9918756074672 20.31975302888937
Pb 18.959815403824116 15.663125437582918 21.057433310187257
Pb 15.899515687482369 14.662515625418832 21.597746643721802
Pb 19.47976821269058 18.521406577808996 19.538715727253464
Pb 17.165858834375467 9.298773648885426 12.984857874708629
Pb 14.056540815886144 9.270047446150757 13.841418711008883
Pb 16.392786881460328 10.201024312729569 15.934791486531308
Pb 14.77090632176634 13.197890437834998 18.978430134951815
Pb 17.886431608174767 13.14006077200733 19.429560061181856
Pb 16.15061827905544 22.257650221864964 17.617526194728864
Pb 14.992296790496896 10.158216687820824 10.841587456391144
Pb 14.112773721790154 16.58063586770827 9.768076930157358
Pb 11.939934096976298 17.616294117992553 11.883498898922774
Pb 16.369134761874484 16.40287991512056 14.71955743966471
Pb 13.786266865164807 15.175998803682399 16.559430370231027
Pb 17.75949117650517 21.039659713091982 14.90490745215927
Pb 14.563163407359834 19.876543355624133 19.540038075441466
Pb 15.139964873593444 18.375638890321962 12.161319372503932
Pb 14.603619036717143 13.359558664713932 10.008633698459432
Pb 13.709441367164914 11.978875080046752 15.697253794891944
Pb 12.671543278686004 11.84950526704607 12.434050788678467
Pb 14.050585990864338 16.536689317983523 19.652867033095294
Pb 13.773035419977445 15.098815257018094 12.983711623560282
Pb 15.81890559535812 19.137688531317107 16.764300761377445
Pb 16.645067041431524 17.984535678332257 21.388748947638184
Pb 15.958859920844091 12.249901517341167 13.188620444792862
Pb 16.790610709984943 13.47709624894625 16.273118085414048
Pb 19.225863677636756 21.174980931822592 17.638303614041313
Pb 13.24723447311434 18.009770998016357 14.919369382397651
