32
Energy = -105.21273106 eV
Pb 17.133950893910917 14.54959869600113 18.024045535826566
Pb 15.682047805754117 9.29641944002152 16.58310655218061
Pb 18.130444886990922 11.68006480457517 16.706359301125328
Pb 15.007237558767256 11.85649285234889 18.578215848407105
Pb 14.272675571970808 15.011299836860172 19.36078782572306
Pb 17.978618043375654 14.658818640133173 14.90523942306308
Pb 14.751052473662808 9.095528701209396 13.441418310785854
Pb 17.195126291226323 10.394098415512492 11.59139041327966
Pb 19.34453444982206 11.934737153051298 13.584075582274952
Pb 15.157493993969492 16.72902444844181 16.519327268352782
Pb 14.416018344008734 11.969426884733444 11.281315265811832
Pb 18.003008200904752 9.119363564168264 14.444474160058588
Pb 12.625190004575128 10.677104563006377 16.40299247050535
Pb 11.92368548543564 15.974688144333216 17.395187361176074
Pb 15.717716820639373 16.59419513006975 13.198945637292896
Pb 15.882478942136316 11.985701348595379 14.29399658798901
Pb 10.576485038002042 18.805143142183752 9.24952311417276
Pb 11.900949759995465 12.926305146052819 18.79278458198299
Pb 17.269521301990334 13.830557558227342 11.8214741386365
Pb 12.777463885521046 18.07267623555141 14.355498289604393
Pb 11.872622788189368 11.591671952940583 13.205099759018083
Pb 14.727282230347626 15.30451157183156 10.124068047108635
Pb 13.436544830881788 18.262200492732106 11.063135670996644
Pb 13.880366097492935 13.754790761224994 16.12348732290043
Pb 10.546972171807983 13.223322731792315 15.81462708885706
Pb 9.704093542833219 14.213881765316872 12.394507434398465
Pb 9.930743180222503 16.462872901672057 14.926860510257823
Pb 12.440477441519542 16.571210248019312 8.310344285810427
Pb 11.835100487426223 13.734414723139395 9.911868891133222
Pb 12.810634940895147 15.115572231271758 12.836238499179416
Pb 10.309664395633524 17.4737748651374 12.041597674849147
Pb 9.411122201860003 15.78185511161388 9.369331209009843
