33
Energy = -107.61288874 eV
Pb 11.257029156561945 16.76759462525226 12.017412218025672
Pb 12.234967901598445 15.541306673053432 18.099242171770584
Pb 12.623898024546978 17.58104432603427 14.694658660328106
Pb 13.284840191514558 16.891345870131094 9.51580203692924
Pb 15.470369049693383 13.394569550204501 21.673509098621807
Pb 10.298376083336535 13.586602677853291 16.23930075570611
Pb 12.519032119256753 13.57764430910173 20.603323507398684
Pb 13.189335769478113 14.439118617537394 14.894817951991273
Pb 10.608029926362404 13.38865896266926 13.059572595688552
Pb 20.442066825132876 16.007074829027058 15.500710634506117
Pb 15.120819904292077 13.732841189204352 18.48480946514578
Pb 19.10188431400194 17.959017951253205 11.660596880328614
Pb 12.502297906090295 11.838252718354086 17.83296459169334
Pb 17.16026512172181 14.917296177965259 15.957968926464575
Pb 14.903676525782535 11.759211822132357 15.583452379807989
Pb 16.864490402216802 20.183312876958453 12.187892115367319
Pb 13.67668031096555 12.161079006022591 12.522140121619108
Pb 15.397144095020137 14.625984480851672 10.853675090484515
Pb 13.637258142129404 19.30331359754419 11.837263877035115
Pb 11.668084665514048 10.929928812845185 14.861518143375383
Pb 12.206229648622825 14.11097380969589 10.403951076832891
Pb 15.1098527725262 19.568745538224267 14.849502087805034
Pb 16.22809400340837 17.782375925243713 10.118663672367346
Pb 18.13641132874785 18.289769491897466 14.666640741563707
Pb 19.719771616735088 14.221839041844959 18.107140627293482
Pb 15.173452530915641 17.01573567730954 17.947024396838568
Pb 17.755975943461582 11.895137780858782 17.069134660486686
Pb 19.888467417704796 13.035313829065998 14.9284673033223
Pb 17.14089257428322 15.673979220231763 20.275847280954235
Pb 18.548689806325346 17.309439225006216 17.86677624692523
Pb 14.108125798820877 16.34241774043543 21.00309865600617
Pb 15.459288987766694 16.71318612242124 13.303645330562533
Pb 18.333172087581357 15.09398435313008 12.86816386150183
