38
Energy = -125.55223791 eV
Pb 16.978340933313014 11.697015622650051 14.885181208803079
Pb 15.302296557347276 16.58376390745483 17.316694946491484
Pb 15.837672124913956 13.374202897296216 17.568840106645293
Pb 14.61545210969872 9.450203808310365 14.446726728009667
Pb 12.950865151668943 14.74076135434164 18.269913932380312
Pb 17.351103041070573 15.110986936073832 15.143919521113064
Pb 17.414543238212723 10.464899622006891 11.690315607339663
Pb 18.651068724543197 13.269361656382747 12.619959471387244
Pb 12.18002243231146 16.921052498738312 15.969512013636958
Pb 13.00265931005202 11.60663586395182 16.713528995489455
Pb 11.778367689563181 8.400719728588914 16.02702985381219
Pb 15.125297519684064 12.611504413551462 12.299901793432706
Pb 12.71073321791416 7.004276668582938 13.304788865249135
Pb 13.939255479700668 14.299058625826772 14.987550379286718
Pb 10.673236470018802 13.801559662811002 16.148078603899943
Pb 16.650362941793162 15.754657433428246 11.780313403608282
Pb 17.265714222205357 13.208477764285728 9.749316578955035
Pb 9.478047003438864 10.714902947839667 15.723799262699584
Pb 14.95891304618149 17.368793990092005 14.168034097725236
Pb 11.75861968091117 10.423122886132418 13.368824423460984
Pb 9.410954073062271 7.87782271368748 13.785161949422994
Pb 14.146687197647633 9.430492277234677 11.173394971046545
Pb 14.287143693419589 17.9195555045735 10.922635542704509
Pb 11.049376677732885 8.131979667395152 10.846475348627619
Pb 9.712952342420722 15.85075578678109 13.873335481751706
Pb 12.80511231040749 15.009494707629592 11.427102867502702
Pb 11.187470595851297 17.84789441423428 11.861119969616269
Pb 11.145259953968456 11.752489627079425 10.452942856054817
Pb 9.360873946575865 12.806364389487435 12.975719647720624
Pb 7.094128275635394 10.381325225560074 13.44799611794553
Pb 14.411859201011588 11.95720681010392 9.10948809700677
Pb 14.74967763215942 15.450637707952202 8.677629385584554
Pb 9.67487972443884 15.321054301837878 10.288641033360065
Pb 7.723092370280233 8.39699307345813 11.018145342022699
Pb 9.414837155255057 9.682667597150827 8.623202212633478
Pb 11.916178788194237 17.202660994667717 8.79355003632759
Pb 7.74638233672298 11.58943144360348 10.517254896102898
Pb 11.892479737164344 14.063526913617386 8.194967543387026
