39
Energy = -128.70049483 eV
Pb 14.84120138431889 8.493202842509287 12.029657980510114
Pb 18.20708837391679 11.220220804688019 15.124727571922133
Pb 16.185959728097064 12.105228265149638 9.27335365557427
Pb 14.41262245100877 9.505673430763256 8.81775097271101
Pb 18.51989398913581 13.949958164903682 16.7188681134783
Pb 16.797701219101732 11.127960050517668 18.170548616061783
Pb 15.408590434803685 9.414240841851846 15.192603592991732
Pb 15.348711904693937 15.006843322234776 8.474607178056194
Pb 17.26525733413466 14.206023329622889 13.69854014327224
Pb 13.449841443477194 12.62277981504445 7.4529940894890245
Pb 11.91453702672448 8.220598177955017 10.547429481270019
Pb 16.295023298213625 11.348053118258697 12.499388670453687
Pb 15.200284549586762 12.845818398431705 16.13167177596385
Pb 16.426884800721066 14.379002388529745 19.100589252588556
Pb 14.344754044842603 13.825374236029456 11.433819950547578
Pb 16.070811027800428 16.096106576362864 16.162826494418628
Pb 11.941708323376163 11.615837444892028 10.634204727962077
Pb 12.117723914257198 15.786750640959932 8.10979003287001
Pb 13.986528187565682 16.96169579693144 10.646456996986826
Pb 11.488867838758857 10.058748456058803 7.760875405229217
Pb 10.243615475424223 13.044776659405816 8.030520797442378
Pb 10.948168029026508 18.090739658062773 10.157108576836631
Pb 13.827536416615894 12.417929091497086 19.3400240020588
Pb 12.143433797080569 8.155099679401578 13.814689331039254
Pb 13.212699717321666 14.960060347802331 14.60524470829614
Pb 12.951043124010681 11.453080397203038 14.036362796367024
Pb 11.018523152995426 15.039305522931503 11.671765115159046
Pb 11.892975323684649 17.89026062097571 13.310538633339448
Pb 13.110327072827044 10.012178027371965 17.327067077881754
Pb 9.57977260031647 9.648861450477444 12.340376189857986
Pb 13.519897963001346 15.43208327292193 18.0299268493108
Pb 8.583441321817743 12.416793922404475 10.686365822520752
Pb 8.67098074859079 15.812467675794203 9.540615549052642
Pb 8.767380399652074 17.742862335653726 12.439812176054227
Pb 11.595753133912915 12.997822877018079 16.915568156878642
Pb 10.257827580365836 10.09406384455823 15.586802232516563
Pb 9.657694524240167 12.719748210955466 13.810358715764567
Pb 9.874827945999538 15.799914546080025 14.870710840113523
Pb 7.495466503754329 14.828265681530882 12.561004699493475
