30
Energy = -98.71419591 eV
Pb 12.75502756436732 14.651615277126403 9.220139133201274
Pb 16.036259674608655 11.828375457881464 8.926708855297191
Pb 11.450949180102674 13.005781292193737 11.910684355766987
Pb 8.465738417990677 13.759536783500513 12.747453826533832
Pb 15.539774321592501 15.739832646094285 10.731740436510254
Pb 12.657343254757993 11.39817963312881 9.170931889575515
Pb 17.831340469647845 13.243025616043857 11.409805537218375
Pb 9.808751868438426 15.360804380150954 10.403154357774094
Pb 9.637234958403772 10.80126911888262 14.106875747456595
Pb 14.68884497129161 12.141978008664813 11.803983732464388
Pb 11.986142804384627 9.58493902810194 11.825875239782956
Pb 16.740389810761318 15.183334569148034 13.904952351611437
Pb 14.779663306518534 9.036720063286072 10.08267924753406
Pb 17.46085517233098 10.112889670377658 11.371996272281605
Pb 12.427587179201371 17.35072256145981 11.15324609571514
Pb 13.3987180153853 15.22423601989659 13.605335039678476
Pb 9.982202341604001 16.53330237105354 13.658668941517242
Pb 15.081015123221729 9.11647421453075 13.456885764474594
Pb 16.91604785428263 11.790873419403821 14.267579875972698
Pb 15.27213203061017 18.069269480511707 12.899801354573391
Pb 12.249360480597959 8.716587986792588 15.14982586654555
Pb 12.786333058311904 11.978892173148138 14.807789134131454
Pb 12.448366849001896 18.544565047890828 14.304251129808907
Pb 9.727656070108528 13.601637018392568 15.884948458134172
Pb 14.969975400176091 14.112708511151302 16.502939988215044
Pb 14.843946208644995 17.338809399311973 16.02208860183461
Pb 10.652685717624088 10.576416552178456 17.200423738851097
Pb 11.865559737635751 16.11783846974819 16.588044966385862
Pb 13.89656545976638 10.468727928538108 17.34108507846755
Pb 12.224356049528092 13.191480652307831 18.120928333583258
