34
Energy = -111.77881982 eV
Pb 9.758647735132254 7.878387126403856 13.1324185399819
Pb 12.820523152264848 7.523518024045191 12.413806805417963
Pb 12.064412813749609 8.952011784810107 15.442278237008585
Pb 10.886783308227104 8.936701316221274 10.143623362019376
Pb 9.284984678790055 10.715841831671659 15.012467788180377
Pb 8.358160652551785 10.346265498863934 11.730842987883074
Pb 8.704181465721845 13.438240601048784 12.855359896663154
Pb 11.670470534136635 12.008431247993745 17.68008004073595
Pb 11.628985119158546 10.690264338850637 12.539630449583441
Pb 15.176562117173097 9.336071213287545 13.860970468590997
Pb 14.526837124302569 10.854936590627352 16.80210990292278
Pb 13.335636383168463 12.390133721637062 8.52869002705985
Pb 9.688918647850699 13.924490415297754 16.043577593306434
Pb 12.555830407830706 12.698059065241488 14.843624625820112
Pb 14.660180737007616 9.675088921993623 10.358445581488557
Pb 9.974342035232672 12.63964802201359 9.643250858950768
Pb 12.003620981913182 14.077895868487927 11.619903254895139
Pb 9.485753722872303 15.90137637252189 10.526580661193284
Pb 14.690323023768325 12.381060647133664 12.022132112070416
Pb 11.75107612180076 15.299651366077281 8.476405597332741
Pb 15.113949841328395 14.197332939503706 17.16870517282185
Pb 12.337079371968338 15.95731982318379 16.737175817394775
Pb 16.87425437428678 12.270298149950781 14.860998953151201
Pb 17.56001020994951 10.783461772211568 11.778435099595415
Pb 10.41051392831756 16.366981535204264 13.856169977074861
Pb 16.5735514687575 12.24939731500788 9.21561821502982
Pb 14.282372107626678 15.249518752301416 14.055674707001819
Pb 12.599550360856158 17.16955362141547 11.155933642454277
Pb 15.364187953107166 17.5244535968833 16.375140432657464
Pb 17.47119646995052 15.524375936331557 15.10528435350384
Pb 17.30116551532218 14.195024435434132 11.878815993830559
Pb 13.014476788004565 18.349729431339522 14.413973637450216
Pb 14.915338575687386 15.104677961327482 9.433826878985846
Pb 15.94720555182048 17.62824807782407 13.062920370646175
