35
Energy = -113.92238001 eV
Pb 9.69500288870826 13.687364788243674 15.821214715931745
Pb 11.59174949997665 19.30520472747352 14.170909321459618
Pb 9.958574134711554 16.378802205692875 13.932028334441972
Pb 12.863360869103857 16.94226369966858 12.355181095368133
Pb 19.172600512088263 18.32101898973101 13.333326209176812
Pb 19.288406303655794 15.980215236253816 15.712973872072094
Pb 16.93146783589049 20.4718959843629 14.523191180020108
Pb 18.93017536911135 19.05427620842682 16.52348503862198
Pb 13.322359645352321 8.749205960130205 17.846064007986495
Pb 12.896030545454316 14.960042354592728 15.096863495877237
Pb 16.224558188837186 8.279791065468647 16.97601723199235
Pb 16.02446516013248 19.756276796434598 17.675055404938703
Pb 18.610304320339484 17.63252358635627 10.086050044496577
Pb 16.044740615068775 18.001754232839257 11.864851892406076
Pb 10.768381583529203 16.22544468290358 17.419211253616744
Pb 14.885963989889783 14.460919969360896 12.172085353023329
Pb 14.538949367548806 18.47893105279374 14.987567532397092
Pb 14.171547543822458 9.30467111136188 14.698849928373452
Pb 18.66066425366935 12.641630968753432 15.12298783920662
Pb 18.85138244878619 14.508906791430723 9.415033512718127
Pb 17.43788582104366 16.890849238259392 18.359594130846684
Pb 16.20602520764343 15.695101842275061 14.977476148446225
Pb 16.025589251094885 15.7827799135165 9.440854909627982
Pb 7.683438651651759 15.980372208691293 16.151137925090104
Pb 12.083025909831951 11.93392962431151 14.435822481340914
Pb 18.367516915370082 10.600671125843817 17.487746908126503
Pb 14.321643563569346 16.712402649131977 17.677259669305148
Pb 9.17871825989925 18.73021272492423 16.202299592008906
Pb 13.61369612264658 11.856510478501347 17.184042969538645
Pb 15.645448742110723 10.60661893281868 19.271260944573523
Pb 15.558235824699082 12.238731325409892 14.600393325862767
Pb 17.449656840444504 9.558344443618417 14.395474886018224
Pb 12.361655187346663 19.228872478651486 17.356621190020757
Pb 16.506203361541004 13.376198974055196 17.62412066766026
Pb 18.205069679117525 15.233459240476611 12.3347875878527
