33
Energy = -108.96424862 eV
Pb 12.21618553976318 18.24577157968066 14.269263525996738
Pb 11.380912902979036 16.96305864058787 11.314635260707306
Pb 9.227074189248915 16.814335520173127 14.118415295452387
Pb 11.034058681237461 16.717585267993513 16.837514046404888
Pb 10.242489905795772 15.370690979851956 8.671146054351672
Pb 14.624259294987326 16.667781443566504 12.660254301999101
Pb 8.459376675224924 15.180637257352593 11.229801978773237
Pb 14.209793064232558 16.319484712664593 16.107522686507693
Pb 13.691757528260705 15.177137211304746 9.646490670333971
Pb 9.29107771621234 14.113941746128367 16.008771983276382
Pb 11.874731138285783 14.791744473292077 14.092946971514083
Pb 17.091479602506094 15.514218060932134 14.635101935508505
Pb 8.737631538632225 12.473603856595693 13.032089910545825
Pb 8.970902524315544 12.382079681642592 9.588775769476758
Pb 11.580022539740495 13.200872882453915 11.186344216424626
Pb 11.823926570789844 12.77654022315408 7.9250939694868565
Pb 12.408977400190974 13.685936493446315 17.280965082067866
Pb 16.51488689871198 14.152284881946086 11.464510605041529
Pb 10.836785640422427 11.245954599519452 15.305950809021004
Pb 14.889384675657784 13.114898927962983 14.113302275045484
Pb 18.43391319676664 12.725865508701132 14.166152442530382
Pb 10.17724887708921 9.560396309486444 12.314523489059573
Pb 16.459534918645232 13.137024503228591 16.863904395975688
Pb 14.738158323653256 11.991859692621405 9.388780691508885
Pb 11.991689398532746 9.827583362814291 9.458371527504678
Pb 13.42371154365508 10.605748688981233 12.494030558023654
Pb 13.909097769541939 10.829939193525272 16.498638869514185
Pb 16.918293032500753 10.850961955133647 11.920035949723964
Pb 12.354886584360473 8.354405287031813 14.621255570039496
Pb 16.87299947730159 10.266254811420225 15.292231765255936
Pb 15.094451056670355 8.776884826307292 10.052679049654518
Pb 12.617285629581566 7.370451449809957 11.542389237832328
Pb 15.324523909037481 7.981542813201056 13.257844992810664
