35
Energy = -114.37920881 eV
Pb 15.907337997488774 13.405204879067892 11.77653510557669
Pb 10.973622018972232 13.902546652398039 15.450494413648252
Pb 17.12970195982917 12.842834855515436 15.155430943114858
Pb 14.661355809024396 15.34944047605335 15.965490138270786
Pb 18.690176644000495 12.859967965179502 9.622292289719265
Pb 16.369041989575344 9.784185682190818 13.915344215642653
Pb 13.969494571471078 12.194155763445872 14.541230106057482
Pb 16.50027841040747 10.40993317040723 10.37227571974117
Pb 7.883483002879318 15.145456829992272 14.633465833544562
Pb 14.890695100527802 16.507451511984282 19.087593909931172
Pb 17.51540159623891 15.029066553893061 17.771239086678275
Pb 10.921465021726826 16.26653110281825 10.440834727830634
Pb 15.68770860200812 13.26632323634446 8.521006304142295
Pb 14.21989411543442 18.615332083514396 15.167888610421807
Pb 18.806363727720093 11.443946792095776 12.517873696853234
Pb 12.505420422895769 13.18169506014461 10.559997889707718
Pb 10.52594677884551 17.157166741435777 14.114386700555658
Pb 14.208120211756798 16.002931775801212 9.897914442250624
Pb 13.392472332523502 9.055065373377612 15.001219175073851
Pb 15.49989531964869 10.363515615861028 17.118216683936165
Pb 12.169983929875102 17.42621484482559 17.100535599957738
Pb 17.423428308889513 15.803768088125304 9.76890253762757
Pb 12.170342514796083 14.48463933997829 18.48755134403645
Pb 8.180272367639315 16.740729524943394 11.981210285542346
Pb 15.22307693694626 13.128671608184304 19.241395180747418
Pb 18.02644961649344 11.92053417813731 18.10985857534305
Pb 12.962642768147287 15.131097183467512 13.015256776189652
Pb 13.16706117592734 18.275952392619477 12.078991346301523
Pb 9.69102017970775 13.863012862447675 12.270295118340117
Pb 15.975070677113616 16.6261241175432 12.977423053319093
Pb 13.673571962872877 10.245400130203818 12.022219801411797
Pb 18.960603463265397 14.678081143899098 12.35557535411019
Pb 9.399930624067624 15.920560210966878 17.378525874215374
Pb 16.815626546164463 17.86559551305239 16.721221059834694
Pb 12.551602298986259 11.406581510727655 17.377669935708983
