34
Energy = -110.97090402 eV
Pb 17.200170163949178 18.853455104739194 11.697543421167861
Pb 14.885581243738528 18.81992962837639 13.7738506027749
Pb 9.362446950364774 12.570962203508795 9.931835577329098
Pb 12.34306908642717 16.446521184761707 12.789654676306942
Pb 19.549108304339615 16.683504357996625 12.22017941469581
Pb 19.013763869508804 15.474799227631612 15.240454696649655
Pb 15.540228352530862 14.33445389293251 16.379182946087127
Pb 17.765976886737466 16.730728194781612 9.450530627562134
Pb 12.360238294415932 10.640191805953371 15.529416786022304
Pb 14.732066721135688 16.819076141120753 10.607729230568365
Pb 16.09216118482269 11.801946276828458 13.027670045613048
Pb 16.35855219454089 13.75807265558735 10.360260506909052
Pb 7.169353164027233 14.491076370314918 11.357430441388587
Pb 19.57073772947402 14.285288750586293 9.739616184110147
Pb 13.456407821681227 13.460098947438267 13.821718284836574
Pb 12.061483591332918 13.869910110202953 16.859025150393528
Pb 16.898773145015642 12.462386752422603 18.599969742420175
Pb 13.400974326539936 16.89120450817509 15.790466000942454
Pb 13.677102529333146 11.438881649083037 18.57981973092969
Pb 15.621855184902397 10.672697018019054 16.04119806295385
Pb 16.817232046851718 17.763779499896867 16.134517740754536
Pb 12.354698971484327 13.688833588579579 10.76460042645672
Pb 11.066906830412519 11.124013593166355 12.414062426268933
Pb 18.396056224150517 12.299454442047125 15.562593995522752
Pb 16.320600481884796 15.753696334551528 13.261486150486826
Pb 18.83611163918878 13.413096366444172 12.593359429424273
Pb 9.245735918492327 11.85342322614513 15.30218505674588
Pb 9.863963627915137 15.762657308111557 10.369956202927996
Pb 14.6897232599586 17.280700580350008 18.61499266639556
Pb 7.757327635455667 11.610528164336367 12.528532709800878
Pb 10.53358734868893 11.309545080137308 18.042988581282195
Pb 14.417346997366591 14.339875541314118 19.70967157002925
Pb 17.416021960194886 15.656704361932501 18.742615865984906
Pb 9.845110727772617 14.220845468384338 13.188393590592655
