34
Energy = -112.09943373 eV
Pb 9.405407905770154 16.282059403060337 14.991994287457942
Pb 11.922943159909716 14.903137483171648 16.37579124629139
Pb 9.118612273008386 12.91447365115181 15.598585463462623
Pb 12.394385754353051 17.199855062940497 13.76135356370397
Pb 7.881154649061867 14.270575761326798 12.899919640305466
Pb 14.61472707456467 16.8871791142274 16.449121903674698
Pb 9.548665938731405 16.84129311239071 11.896717416428414
Pb 11.200607970472518 14.092337410576771 12.939405053635326
Pb 12.267167997563547 11.624416157180317 16.038644740299794
Pb 15.057840793347102 13.675833847456644 17.13772382211557
Pb 9.665675358301302 9.68485527523751 15.621020586700839
Pb 7.704313543367689 10.570753220080707 13.133878821732987
Pb 12.414429300141286 16.257895233317825 10.570597471102202
Pb 16.469008058865807 17.573149710342296 13.89826069035487
Pb 14.940805256489982 14.502130751470634 14.023976594429085
Pb 17.556928533625424 15.653995416756025 16.22703645253127
Pb 8.959069011197593 12.358226130944507 10.508238799668009
Pb 8.868991397915384 9.152400645218258 10.444251641948533
Pb 9.31584649764496 7.597941076243552 13.216541451650148
Pb 11.083891902405018 10.678051119880054 12.571203987552133
Pb 15.57175350058965 16.205969591599274 11.138756778484552
Pb 14.436621002820779 13.016813349016276 7.83741793873474
Pb 14.085670897929536 12.766360063439707 11.184271585433041
Pb 12.3990410811734 8.25572668152329 14.242449759547004
Pb 11.525101121480489 13.621523989079074 9.057453091704017
Pb 14.985801438509563 10.770682706626333 14.647073359596906
Pb 17.631676340158783 12.612211889863907 15.22576139494322
Pb 12.559261988083275 10.472485496203875 9.144358570498543
Pb 11.678063617232983 7.681223829862103 11.057344507328262
Pb 18.166955501256915 14.951353724081219 12.975087262478297
Pb 14.56770337422571 9.239174385868175 11.73728634497592
Pb 15.91028027380482 10.565670996306137 9.167194680043806
Pb 16.96352912611528 13.617375827707544 9.747458972270978
Pb 17.265395053295684 11.463305469425581 12.180625970360655
