34
Energy = -111.91504757 eV
Pb 13.62369469372209 14.029308008607275 17.699548641323215
Pb 15.504142182888861 15.72734425566302 11.287679202980897
Pb 13.690427902216864 17.741144525355722 12.9419331460428
Pb 12.386044658868846 12.463787901680135 14.695882933401581
Pb 11.63036972548185 12.792139606048892 0.13326638527301135
Pb 17.78645667430311 14.015346982292304 12.636340418414271
Pb 15.130202663426628 11.269349258352092 16.325452512939993
Pb 17.794081770461148 11.575831165480167 18.613043327711136
Pb 14.750671444821615 17.707547163494414 16.23777526085199
Pb 0.5022277036919603 13.382879681177126 17.77140579982489
Pb 17.803808921917152 19.4397253847828 16.649610012735348
Pb -0.05589999917891629 15.28634148312806 15.173752662870893
Pb 18.350719079200957 12.170261823329858 15.407319821173344
Pb 18.291619355043526 14.31700544226785 0.3944443451601155
Pb 18.442210972694994 2.4217356908092 18.72484300429808
Pb 0.6244201273687026 18.73147021721103 15.208205264153818
Pb 17.144540928455083 14.54674634151617 17.192136238051752
Pb 14.979366653884853 12.386449770462702 12.497161080611889
Pb 18.214797774090357 19.276505410585955 0.24055023264428188
Pb 15.129807972408878 14.86073533658388 14.538888155976485
Pb 15.500584811014717 0.996998307578413 18.187548403736947
Pb 14.519563793886094 11.557891966744448 -0.23707949003817255
Pb 17.02839448445279 17.533631627090326 13.770113847128448
Pb 1.054518025038551 0.22331695551980976 18.254282216923837
Pb 16.938411103640682 2.9387690158275657 15.867425067606652
Pb 10.40827681867912 13.506230814749642 17.125775035523095
Pb 12.025437450982658 15.927088425155493 15.368551281481489
Pb 0.29735762712323305 2.2559032217837474 15.884094351116168
Pb 18.262537110531852 0.9374394768600225 13.498622320908991
Pb 16.309985251558842 16.923267911563748 19.108807384298125
Pb -0.11167368002817414 16.699273278086395 18.256513118847362
Pb 12.109601546481459 10.776374703918107 17.527783775925737
Pb 15.14515437905388 0.6212526984062372 14.478993196628767
Pb 12.546789299655975 14.721055174339622 12.352032044081868
