35
Energy = -115.41746528 eV
Pb 16.107981950389473 16.07209593576945 14.000507662545955
Pb 15.907468367157186 12.911930222898894 15.154421001146149
Pb 17.64415836104767 13.843259226808254 12.294202513811841
Pb 14.014791015608086 15.853044522463396 16.449672418489488
Pb 16.10939518883127 16.49221737822366 10.881254363796247
Pb 13.216629920389057 16.817637362910975 12.626954267908499
Pb 13.489109377244375 12.78468241165535 17.508844473325436
Pb 16.120545470482735 9.617340941318421 14.081240351875415
Pb 11.440427581301629 15.212368419253892 18.324176959810263
Pb 14.178752298930648 13.843429263110844 12.292512222417596
Pb 13.179622644389017 11.087520875611313 14.698253944153997
Pb 16.04379555454563 13.445832618133734 9.525539700766391
Pb 17.36449023136202 10.693098400179954 11.22165931063639
Pb 11.111031923079178 17.165884996439313 15.617839004906957
Pb 13.358854771232481 15.568462114445614 9.319976280782251
Pb 11.509924148963893 14.028179500524162 14.889479455788996
Pb 8.79843142666631 15.088016374720953 16.687264831784624
Pb 16.116297130743003 7.734375013347079 11.44538887405124
Pb 10.271285362169545 12.227563378711094 17.308584042845297
Pb 13.973397779559175 10.494802051513627 11.513255633839433
Pb 15.369982952145921 9.951438617156782 8.74733965458331
Pb 13.44150387384092 7.861088799544675 13.366695873307679
Pb 10.603985573743916 15.562810691746273 10.889240550933165
Pb 13.487202470253859 12.746711383703111 7.727727202434707
Pb 8.790456281424419 15.728937991165921 13.48273278264672
Pb 10.773075202479465 11.958340264458638 11.69016201812129
Pb 10.216804974722344 9.885511223141425 14.280350042958597
Pb 8.269879466568373 12.601657443797356 14.498232843875892
Pb 13.269484852790727 7.593726060838782 10.079856164504578
Pb 10.353828868437427 13.347915091631808 8.456945494192126
Pb 11.76776682895212 10.145223970934136 8.53773197112711
Pb 7.940133885900245 13.427702419618836 10.888594993420652
Pb 10.26740816365033 8.523715001747723 11.177205143960494
Pb 7.719267105153209 10.434212208263098 12.131689511329107
Pb 8.607321726777677 10.694175272061768 9.130792606695882
