30
Energy = -97.86185431 eV
Pb 15.48472594406517 13.345868194177534 9.167056162752063
Pb 17.991230866981635 11.378958736779083 9.838133490928099
Pb 13.518703375937116 18.92108321983702 11.878700372200887
Pb 18.248058211047564 14.613924818026073 10.054209203115652
Pb 13.495353956888119 15.589980300516977 11.46150957545728
Pb 10.810426899185329 17.50169028109843 11.010076525534387
Pb 14.95514496300707 10.682205604336279 11.031457058021836
Pb 19.589368895631143 12.804795525047545 12.285513015570327
Pb 10.42220373919051 14.462311190733486 11.951779894158737
Pb 13.431865034086744 19.655663127372254 15.008326755102697
Pb 12.582395048896327 12.368847353985055 12.93550994908461
Pb 16.235970354015546 13.447218836951368 12.289217156255845
Pb 17.61699306507043 10.270853567255257 12.916798716191392
Pb 15.21246955911542 16.91244166576329 14.151513836554505
Pb 12.04051380922272 16.71231907964274 14.459874869760748
Pb 10.623747984311034 19.520057407171674 13.485537503496493
Pb 14.781556352551986 10.97976110577043 14.614345771712882
Pb 11.571982188731065 10.545628237302745 15.71445621105738
Pb 8.975870839300708 16.599955866798954 13.712330115456183
Pb 13.83560559104659 17.641114997178594 17.413090160536623
Pb 13.891174314322406 14.085894852932205 15.679398795060985
Pb 17.270784066670448 9.89205432482383 16.1901615110127
Pb 16.47452707934897 15.635028980344668 17.038889821550118
Pb 10.565269600480168 13.730336249965223 15.316834803195546
Pb 17.713052569735908 13.0673950999924 15.121239324767448
Pb 14.128239933167858 9.587540989566751 17.44935553392768
Pb 15.89543632895081 12.373414197804701 17.91126686022216
Pb 12.435617396669514 12.3183369257092 18.261809825460833
Pb 11.308415526684232 15.639530097730091 17.733003819581597
Pb 14.101485258276952 14.92397791797587 19.126792114861058
