35
Energy = -115.13597624 eV
Pb 9.010060741486313 14.7817456615781 14.008550084205037
Pb 14.440022238414505 17.62808746720048 14.268569910996263
Pb 13.40944441462957 16.695987072704728 17.14143515701835
Pb 16.45104643670717 12.56301184165598 9.925223330320536
Pb 10.90329400309846 8.607225346147725 11.072402252423828
Pb 7.335378796586576 11.889943776640248 13.84712319161968
Pb 8.911547964649507 9.134449611158244 13.979083456895362
Pb 13.099336493184342 13.655187801595034 10.985839116042577
Pb 10.378897261304115 11.936222170418414 15.804970816332617
Pb 15.7827718168062 15.216393740757974 12.16349454779989
Pb 11.239079256938647 17.78562370102519 15.076307841578865
Pb 12.434753495842688 15.084709180588852 14.026073272677758
Pb 13.754030717355981 10.461517710418239 11.32073661205359
Pb 10.39356134798703 11.824915737702181 12.477473618553477
Pb 10.53775559831266 12.413887759359481 9.166764966275005
Pb 16.778676029460197 9.374421442086568 11.208413652791135
Pb 14.21147766876068 7.5893928520036145 10.103822335689959
Pb 10.03006386202793 15.732178102226287 11.082107704407598
Pb 12.99386784878043 10.062502324699697 16.852393779083947
Pb 15.210939340342025 9.073662769139812 14.343132590972022
Pb 12.092415664051112 8.497941814465413 14.09187902013582
Pb 7.865480119777471 10.190977511416307 11.135286574071827
Pb 15.704793829184545 14.720916940117057 15.593683093043039
Pb 14.95276464242888 15.63204440563992 8.97102780051816
Pb 13.418941305849833 13.402799575462732 17.560280416820145
Pb 15.611399858561184 9.76913040870803 8.241994862918057
Pb 13.485590865546923 12.039121139148786 14.313159991814024
Pb 12.334839811944615 9.631365861291808 8.3006049654799
Pb 10.539279098609336 15.168761055657747 16.907059360549205
Pb 16.663022496204192 12.088268823366441 13.369729138712191
Pb 13.972464793950046 12.582374396526234 7.745500352246768
Pb 11.84340867513401 15.278608920411699 8.394413560901041
Pb 7.729124023460598 13.376417084797565 11.022408319758414
Pb 15.914781304775367 11.317734161607115 16.536684292186855
Pb 12.98365296257562 17.089788967065108 11.095232312540695
