35
Energy = -111.56136387 eV
Pb 8.50179842499306 16.860763928002164 15.163364968303826
Pb 10.768074882024486 14.648372996244563 14.86483285566212
Pb 15.83142169685116 15.709335364941674 10.396977582979368
Pb 14.885920437674798 14.658675667082418 19.33126521665181
Pb 10.426693144982023 14.789489553393581 9.775408752764635
Pb 13.349562148385782 12.250733943334994 15.11759073717698
Pb 12.338380758398594 18.620039047434034 18.116439009355307
Pb 14.94071123167513 8.373242966485337 12.268208027942746
Pb 10.234196567383053 16.147310092662067 17.880368132878157
Pb 14.459904617846878 18.684548240015832 15.300248833428041
Pb 17.92131816217717 15.388955392223608 18.264436773700194
Pb 13.04416100003119 16.01912847499074 9.028206945450894
Pb 16.17902761500433 12.793596348492677 11.881464860486737
Pb 13.369770555254487 17.57703769549118 11.815825436579242
Pb 18.789761473657403 12.458993349906429 14.386109735069944
Pb 10.301073735022468 16.730568903286425 12.25200736919834
Pb 13.262008554827482 9.102170987489894 14.928782827494475
Pb 16.165984177429493 13.207406991243964 16.50651637041803
Pb 13.142928888254925 12.242777968236119 18.269110872764436
Pb 19.710008384642485 15.194415873085447 15.68783064440886
Pb 13.243242437650574 15.736271385073024 16.721056833370497
Pb 15.03107182924383 15.49966654057351 13.975735875064455
Pb 17.70841696556201 17.658616376829958 15.484125457765591
Pb 15.235194572531674 10.178705753156137 17.19764443621437
Pb 16.17411522464584 10.618741342776971 14.171264255037935
Pb 19.257799866873757 12.338587371970911 11.317696339494926
Pb 9.320216433283179 19.174244111861263 17.223369963424283
Pb 12.752612534450641 14.27453823222613 11.90062119220993
Pb 16.833143118444784 7.038936161494832 10.410172174446444
Pb 16.726568290030283 16.695551194809582 20.786873678881975
Pb 17.881945863178025 9.607755685178134 11.433017518984911
Pb 15.787639080166707 18.06001923002396 18.208338421333192
Pb 18.2556947755801 15.468135293056125 12.839276089086978
Pb 11.360632840766835 18.29027883176972 14.93215276526672
Pb 16.427710491080884 18.24851980471459 12.490807246904238
