30
Energy = -97.42667799 eV
Pb 15.211836113675636 10.82361053588053 8.113880755040999
Pb 14.591815484353866 14.057503920582702 7.78445949031881
Pb 9.325369937898564 15.631256179610261 9.934913985020787
Pb 12.225457858136526 11.987287957627714 8.239421838831408
Pb 17.420066450709164 13.095746896696172 8.897213681381764
Pb 17.015074911603822 10.202166383230498 10.774233488811594
Pb 11.669428963365043 17.7996724703615 10.621879568937853
Pb 10.357040272206724 12.533406013748579 11.184720724011763
Pb 15.177668130698061 13.16165572501661 11.169751816473294
Pb 12.337302404758807 14.778630104096544 10.031875863758273
Pb 14.967069192674192 8.49682325670822 12.818139162897861
Pb 18.293025911704476 12.89376899519023 12.013043398654002
Pb 9.034549856014001 17.760710392752934 12.373297930359708
Pb 13.343637738457854 10.59599604783743 10.94131318300713
Pb 16.20785297828153 14.112501829888746 14.138058250562153
Pb 8.967868203178606 14.75726364362731 13.243303395367093
Pb 11.62146282804334 16.88923547538261 14.266320803305575
Pb 14.045529101776872 16.20770759964215 12.376920907924305
Pb 7.588215848922581 14.08779320776115 15.969057840872214
Pb 11.935195789472015 9.662205302297316 14.049010507737401
Pb 8.795920761551034 17.004326923032362 15.68852731159959
Pb 16.676538548082885 10.926312004662586 14.065901318625915
Pb 12.229119616434758 13.71067786706158 13.465761973028812
Pb 11.349690567241435 7.726598825598897 16.72665101616549
Pb 13.048383887363183 6.618710614283861 14.496346352047375
Pb 10.751448287130703 14.383208179077773 16.483019773752844
Pb 9.561229240925979 11.85012751929336 14.783037665128552
Pb 13.95421524200794 12.311689281140586 15.691884993394885
Pb 11.674557313690565 10.710126921812586 17.251937177492742
Pb 14.427343921148916 9.027195287606755 16.210031186998936
