32
Energy = -105.56635062 eV
Pb 19.20791457702988 19.481947311594556 13.105632245288072
Pb 16.029788828041035 0.18173066465215432 12.328861415090143
Pb 14.715720419404274 18.19736743231192 18.923269486755956
Pb 13.802084740625812 15.062236203542167 14.313627214227617
Pb 18.151860612353612 19.37930107110309 9.972630436476686
Pb 15.267523017866635 15.375052110797192 0.9130551831127129
Pb 15.202164819463732 18.136386882153204 9.806789751111276
Pb 15.257898369325916 14.94491338485846 11.20718014436675
Pb 17.660517721845302 16.17512647574047 9.294808820829969
Pb 11.769742070073795 17.4376627336803 17.1143439762868
Pb 13.781389618406404 11.950810276373431 16.229146921289868
Pb 13.664486044734035 17.770963557752864 12.623761960029302
Pb 14.928856943182387 18.163959143658143 15.569363730324213
Pb 11.484392701240225 12.135180246957194 18.46139687056576
Pb 16.06648289527987 12.757563699550149 13.896027656667261
Pb 16.642098977113047 15.203510230318416 16.336058719803408
Pb -0.18248557433966617 15.571872461317186 17.287747921583378
Pb 0.15457385467599474 16.372192455946433 14.205572149933715
Pb 17.02025035937169 17.09099027317277 12.83237261934524
Pb 12.265255173944192 13.891001022814383 1.1059163224615969
Pb 17.79730513156249 13.79654065512944 19.376756717008735
Pb 19.103362704530937 13.258211973541664 14.986727046020913
Pb 18.131206457889675 18.316031977791717 16.123929899255483
Pb 12.114100495339091 17.14058344562733 0.4035526793143875
Pb 16.947581942429103 11.79090702053163 16.962825336546892
Pb 0.29002695579824356 17.13065206136688 11.007548936119955
Pb 13.608913610337227 14.943275994550564 18.037392510420663
Pb 17.67822960583965 17.024490883092568 19.23023602241411
Pb 18.656521476143137 14.287677093872993 11.907649439350028
Pb 10.181329569458759 15.085080071239478 18.900335843529426
Pb 14.75162388033279 12.202589217497506 -0.43714164434901015
Pb 11.070469827380546 14.321145572169394 15.927215652628375
