37
Energy = -121.42766493 eV
Pb 17.00722719063461 14.459553306070614 9.490083248036935
Pb 14.523493235710514 16.073621654808363 8.177933509581063
Pb 16.070101645083053 17.629653369553168 10.463037244329595
Pb 17.293335237758704 15.778557235975818 12.94063857761897
Pb 18.61580262669674 12.97041361044012 11.96736802369698
Pb 12.746902831806576 17.733465780904286 10.798262277390485
Pb 14.083734892321084 12.938909974594617 8.680651023272663
Pb 14.805918871692343 18.13838791145072 13.465419643235277
Pb 11.618144276691625 15.11395817682811 9.248573970294554
Pb 16.611004083853228 11.120526399496956 10.172685272285262
Pb 14.2336129389153 14.904211118869473 11.438468512204706
Pb 18.13787345637135 10.104017314036492 13.145776709826631
Pb 17.579215108420758 13.074121988670143 15.108088214573494
Pb 11.67744223482016 19.021452723301767 13.775501563138707
Pb 15.490715156387106 15.964434028781536 15.86970107810079
Pb 9.555000955243473 12.627530131798192 9.559266177907054
Pb 13.488355966868891 18.733271248162296 16.389509569859886
Pb 15.341121765599596 12.126510131441357 13.032026325026083
Pb 15.29509816768756 8.929415443087322 12.127130286020028
Pb 16.123582604000017 10.128705725598843 15.657605407805715
Pb 10.445889151797429 17.67160860642232 16.324483876324283
Pb 15.118921331120903 12.848336344840149 17.34655385290077
Pb 12.314213660512909 11.962916056732224 11.323386495093036
Pb 10.89826564677728 9.820262553999664 9.47849878128503
Pb 12.421958897079065 15.836159284697434 14.427255315483977
Pb 10.059747310873087 14.03897625324669 12.37395392243361
Pb 12.81888045612085 16.002571454687867 17.93115218453545
Pb 12.117749037911777 12.338915798400228 15.232168448038268
Pb 11.819411331438461 8.573792748794519 12.186920312503055
Pb 13.647003716185262 8.205945976350574 14.785710109011234
Pb 13.234931011228264 9.982921924942277 17.454307435588646
Pb 9.984051547594767 14.482681093455032 17.041690505083736
Pb 9.110325428160774 10.671057759529823 12.144614997157225
Pb 12.267510452229669 12.87474437905539 18.697567430719193
Pb 8.74491864463415 12.393697641484147 14.858968637308072
Pb 10.501082160371475 9.339245695910389 15.031212266968641
Pb 9.905545420228671 11.093537604410011 17.5619172461893
