39
Energy = -127.56033345 eV
Pb 15.668212362832067 15.431904680571993 8.953383902566491
Pb 16.84925964971205 15.680660254832844 19.018499052464737
Pb 15.465473293252671 18.07268506687687 10.877852176391851
Pb 14.093882910033793 11.810496637740723 12.381949914473717
Pb 12.758362773058872 20.685167573272814 14.897216966538242
Pb 13.098320467635832 15.698054590305158 10.891104294794381
Pb 18.261554647365717 18.444413863440293 12.574015687852667
Pb 18.417081119640052 15.989998456222061 10.515077460180926
Pb 16.168906867527802 7.7035639112485335 15.562625387850531
Pb 13.766223503185147 16.304634424531205 19.25069093915465
Pb 10.186214760684383 19.196093981092748 13.967417696345533
Pb 14.819795636889573 18.83856370293714 16.80587073959909
Pb 14.97574789484783 9.89120055444374 17.673574164827198
Pb 13.998716205217605 13.0787343871191 18.829731579856375
Pb 16.836175525983116 12.927911982719811 10.665802285780554
Pb 11.476792328119929 14.59671119916566 17.08424356206811
Pb 17.942103577698674 10.275041398639665 16.062230941890544
Pb 18.1111954375511 12.567612332937813 13.571043613091447
Pb 15.615266397634521 13.910992872985641 21.155972481266268
Pb 13.14418548124898 17.66027037719218 13.813580659543113
Pb 12.187106719096086 11.44649357005192 16.4085079308071
Pb 15.64347694085798 19.921179378744732 13.67930206916773
Pb 9.524237557966561 13.636744323943379 14.12749996270107
Pb 19.586980370896725 15.697857738917762 13.619050324464377
Pb 18.136809757210482 14.387244005261271 16.362267215326874
Pb 10.991341182684684 13.125269432488876 11.047549141682158
Pb 11.63251657115032 18.207502227102594 16.906597958353906
Pb 13.75058428824992 12.906068088755042 9.32980720205539
Pb 10.178397480540285 16.346531505406112 12.19789036008128
Pb 17.173027264992953 12.208845120962778 18.797493310201506
Pb 15.394585833279391 12.330287068569914 15.525276661413855
Pb 17.688048822861422 17.56445810556362 15.653350527909355
Pb 13.601657135219293 9.070129425835205 14.398566632599435
Pb 14.828205314590257 15.662250888460267 16.235007864514568
Pb 16.204628018391695 15.396693263785773 13.00515673204026
Pb 9.31247862752757 16.4839545610158 15.414880201322415
Pb 16.552862958391454 9.653076762230432 13.055945043374805
Pb 12.68794545309447 14.147441371984 14.047753675807817
Pb 11.06231266278316 10.833934712548759 13.426887479544618
