36
Energy = -118.29902287 eV
Pb 8.781966550021446 14.663152382906352 11.671271224886116
Pb 15.130300616610977 9.910526796634532 11.442147808449482
Pb 16.19457826899054 14.099239948541118 14.611772634227533
Pb 10.967516977705737 14.82249134281025 14.127556712474874
Pb 13.644901436960795 18.140082812204952 16.668016234945682
Pb 13.238828018805073 12.274156780553673 12.711146429901687
Pb 17.688578041601964 11.875525090201403 17.26203457579758
Pb 13.462156263561813 14.896659004840423 16.46745805153873
Pb 19.405680888173958 12.715944838166035 14.281147292534438
Pb 11.213162331164378 10.71063412787496 15.176737505042649
Pb 15.461313641194504 19.36171238067235 14.417301563629252
Pb 18.494703029291426 18.437987030032996 14.124990621075954
Pb 15.094456687467737 13.055704925605307 18.879896175462186
Pb 12.292153012711466 8.994423811645806 12.721928729384247
Pb 16.530680827630633 17.98648118522083 11.684578004389564
Pb 9.970126904003596 11.419968401624878 12.112489281711309
Pb 15.248622948969219 15.03926042106881 11.540612981934727
Pb 12.167699769707864 10.451366846819768 9.92705339991823
Pb 8.989731961119233 15.793333616776449 16.80716496835326
Pb 11.530642018073461 13.578955327404515 10.158643618700438
Pb 13.564257605007134 16.844141091615587 13.535862424790821
Pb 17.726622760806123 14.908831099981473 18.616076806677956
Pb 8.109413963604293 13.421635677413544 14.68607306307994
Pb 14.615289480141453 12.529273459281747 9.475361210398669
Pb 14.223433555509828 11.732567337275862 16.072588791730542
Pb 20.411286158811432 13.552862098409392 17.24947394933372
Pb 18.982493209451754 15.804244979686121 15.691657957703784
Pb 10.737621307115953 13.167283496364634 17.032765545090108
Pb 16.73584213683772 10.73354502331596 14.364380601613792
Pb 10.568522508373842 18.08856723098606 15.262749032846097
Pb 10.562061510673676 17.48683994669567 12.118230281098162
Pb 14.861649079875463 16.30578621414769 18.97920448701443
Pb 7.935356971089024 16.71604607853877 13.93562129021213
Pb 17.206645037160097 12.491229034767482 11.710380730128831
Pb 17.01170701276879 18.081931052215122 17.128359445744646
Pb 18.614435890323392 15.51727872754849 12.445624073462445
