39
Energy = -129.05797606 eV
Pb 11.098417758035023 15.758088907337578 12.07002826585253
Pb 13.247072125078525 16.643395261292934 14.520949561978668
Pb 12.685939105353654 16.264689552104954 8.699047182957344
Pb 10.165229906537913 17.34130966567311 15.260119129926633
Pb 16.99157747055068 17.244614626001145 11.99579627017237
Pb 14.9625643820096 14.897503396504723 10.694616788832956
Pb 10.597297884798653 13.70397298527927 9.435586682192588
Pb 8.479872063764633 15.358766831725307 17.16935513865658
Pb 15.0818614693305 15.611989816707148 16.889792478414442
Pb 10.96207609270324 13.971501717742244 15.01847486216176
Pb 13.417824083106241 12.753383521477181 8.079588039004511
Pb 15.452914963212706 13.51699654888885 14.024206428402879
Pb 13.753033498199883 13.481445054403151 19.190354570631833
Pb 18.31817303208519 13.985125373071822 11.725271015649003
Pb 11.779687339992478 15.84343157958272 17.75250656069576
Pb 18.729701545982014 12.411957749121871 14.473893930813324
Pb 17.894726288383094 15.498246194337963 14.750795034375868
Pb 8.058990143282566 15.216078680441838 13.989615411327245
Pb 16.944968163648056 13.043701065624424 17.1350412811306
Pb 15.302300704743189 10.512815815321716 18.57862349982283
Pb 13.641849586180518 17.832292981011108 11.463136059424684
Pb 18.03730083149064 15.895000574647888 9.178539742115342
Pb 16.2588598013429 10.336595110119251 15.329837803510776
Pb 13.4101356460864 12.184099928277027 16.299728369534172
Pb 10.135839382572486 12.939758457108358 18.520058262652046
Pb 16.887059335186223 10.877821415723528 11.972443502727506
Pb 12.678560482930383 12.676517881292094 11.968350902255171
Pb 12.209650275519035 10.486067771625835 19.07114462658904
Pb 15.678084597824226 17.992856107267293 9.077047980211661
Pb 9.223436911845724 12.741432978322297 12.288996350829782
Pb 8.113194111726829 12.397087856738413 15.66057965725941
Pb 16.79250062473743 12.57766180207872 9.029118616964457
Pb 13.38233525775628 8.945080815874586 16.284216269365423
Pb 10.838951565477002 10.246487042671184 13.349853991009125
Pb 11.454910308929131 10.60534338169177 9.79014577929378
Pb 13.900152603047157 9.677286621585182 12.827721643795256
Pb 15.484437103796859 15.227649365835703 7.315555064451882
Pb 10.28550761026837 10.1355656616353 16.571857952021677
Pb 14.659944101423049 10.183113593462162 9.722201723720888
