33
Energy = -108.85822579 eV
Pb 17.09016176145245 14.068384358922593 17.175548079586903
Pb 17.20245223402309 15.174063477843664 14.10383856648587
Pb 14.552112841607805 15.834288231582297 15.833270849946807
Pb 14.901184371115788 17.405662680159136 12.963721168746629
Pb 18.160049020669458 11.865704920417897 14.900764619958892
Pb 16.94463387030455 10.987421358129511 17.826586707625456
Pb 15.603393025580026 15.538213407448533 10.190234380896403
Pb 14.061643286109481 12.929601178350163 18.28451716121003
Pb 17.24551920391621 13.018119090067724 11.776121941485327
Pb 14.191753364183356 14.157181832853556 12.678451626155672
Pb 11.831681824839682 16.533562844137197 14.08586520866909
Pb 14.91371166209011 12.172038886693551 15.242370786653218
Pb 11.325207143103057 14.33460073816564 16.67918321020773
Pb 16.352327897595345 9.064888913743616 15.306748557085855
Pb 12.583121186855147 16.68475931081384 10.774835134067724
Pb 14.085392878079082 9.629702407358183 17.566042569273435
Pb 9.407062523705152 15.829898336433105 12.051873156744117
Pb 15.50324615326798 10.26385289772904 12.299447408822024
Pb 11.365938859396783 12.970233241391357 13.78513400169816
Pb 10.050763966821457 16.00625851405053 8.746941481459482
Pb 14.828848750537354 12.219110452004282 9.695653506197827
Pb 12.923182409483276 14.462853127035965 7.949572083146812
Pb 11.39864300778497 11.089270093388519 16.60276246500497
Pb 11.16611730300065 13.313867198056228 10.45462392745268
Pb 12.455140065525443 9.986246852935555 11.126365591859074
Pb 13.060096827234796 9.231694600172302 14.348265055659956
Pb 8.699648955923513 12.417363278896469 15.73331194898294
Pb 8.185341478596438 12.831670890211468 12.679029937602676
Pb 7.776951158564326 13.808279846061396 9.653999192533881
Pb 9.879659753890255 10.126364036952733 13.445060653451057
Pb 12.197951241389221 11.184726642952423 8.053240037680974
Pb 9.752002178232646 13.041775252537498 7.318882256812234
Pb 9.224042568681709 10.863466402950024 9.754233699156707
