30
Energy = -97.23959847 eV
Pb 11.648613191692732 12.933455303727081 7.950710553321663
Pb 13.765520391065646 15.313100222062648 8.15262419917743
Pb 15.195622481365987 12.504390913991859 8.756856987025817
Pb 10.70794713701 15.804582241579448 9.211193762329474
Pb 11.285297583970406 10.357774852034728 10.012163344665982
Pb 9.525914999405384 12.951523402949142 10.625197252740282
Pb 16.18049981997346 15.331937050062836 10.453630787707528
Pb 12.916074446442233 13.290449626237061 10.996736259712893
Pb 13.179718441818565 16.660674982069672 11.1692517626151
Pb 9.437819330528828 10.053404153535315 12.874383418887964
Pb 15.76394190126958 18.231726316554045 12.129609551300208
Pb 14.437495395481243 10.103742519769012 10.6828894434883
Pb 12.792980964669116 18.947635063638007 13.315341641233513
Pb 16.277875928507843 12.432724633042355 12.099859284960715
Pb 10.455771718630668 15.759999927345849 12.508214452192004
Pb 12.617000742820919 10.467966662475462 13.243741996504456
Pb 14.994224939797268 9.73417643384175 15.2963992649619
Pb 16.86521452225772 15.522278920951363 13.765616132635266
Pb 11.281388945032653 8.133998829301902 14.96873366260945
Pb 9.539751173291693 10.540756756059874 16.12789936036196
Pb 13.83894803750678 13.31177229478075 14.243777203662567
Pb 16.801223061900977 12.538342938392297 15.420184779451308
Pb 10.467262997231797 12.88144905695956 14.049298899433488
Pb 12.218264276582318 16.217209554691767 15.136540397982575
Pb 14.873402041931335 8.598399104969314 18.230270085620482
Pb 15.053186288080461 17.83804784257852 15.171788854947264
Pb 12.173053665351732 9.80773396654907 17.60451118925707
Pb 14.85850285500655 11.721864925962327 17.918808642751742
Pb 14.958472608378798 14.927930485355207 16.754444974017634
Pb 11.81965042188012 13.01159132741413 17.05996216332659
