39
Energy = -128.62963736 eV
Pb 10.797945396850583 17.0063125763683 17.159199836085158
Pb 9.397136063846737 14.164171141288675 18.057903516965716
Pb 10.704996233189124 18.384646077418456 14.222358924523625
Pb 8.32097970013357 15.81656980949384 15.318791845996497
Pb 14.189172927101117 18.496188933371535 14.076749265797284
Pb 13.017470101275507 14.854588579709013 17.82408531767239
Pb 7.245833782002362 12.779627419187525 16.05861161625089
Pb 12.588701473517398 18.040856747644696 11.146199093818867
Pb 10.568915461985297 13.178155677113999 14.989812624423685
Pb 15.630431057301987 15.807013875525142 16.004250724977833
Pb 10.044036313355209 15.845551563284214 12.256308021582683
Pb 9.548085275269647 10.905246679878374 17.30890858327467
Pb 12.547458778521637 15.798448931353601 14.636048335330083
Pb 7.788075829766653 13.530176485916128 12.978665893567705
Pb 15.84407157487937 18.673878806616067 11.196014984013416
Pb 17.495065127368328 16.876201220260786 13.517786769322935
Pb 16.94702372512338 12.922188445998163 17.0283192177294
Pb 14.088776102556189 12.753574495044601 15.415171038388232
Pb 12.614004992255554 11.679870710505805 18.17761402362966
Pb 15.277820776070024 10.144648901068608 16.967012518174897
Pb 13.272118037242793 12.759351449570385 12.273001144466432
Pb 8.97093396647595 10.499636008734258 13.96590681355593
Pb 10.28005570759076 12.347084512359535 11.249263630438932
Pb 12.003729009895219 9.70447106650392 15.486021202882716
Pb 14.700590989442844 15.67024784893375 12.122862341027629
Pb 19.724493213998088 13.352056168997771 15.436382107013658
Pb 14.795665755179964 9.545953795523499 13.727486161230646
Pb 14.626024080471813 16.85375941025994 8.792459163311916
Pb 17.403257810869913 15.837972014842542 10.170924805254753
Pb 18.284310101240113 10.404341825017129 15.24822991776797
Pb 11.9845566097728 15.07895887226672 9.736550868019924
Pb 17.046803338028074 13.020702642111823 13.458953675641544
Pb 11.8643365968246 9.72142653567822 12.203892528956873
Pb 19.72658042485069 14.691220291304747 12.457166765025187
Pb 14.996880501482023 10.587932703903778 10.563059188720034
Pb 14.971342071053408 13.619155623063506 9.298220072802945
Pb 20.228434965444688 11.553150329328478 12.78778718148109
Pb 17.680365631130393 9.760664573376355 12.07401474532588
Pb 18.192133376786504 12.493941285835302 10.315708920060613
