38
Energy = -125.6155051 eV
Pb 13.29327429725704 11.220117767806096 9.009047065881726
Pb 8.556384861258238 13.442394014080614 9.021869542400259
Pb 10.033665105695443 10.548320106379416 9.74596298090886
Pb 14.915143225599257 16.54013991666168 8.33047296452629
Pb 15.673324056714371 13.42881300375091 9.389236578932582
Pb 12.151949378945588 14.458170271625656 8.84296775033663
Pb 16.770037388198592 16.330046886782142 11.05572585856743
Pb 7.182415988870074 11.375556576254073 11.226705033733463
Pb 16.24116638293495 10.299951599039101 10.043201557313724
Pb 12.57876153269481 9.416092944274602 11.741564265879193
Pb 10.447557148610782 13.114926328400271 11.678371224048092
Pb 12.178539643397501 18.13994671728299 9.065873283818766
Pb 9.95699158518886 16.236662365916914 10.665517637229888
Pb 13.472228023476744 15.955359468687107 11.340313149807656
Pb 17.38161631548859 12.627775314085747 12.100308915402035
Pb 14.977942664329012 18.99801104631372 10.469115259784997
Pb 14.02719652707109 12.471769133237485 12.039525548432751
Pb 7.267255946466609 14.567726903218874 11.697807091497198
Pb 9.398727018347131 9.689833707493625 12.858436840066641
Pb 15.663015295632265 9.858487639490146 13.122868582498008
Pb 12.222575999246237 18.754192840567317 12.240577600639025
Pb 16.136943516640386 14.661146142937287 14.468852440076493
Pb 12.793330254054402 14.490253997465617 14.365089878178232
Pb 17.90226915475338 11.58851918523025 15.287149613933845
Pb 15.097875897118595 17.750992387980475 13.467026347293872
Pb 9.70632917526825 15.502775922037634 13.82407995250786
Pb 11.558869809460377 11.407638228590724 14.560651491470056
Pb 14.072378625696762 15.184348305400873 17.333075484228765
Pb 8.150926636209494 12.576318846034395 14.16468561023062
Pb 16.41526871087778 8.624853941234777 15.94460510385805
Pb 14.603865993444064 11.729459138744343 16.034373760919028
Pb 16.91917502682263 13.83396859086929 17.514533466570256
Pb 13.020920974008048 8.571056422458193 15.34182402117284
Pb 11.346385960870544 13.507342620358317 17.221856486319737
Pb 17.032923635122618 10.724037853461793 18.356898944605554
Pb 11.476303032785916 10.315507696263158 17.665635142710688
Pb 14.313528724177926 9.036304228417473 18.399426666442714
Pb 13.940802622269965 12.305289602994216 19.15436989152971
