32
Energy = -104.79650131 eV
Pb 20.24459393112348 15.221770260209025 2.3256446233036274
Pb 14.928305141104147 15.601097917540638 20.08479467113133
Pb 17.82965742271811 18.823532684655902 16.559750527595337
Pb 17.78906366385233 17.358415712060456 2.2714054207231484
Pb 18.04240918442352 14.21698331695451 13.580534426171226
Pb 18.56864000317751 16.04855871234909 19.674724721685184
Pb 16.57545128230815 12.880752755626798 19.15023263582426
Pb 19.760801595859 13.024907174315524 -0.10117698221421657
Pb 11.609608132457538 13.75585332795183 11.84237918469533
Pb 12.518375324672615 16.730561618745487 16.489290307927465
Pb 13.546419607085946 18.712127509666555 11.997490028702575
Pb 15.39860386604855 18.397669184947034 18.78777285301023
Pb 16.443232435136224 16.551237631945522 11.39657619121257
Pb 18.765339643485966 17.456839363071616 13.567895143607387
Pb 19.906310052291406 16.061953780813134 16.05530816447791
Pb 15.03958915716936 13.540176906636432 12.296378043033478
Pb 13.360627857027758 15.92859812146922 10.63637389626723
Pb 18.87862328181706 13.22251370228512 16.896723197772452
Pb 14.424408276860227 19.368542203311 15.985150419304231
Pb 0.5819503345362969 18.12139430543581 18.2652352922999
Pb 0.4157479333404109 0.30721360916096524 19.88877368856991
Pb 14.881943356483953 16.523971492507165 14.179371988906171
Pb 16.300625206181323 19.496346039973783 13.375298151530767
Pb 18.077740504656028 19.4439412305884 20.16126210365935
Pb 13.603615820270141 13.823522080114733 17.74112595804836
Pb 11.45695618210962 16.657441444195694 13.362576654490303
Pb 12.745572538881794 13.827781218531927 14.726600438345308
Pb 17.18170977959896 14.19568033922696 1.7345607341958127
Pb 0.5062150526069861 18.09006158618663 1.243657012009699
Pb 15.824124357725278 12.61665305689912 15.468895112634968
Pb 1.4816614327725675 15.450243387099935 19.890272415137847
Pb 16.46553079982736 15.578573313417177 16.97159174105509
