30
Energy = -97.55028453 eV
Pb 9.025588445543264 12.204461000870987 8.725219477700362
Pb 10.723771959783619 14.986097368459284 9.170827006651736
Pb 14.122081925123554 15.21069519600211 10.206537697039138
Pb 15.08220243963959 12.129204673732449 11.237888197446695
Pb 7.42871061777152 14.65828665278078 9.402996194626756
Pb 11.847703481864226 12.216696813663907 10.32544230133909
Pb 16.83034623884718 14.844235548887976 12.088259200317328
Pb 18.327565551900086 12.113398877085954 11.786022041573142
Pb 12.29641984278295 17.723871047818193 11.417831752812871
Pb 11.808202769964854 14.813388382737902 12.624087444036512
Pb 8.973434259996571 16.628650190729612 11.369644159909576
Pb 9.0657635453814 13.10087291633582 11.825219568192503
Pb 15.446685459738436 17.610891758968336 12.281174075594803
Pb 16.43480185836573 9.581080250557239 13.025304066001455
Pb 13.252969617082645 10.676746316421664 13.675194237730773
Pb 14.727765546950149 8.47924686930834 15.521214994246595
Pb 17.96377896784525 8.434200070578338 15.692860827113117
Pb 10.171031933304649 18.159963093942547 13.882912802559298
Pb 13.33776403358623 17.947576170215807 14.77389564103629
Pb 8.779608960350117 15.167166412577098 14.367019846111267
Pb 16.084130883065097 16.106858375288805 15.05447135374292
Pb 18.331663393300307 11.542558176230427 14.815938917696538
Pb 11.379313298422643 13.38641267475241 15.391697763346674
Pb 15.347290603455885 12.938694967298941 14.494667730360897
Pb 13.701615899812012 11.345352612997496 16.93119889578774
Pb 16.127895734312087 9.649975386865995 18.176799641466918
Pb 10.853133368628304 16.44376655740991 16.498234678718063
Pb 13.681886430893979 15.134292617393584 16.873366318907394
Pb 16.597831616098965 12.82301308050662 17.440321578892775
Pb 19.041183880140476 10.734488503531972 17.715894152992206
