36
Energy = -117.69698962 eV
Pb 15.390190543274931 16.732243575822558 11.23043044760367
Pb 10.045889055760385 11.07423474508999 11.28759155862102
Pb 11.367141682432777 12.71198745768746 16.765603122411843
Pb 16.132239124584224 18.744307851518226 13.821815500281161
Pb 14.147777494595333 11.204423669321764 15.864920012086971
Pb 12.565878664775411 16.048104410143207 12.726289623090679
Pb 14.926044728396395 17.316815557159806 16.540471983773923
Pb 12.772386727072542 12.747732827080341 12.621996350604888
Pb 11.295495446042011 10.355158548022336 14.24888997182289
Pb 17.004299995598522 17.05344934320598 18.98961116993312
Pb 18.05349930906864 14.488039135642587 10.394777400249394
Pb 9.600235273011783 13.154632090641224 13.714434348835956
Pb 18.365075308331477 11.949064293802111 15.102242528509624
Pb 14.736325622084987 15.369909268907612 20.832766616808687
Pb 13.478558653439848 20.034503653162524 15.280703608198367
Pb 10.715017369642329 15.711156027596278 15.679064412429724
Pb 10.392894086471204 14.253801419290323 10.77890020293042
Pb 12.412352544590153 12.185310380857976 9.37589049633825
Pb 10.952216421871551 18.524044523273883 14.039603317342708
Pb 18.350503722946016 16.914572225257196 15.526568213366678
Pb 16.309876450048193 14.110733125291004 13.222960199068979
Pb 12.968028012520465 9.70046526749585 11.385215121200462
Pb 18.84623182571784 9.3842734493989 13.566369768021254
Pb 17.30975118439646 13.934664758880727 19.824498672564218
Pb 19.61947364888889 14.333814113907675 13.365231164235254
Pb 14.365038434496219 12.959212516648474 18.61125593628967
Pb 15.855161276788992 10.501315338565904 13.205460198768355
Pb 15.527377464958569 12.206473049584227 10.512007179909327
Pb 13.846739180258002 14.508696779521692 15.55612700008589
Pb 11.54650373700642 18.4243505579389 17.330984204298314
Pb 18.62364234840249 11.620764716343887 11.560686482309427
Pb 12.157622034042324 15.394087743179181 18.746502139368516
Pb 13.96382720291149 18.095073085281875 19.521015949567275
Pb 18.446690995437223 17.08876074175172 12.288421927928093
Pb 13.374950288130174 19.24362276923527 12.131541763370809
Pb 16.968746233051203 14.353883074537032 16.782833498820178
