34
Energy = -112.62813104 eV
Pb 10.206375794425078 14.797778273892964 9.428895176234645
Pb 9.754486278275204 17.572461378097895 11.280207240271407
Pb 12.455127855809296 17.157779046257705 9.59162797938999
Pb 8.429294399840463 14.848707381537958 12.24902110661524
Pb 13.822633880419556 14.205706891620943 8.732134203083358
Pb 9.836877641324348 11.987223582517737 11.36827687426242
Pb 12.725607867097818 18.124326498131428 12.707642030998668
Pb 16.880341382207924 13.847056076611208 10.245580018812495
Pb 11.844907184652522 14.935361680730352 12.212050741788389
Pb 10.164413970821395 16.739415171007813 14.409907817995046
Pb 10.693175530908247 8.003310250563073 11.452677775829159
Pb 15.538383352635753 11.407830943833103 8.67463437697371
Pb 12.263286699716472 11.310713573276246 9.236080633601935
Pb 8.730279569697004 9.622344697228588 13.441774227070171
Pb 15.267095552864493 16.46206822882404 11.205216839036412
Pb 14.166170260360495 12.468265910792212 11.698258581610729
Pb 10.089615095911498 12.89590583153967 14.50170578847224
Pb 10.513624209668446 7.170217658130518 14.628291630587482
Pb 14.32444146290183 9.17758088872955 10.657155349058153
Pb 15.849116619462439 17.836443697392745 14.211763754644286
Pb 11.984355364775476 10.182261747347686 13.409319758694682
Pb 13.40449214008087 7.078321122819329 13.06685606662917
Pb 14.441845038378363 14.8460720965486 14.60806427224897
Pb 13.976295324262333 17.295788860323395 16.75495857820915
Pb 17.482804396876436 14.988888703665008 13.500350413796253
Pb 17.043707348897243 10.840227265096484 11.489867443214305
Pb 11.802121435226205 14.841584406001566 16.58749446357458
Pb 10.38502062698499 9.913579323227395 16.34182495650664
Pb 13.181403264386427 8.356876755654463 16.044260023599467
Pb 15.30275088755969 10.051781704216362 14.062976657122249
Pb 17.037080700331913 16.058263009034256 16.60976458912881
Pb 16.714411259010543 12.87528010077401 15.948391751415333
Pb 14.752406479248931 14.339207180316492 18.05348896546709
Pb 13.335052803393607 11.924921958417874 15.970427870499268
