30
Energy = -98.52565805 eV
Pb 15.554276399826557 17.37467924113509 10.412457968594055
Pb 12.999443092889074 16.156867685462675 8.833455003994167
Pb 15.292882212814998 14.108465891726203 10.099242168692768
Pb 9.834673753790485 12.170349051037782 11.118922411365608
Pb 12.608105189027864 17.482842110668063 11.719414425624697
Pb 14.713394663205618 10.825257237644701 10.28881267461203
Pb 10.628480645869185 10.673923194263994 13.92280388637417
Pb 12.312252063914 12.971164940550823 9.177813694076146
Pb 16.943879743742237 12.095770087048926 12.27401137130563
Pb 15.306970506903918 18.31459303344741 13.682486595411076
Pb 16.013312859933222 9.06857876848875 13.74168958621834
Pb 12.991032336354676 9.303729856069284 12.387064306629783
Pb 10.236172298207556 15.293090861994033 10.655168415008209
Pb 16.822906789888457 15.411668571309496 12.622913536897169
Pb 12.878929835332219 12.6439364884152 12.37851406476817
Pb 16.38183434513878 15.522417838026607 15.742725805026105
Pb 12.058865376659874 19.026484012990675 14.504912232531842
Pb 13.572661661711656 15.409239486279281 14.059155968500226
Pb 9.746446693142463 13.927874395200893 13.856265908675327
Pb 14.924874194792753 12.029953858057155 15.146055074095631
Pb 16.302085155111314 9.224164383523613 16.997863495493597
Pb 13.221288174000836 9.169808806284822 15.71299354257036
Pb 13.996758526282182 17.683044476675217 16.641290308493208
Pb 18.134010340295895 11.143987987915567 15.117101450502423
Pb 9.74944304271554 17.141129662199052 13.333462995035662
Pb 11.112327280810721 16.111502673358522 16.101652955454636
Pb 13.999136546424598 11.03832294471574 18.297681317241608
Pb 16.825040548212844 12.412958267311254 17.770426126354085
Pb 13.844081488065116 14.371469505604773 17.29952829972873
Pb 11.452199377452262 12.350489825111435 16.56187955324165
