31
Energy = -102.3252569 eV
Pb 9.259154175368876 14.699227042192675 8.272812630678107
Pb 8.590783647470445 13.056759452965903 10.999794434578144
Pb 10.79181394632563 11.927212856050419 8.88003304961845
Pb 8.752423816997878 16.347158978598397 11.19549221083894
Pb 12.705665056125993 14.651872501429876 7.920504544316735
Pb 10.809987480720192 17.367681163117084 8.826394187571115
Pb 11.362451944390571 11.508579122636448 12.158650264782295
Pb 9.828754284842553 14.018405638629464 13.870830183013283
Pb 11.630401291883707 14.77490249470851 10.984294001996538
Pb 10.159998302486143 10.881140719143273 15.600889742878392
Pb 14.181565133153418 9.093211057200232 11.757021161889584
Pb 11.212117961970739 8.440222844956894 13.327118650545598
Pb 13.931566983499762 11.872297506186813 9.710051189237907
Pb 11.657060831640651 18.150109497323875 11.864935878095457
Pb 13.934378098762352 17.488851875657236 9.50579098491942
Pb 13.963402451331131 7.14715943874208 14.434798833739416
Pb 11.689919503813055 8.01283344473174 16.526159542720777
Pb 13.97800441127103 13.506018542192907 13.164525820721389
Pb 12.179127313654563 10.724723841532382 18.147014264139806
Pb 12.062055372909365 13.602484502233976 16.547418290978445
Pb 15.58616912562804 14.686489847036254 10.137428390794618
Pb 12.171613766236748 16.227559857386638 14.522628467472854
Pb 13.418161994295899 10.571046095067354 14.898488694902984
Pb 14.708116726791989 16.835486031202286 12.577545850972001
Pb 16.45844639705222 11.71460332172665 11.818464042500306
Pb 16.456012496147547 9.155788591345656 14.092892072924101
Pb 14.880456908414422 8.934997816264131 17.217312765483932
Pb 14.855114274737153 12.470343223788571 17.686176440251085
Pb 17.193729939423417 14.773230806472391 13.064362994847716
Pb 15.09788869955638 15.342931752194872 15.67851010902317
Pb 16.75264317317562 12.335619625972939 15.042729413876312
