32
Energy = -103.19000968 eV
Pb 21.067399557803668 15.830585050796142 14.985856771473212
Pb 20.341643839917804 18.20917547871389 13.301664062065747
Pb 18.782382498667463 13.679361679603481 15.51094983615054
Pb 17.427176433141657 17.897776618479764 12.44126246950142
Pb 16.52996678019572 11.286623289083137 16.525920070843572
Pb 18.074430980578548 17.019599106748675 15.56565260110957
Pb 19.033962879332083 15.138703454745412 12.59182552129719
Pb 14.286436012891778 9.17740830790784 17.331240455672617
Pb 15.292871735897847 15.876259171879028 10.423346296329207
Pb 16.271695134042254 14.389982756270781 17.39774539789154
Pb 16.73937121060817 12.199513255862371 13.31866435727081
Pb 14.333624637678486 10.296111685890708 14.406096529955834
Pb 14.034808323795811 16.75948477383069 16.21919078035527
Pb 15.641330835889287 15.193859557750654 13.859163414312055
Pb 16.017766209988093 17.19965178743546 18.722340347614036
Pb 13.514487096240709 12.26330724891955 17.805742196058116
Pb 15.727526937822908 18.981948478467395 10.036911268382282
Pb 13.64526562188322 15.267625668808662 19.12231655983291
Pb 13.810735635047068 13.153865370461878 11.452747276797687
Pb 12.52200687190969 13.337091339161622 14.792064451716634
Pb 12.768476518181494 18.001133762734295 9.982957085950723
Pb 11.872096455783105 10.530531161604552 12.418787298221769
Pb 12.205340753365055 15.924711819631137 12.526858856590803
Pb 11.363701227511873 9.904712363319785 16.14331823883479
Pb 14.304246976809885 18.29259609123569 12.979197991493612
Pb 10.163034589592467 12.724479240170048 17.17812790693678
Pb 11.209017755376074 15.803970482693371 17.153799206071533
Pb 12.172520216110222 14.919193426125366 9.373684750475967
Pb 10.348771120767827 13.306468232169752 11.632912955372309
Pb 9.683411945893818 8.75450813744401 13.742994360416821
Pb 9.070245084291775 11.695425126935133 14.388645560551632
Pb 9.529479423384895 14.769567375520829 14.45324642485424
