36
Energy = -118.71530402 eV
Pb 11.801752555129214 13.288863085053242 18.26329670013448
Pb 9.838281385136046 15.606363686019813 16.81334247536098
Pb 15.312478087935814 13.620025062532862 13.393354694832912
Pb 8.275849511275181 11.92972533537115 12.924703512317475
Pb 12.440299289785017 18.174631658511434 12.768426659526632
Pb 14.507972402724889 12.061858383632739 10.558980128293083
Pb 14.173003647157794 14.83863616778891 16.256733779287963
Pb 12.137618720551426 12.8776119157127 8.355289184815687
Pb 10.057413889000042 16.31191090534566 11.46157746324294
Pb 15.465475556420913 10.480122449731905 14.48271096238143
Pb 17.364934217975133 15.751948519154466 14.94193294441833
Pb 17.12088962967142 14.333019437682308 10.569444508228951
Pb 17.004925289920376 12.979158070308246 16.640927650749315
Pb 8.285807405078915 15.02899441119869 13.855001598721012
Pb 17.55910022370583 11.444438714790317 11.883370020705659
Pb 11.59045278243197 15.25454106160637 14.09378295835344
Pb 17.34082085316935 11.60355905090331 8.591682110717903
Pb 15.52877198669223 16.749208027976604 12.47761827351992
Pb 10.148780578061352 9.725607364213683 14.170709715844895
Pb 9.5009614517152 18.00713569259441 14.102231250380765
Pb 12.509130846875392 12.048546955171549 14.818619918504986
Pb 15.201596684844532 13.981628001700916 7.890051925121186
Pb 9.198454986420877 12.382343487014946 16.05368733555203
Pb 13.071161819496302 15.037982776691628 10.980541155914604
Pb 12.205626746882313 9.835040823767915 9.543198346534169
Pb 13.005310011320644 9.428455977305479 12.729963811125392
Pb 15.06521980243271 13.60788838503934 19.29812543119304
Pb 14.466149480174128 10.776222968790433 7.354048183129007
Pb 15.65040653427849 9.166541850010693 9.992787807084149
Pb 14.265109979904077 11.024341152568613 17.46529372472745
Pb 16.84998360475588 16.01349475774349 18.143981337986038
Pb 13.719959913053382 16.592997600634835 18.86727623011649
Pb 11.244033681774487 9.997017993127866 17.077491746724746
Pb 11.960082029028433 17.96153111027446 16.165316781963263
Pb 11.258817493950907 12.268217636256022 11.725068474308525
Pb 15.2199141603089 17.941935126349502 16.086518417024983
