38
Energy = -125.24134521 eV
Pb 11.340298741712607 9.164499304583794 10.293491487270584
Pb 13.986178759066506 8.911792574962496 8.408837643344217
Pb 14.484329057849086 8.444540584469435 11.548457591945793
Pb 11.829363127231586 8.422582624133423 14.046601722179679
Pb 11.664673826304801 11.107596722815407 7.611240048115614
Pb 16.750676622836476 10.344443920969502 9.814919968403023
Pb 13.683458142244943 8.796508265855575 16.62812064982002
Pb 10.245497464012148 12.266648579463096 10.22076682705748
Pb 13.556186139605968 11.568721224711691 10.72362198815456
Pb 14.82441972554501 11.872961780640733 7.4338476544795995
Pb 13.849348813925817 10.940308106366151 14.182552352308164
Pb 10.930441444367661 10.17869059315354 16.767430132533015
Pb 10.475624052147325 11.307841914117605 13.550823565373936
Pb 12.071258569194965 13.538964386549202 15.519574504243904
Pb 11.928161152654466 14.295189780258257 12.228173655487106
Pb 9.35832188071779 15.443452217177184 14.012880347018724
Pb 11.489336683308434 12.845299305086735 18.687621997409096
Pb 16.856198854356123 9.932172841000513 13.107869008918222
Pb 9.098548149707803 12.642501966434965 16.443369318809143
Pb 18.371273966958523 12.617527353475092 11.942070742146258
Pb 12.560145067597041 14.09857118930236 8.761763115781076
Pb 16.027062206703864 13.801604451701692 9.646674931270557
Pb 14.37619867454853 11.902795430710665 17.261158996224527
Pb 17.60966608249005 12.179197513964072 15.171525660443367
Pb 15.392372051180823 13.972717485959938 13.217608063405159
Pb 10.051569013292859 15.811256472869593 17.322826288028356
Pb 11.245408597319045 17.757367513850493 12.447568159908242
Pb 13.084657349802617 16.555962682242388 14.812218541616305
Pb 17.62420033040344 15.89801825754425 11.342606045263452
Pb 14.224403355540026 16.501520934910772 11.21394818117526
Pb 13.248757964963115 15.710808951214979 18.095168859339655
Pb 9.725384220252499 18.46119495609861 15.222230765204676
Pb 18.631657527853143 15.14574978719465 14.276235125819426
Pb 16.121439434001864 14.981569772053517 16.330830247193216
Pb 16.16757595954881 17.329392256239338 13.879067497501445
Pb 11.769556557454235 18.690949782476363 17.686341269622105
Pb 12.625836970643519 19.787868364350615 14.724998654639018
Pb 14.849390241206535 18.409797293066514 16.822856638776123
