38
Energy = -124.18605978 eV
Pb 19.064255050598554 18.256807838749737 12.462357752277848
Pb 17.430189487499042 15.875815520531848 11.206564343963594
Pb 18.966564830376242 15.529440570669347 14.26880505434762
Pb 17.007940609583162 12.681754754412141 12.28419292849149
Pb 15.833173414878079 13.771229452299968 8.848870795049809
Pb 17.898104109553632 18.484417404313948 15.32577905484729
Pb 15.90884718631032 18.786806530102243 12.686085082147859
Pb 17.690254009328598 12.722173849282392 15.522301944756588
Pb 14.13078875630261 11.53657371922489 7.346173967862228
Pb 15.257956219822534 10.64473129863181 10.182119206897458
Pb 14.415133594154177 16.591773089248406 10.225797487852196
Pb 15.568946791949005 15.49661636605621 13.924524486703469
Pb 16.91678821933994 15.750169013338212 16.954846941437303
Pb 16.116118571355855 9.55783063121324 13.396957798858512
Pb 16.425948742595928 10.0095091693751 16.70501671406858
Pb 11.95346922802978 11.102629152470456 9.670633241845163
Pb 12.63704851640932 14.214446566183092 8.340146515147037
Pb 14.750763834075112 18.032815905035125 15.901296989679365
Pb 12.73757544553107 17.834713707354794 13.103401245019036
Pb 14.525932194999095 12.137057692670137 14.76155018518788
Pb 11.270696394440254 16.5976597198545 10.566719975000579
Pb 13.696327710676353 13.512289123651435 11.447469729209201
Pb 13.786912017170147 8.86105857034801 15.564049388387154
Pb 13.315438446535559 15.249304261240214 17.45800444548527
Pb 12.995411276478931 9.1809935104791 12.250649697765263
Pb 12.069099280043512 14.586085403206466 14.296899774386151
Pb 15.399459150352406 12.747585420640268 17.95325969335859
Pb 10.395095351320238 13.610997178507985 11.255701390264406
Pb 12.088597096404799 12.618262540093836 18.76535601709877
Pb 11.374708548499912 17.545938516973663 16.06749866831973
Pb 10.00300195189021 10.690192875702467 12.586739961992352
Pb 11.43335177698342 11.398195642510133 15.691205561926358
Pb 9.650085257396167 16.504015901669597 13.485869256048272
Pb 10.105853032975174 14.704451827076497 17.18816558039041
Pb 8.826519940966621 13.225661148436648 14.51229709606559
Pb 10.904050536697829 8.203281073135717 14.553565631460984
Pb 9.074026212351578 11.747099542595342 17.898622952811078
Pb 8.40462058121392 10.028668887805045 15.369556818679099
