31
Energy = -99.76376904 eV
Pb 12.196551778993902 12.68532530212737 14.574186659112577
Pb 15.056431995558855 17.606275185426334 18.7616074911106
Pb 12.794701795242252 10.454132700900805 10.84208801447962
Pb 11.238667311793899 16.514420387252976 13.883867075665053
Pb 17.492316821668577 15.530588056623008 14.046928553370293
Pb 14.818333125979292 11.39902353827195 16.250428198369548
Pb 12.211145550118344 12.951049704265035 17.825633373064587
Pb 15.89734765861487 17.852510383899496 12.304650163070264
Pb 14.236280614982489 15.497595563649748 13.805631788160245
Pb 11.818526446304318 9.745575670799974 16.852505045685625
Pb 17.498298222459212 12.912295076541913 10.972839503605785
Pb 15.522413776005127 14.672193012358276 16.834996340662208
Pb 12.680083476414302 16.286175407012024 16.84882269872052
Pb 17.155368469866957 14.18250026055101 7.912775087538783
Pb 14.939080068196953 12.188866974554532 8.924902618800365
Pb 17.02015907606134 15.410489321663043 19.536631260998035
Pb 13.568629327446462 9.548293194832151 13.807226430504429
Pb 18.10146360936679 16.0007714364584 10.553631238939335
Pb 11.99492185604337 13.603701306209636 11.05122794036512
Pb 18.252937387800575 18.621758617843103 14.441605531430131
Pb 15.146096338865238 15.236767945065445 10.008214092577354
Pb 9.379141792985875 11.57434182398822 16.328225163516716
Pb 9.21175492181461 13.345498813909387 13.351632588225296
Pb 15.266868579240132 18.38190245436412 15.615001633798972
Pb 9.716543735100238 11.542518032575305 10.76992568788321
Pb 9.855616639284113 14.718225223861271 16.275714749668985
Pb 14.758724513057361 12.552185256999877 12.465164979663177
Pb 10.314597862689496 9.995085895650993 13.563402784626174
Pb 17.916049842511033 17.06408107954077 17.070205574600056
Pb 14.448747231151163 8.33904026906747 16.61562255861649
Pb 12.563325164091307 16.65793709344341 10.975830162877312
