34
Energy = -110.78435506 eV
Pb 14.730991592128113 13.909333347806353 10.715806479542305
Pb 12.569104290888182 15.668066298561383 8.94235255099281
Pb 17.20308906232343 11.934356151257083 11.486671065173178
Pb 12.330038579507955 11.807657443191745 13.091816295920523
Pb 16.542189369862133 12.267887442896523 8.24154009628149
Pb 9.559793067024348 16.867492993189714 13.71604770325198
Pb 15.420734631258657 17.19140629750301 10.657938361533885
Pb 17.692274739599817 16.926372756616086 15.734326250898382
Pb 16.39496407668966 14.290379224791742 17.04482333113729
Pb 8.575667495898786 16.0331836246893 16.656497185836127
Pb 11.734484583615151 16.548243996427583 15.81017485410779
Pb 18.015697413920016 15.06529939390265 10.378009591722508
Pb 11.844680793965715 10.919443082683634 18.857245492562882
Pb 18.054746830920248 17.382320674835224 12.61899590328039
Pb 12.597271908480188 13.857892188524197 19.88605876036588
Pb 15.233964615669123 10.186779566697533 13.324558145574356
Pb 12.896021927268885 13.316957460050826 16.542134280107685
Pb 13.778573697136933 9.842509229077212 16.40686122437871
Pb 14.023191932040577 10.697123125631377 9.961049048877458
Pb 16.688834402914136 11.288302258701082 16.00219573294722
Pb 15.110867707148826 16.610830143460273 13.992723641227952
Pb 10.750023290258055 16.325322253962018 18.94391469574559
Pb 15.024537855787655 13.352492629775776 14.047609302652067
Pb 11.45171909388594 12.836062858573742 10.120134833903393
Pb 10.62787299385026 10.86217092739051 15.847334543152497
Pb 9.643337331948036 13.250270353118774 18.07179968215532
Pb 9.81702883215655 13.769875013267917 14.59258147109283
Pb 15.042904561042176 11.698398611903308 18.803801572889398
Pb 13.928150917060124 16.274323026391514 18.02084125846207
Pb 18.06287656732737 14.357141608992329 13.68957876932096
Pb 12.241915208395321 15.302666754323749 12.551175836108584
Pb 13.335028354066367 13.045256885131133 7.398280786317822
Pb 14.442940573300069 10.282344025703358 6.913822860883835
Pb 15.702496363512427 15.413643024165061 7.869305268576134
