37
Energy = -121.54851192 eV
Pb 9.632539397424248 16.31755345489078 17.58738409148382
Pb 8.428802978470637 13.647995228994901 16.166869879225548
Pb 9.66445686518442 16.21179529086969 14.277514498779551
Pb 12.051876247802154 17.993273087967687 16.169743217158985
Pb 11.763169236497271 18.416670128725578 12.882391871463915
Pb 10.402693527199782 13.3711887421496 18.71321603678009
Pb 9.828643012315174 12.992883251913968 13.41103662328267
Pb 12.676565088974543 16.18362964953628 19.0407067847086
Pb 14.787314889875804 18.73207969227747 14.647756293364806
Pb 10.963717963290753 15.755597349530031 11.09530881370747
Pb 11.931526912100539 14.317875394071569 15.950787818996378
Pb 14.24973572539961 20.16416957190209 11.89872448111173
Pb 10.72788219319416 11.30804674995784 16.265482005646103
Pb 13.917710307136497 17.511029407478667 10.328767728800011
Pb 12.083949987251055 12.558134482001762 11.141085058509548
Pb 15.471893249779033 17.761390187833022 17.734894457389217
Pb 13.758557925703613 15.06908912789915 12.811382318821925
Pb 13.62701361825162 13.026043188543303 19.334063900741732
Pb 15.204201534637614 14.676751623991775 16.80857457205373
Pb 16.808687008611088 18.12945628395936 12.106937658550015
Pb 13.596305928355727 14.582605667104117 9.275767574975427
Pb 13.127871793148806 11.44878803498537 13.976875560272926
Pb 15.010135306620716 11.372031734695762 16.583846337424454
Pb 16.565203794153067 15.26109598736493 10.477975170747369
Pb 17.62230591813936 17.084596137908473 15.126683422243914
Pb 16.85502034280365 12.657799439318378 19.20407384171753
Pb 16.804138219291 14.081356835305796 13.882392972195865
Pb 15.756444470323974 15.502891385216703 20.092174029998574
Pb 15.31381134155377 12.378131151547763 11.275370854871987
Pb 18.203205655208762 15.403084570886271 17.942279263506734
Pb 18.426397968718717 11.80413374518897 16.580840089132124
Pb 16.947035667529867 10.7969088257987 13.785921694828957
Pb 19.333613752761163 15.65014815732579 12.377446006283737
Pb 18.898015466499608 12.489093417296608 11.753888763002712
Pb 20.088579142321684 14.07659409137569 15.087199987015389
Pb 20.349475044825887 10.829539387814318 14.219132309692503
Pb 21.817598687530115 13.132645705258149 12.68160018039929
