31
Energy = -100.12877755 eV
Pb 20.282579691838187 16.79924093865468 13.569474203500544
Pb 10.969518192780535 14.980121152225431 12.272245012296315
Pb 14.685355201231761 14.101937810167275 12.323083022542843
Pb 16.374823460983663 15.717961263456184 17.174814385039884
Pb 16.24864388936136 16.15222985096964 10.451186124857665
Pb 12.609259299310546 11.106642903097208 16.67716562539075
Pb 14.280134519726486 17.370809068022048 12.97810538045029
Pb 13.55415582757405 14.709049142477223 15.568031834950126
Pb 14.852875461648512 12.937087942698637 18.436469447676615
Pb 21.28058841193746 18.189437293990384 16.375339083993175
Pb 12.330639716298524 11.94092804087091 13.5145092656253
Pb 17.416314037145106 18.18182410898053 12.518977832345788
Pb 18.098955137627957 18.206567751901943 15.693648755892198
Pb 22.542166453678835 15.416282189693597 15.414628170528186
Pb 15.320615379688258 11.760055710561149 14.827155446217352
Pb 11.488960140079552 18.081359306225004 11.599309784565952
Pb 13.551116372245492 15.763825660528891 19.577358932934796
Pb 19.9319383441708 15.25438583540712 17.132319359476647
Pb 17.34766170012 15.211729610886572 13.972979007500687
Pb 15.504802703223316 10.040793331261028 17.493458282299354
Pb 11.544823771524376 13.315946929945813 18.65067350749025
Pb 15.841802873021765 17.875302031229705 19.479612023289885
Pb 11.358917955747057 17.271238459614167 14.73848907781225
Pb 12.469416817674391 12.91568003272803 10.405310843447527
Pb 10.939251217784022 16.329791919612653 17.763431765602196
Pb 10.412744817645883 13.981684663079408 15.507743260791734
Pb -4.57376876574617 13.624982656884644 14.346936548048214
Pb 13.07034522068054 15.988115416623652 9.889663715996537
Pb 18.903340992278004 17.693590862857818 18.75059521825588
Pb 17.73610135319368 12.5952390973676 16.609526647824833
Pb 13.768457101876855 17.909223778983417 16.959013070901715
