44
Energy = -145.30071827 eV
Pb 16.533801866652453 15.890416408103661 18.425289994732942
Pb 13.34221796600531 11.255917277590568 18.77052639400965
Pb 16.502108770202298 12.7362480784058 18.87973736369018
Pb 16.054090811990466 9.659417291272277 18.2996372066769
Pb 18.27977890944854 14.352983073527662 16.31926606274136
Pb 13.65067341650403 14.523950118928493 18.654195192006405
Pb 18.5094074790335 11.047593095106087 16.342867790281325
Pb 14.45528307783264 18.42649843906533 17.08455829146112
Pb 16.734944213979848 18.669436293105093 14.607704905755993
Pb 10.82994899585274 13.29091065114453 18.079687524711723
Pb 13.713980992559131 9.147393613035332 15.947461223744297
Pb 19.06986253220117 12.590805966164837 13.368884234019893
Pb 15.138946931808288 15.640124926548479 15.517328443489845
Pb 16.87310039300449 8.256083361828692 15.604907303556791
Pb 11.586467268722043 16.600085346702013 16.297772896795816
Pb 15.92176554678734 11.337621357981584 14.271374953377583
Pb 13.117472472657175 12.916429545773903 15.7638334938167
Pb 17.900315908126803 15.816755542581708 13.47697452415954
Pb 11.721254916831551 19.990905700340676 16.07979379324982
Pb 14.545569739035072 21.102704776765798 15.139469713953508
Pb 18.656580992903194 9.434169075104094 13.2717151635721
Pb 10.78069578327348 10.379714817947944 16.389935426400104
Pb 15.386687138848526 8.495309707645465 12.690508492135708
Pb 15.583875765882317 20.529827271170237 12.169320053877122
Pb 14.823128388969769 14.30914264538641 12.482761985718124
Pb 11.236390471753246 15.543844205208337 13.155396082167561
Pb 13.444325202550184 18.086993463697528 13.578649559337366
Pb 16.977697399446555 10.780621336951276 10.949081742558223
Pb 11.978314797368968 8.564564890865425 12.924261339406494
Pb 17.641877406822065 14.12459523051587 10.823036631980454
Pb 9.16933953162501 10.326660586487886 13.471230563743612
Pb 16.000854198184786 17.387265596527683 11.155057610070566
Pb 12.22745251300161 11.77918293137557 12.773909633698361
Pb 12.022846650342656 20.87916086958545 12.766735743958812
Pb 9.775649723822392 13.18658120048635 15.029743170510349
Pb 9.836312494748524 18.399737567496686 14.121297718857127
Pb 13.464722659714543 19.367868259972177 10.100544533009556
Pb 13.11623576855395 16.037393934530876 10.376683482910583
Pb 13.56041648355343 9.80328722314044 10.191057892194195
Pb 15.032339285114595 12.917042907702232 9.41675842345588
Pb 10.686631641030038 18.144635388096955 11.067431172305247
Pb 10.30129046444508 9.959991098867869 10.477314951419038
Pb 9.436353188629933 13.049869769138855 11.629544502010122
Pb 11.849539471264 12.632305284166971 9.56308330800854
