48
Energy = -158.70117901 eV
Pb 13.982235936081892 9.012991779701432 13.88586001759942
Pb 15.97852625953856 10.759953657714066 11.67334244961517
Pb 18.554712203211455 12.764281189305061 10.802722681111685
Pb 12.613900231818779 11.034666720976377 11.439631884351545
Pb 12.851822475291687 13.069653379217247 7.899714144349925
Pb 15.695898616830368 13.058071197282654 9.317127083168279
Pb 10.789351254895102 9.47070145284553 13.673020504551033
Pb 10.13068580024626 12.64274542333043 9.597860915812989
Pb 17.19894067843182 15.717037384289846 10.292944606946877
Pb 18.430271404140807 11.749935891290285 13.858431350130404
Pb 12.309089992329012 9.118004542282035 16.60411404353323
Pb 15.310825871989005 10.860384056265698 16.48498650759022
Pb 14.18000856394959 16.062081718372244 8.575982326393909
Pb 12.85802285928869 12.06822747274008 14.613610807389119
Pb 10.916432357556832 15.606982441435402 8.135873372347202
Pb 15.869312380877469 13.843075568276166 12.702987123399542
Pb 12.493011226023203 14.449922004990388 11.061540313383105
Pb 13.647037810940008 10.779960671759506 19.49775299651544
Pb 18.885439408757904 11.33930104386592 17.194261349488134
Pb 20.647613143913084 13.555174698415328 15.610960303147527
Pb 9.844011892742818 11.372415925453915 16.19682617982079
Pb 18.957814262369954 15.06529007645005 13.210943534774476
Pb 10.022841869807612 12.88904638967809 13.015757057263327
Pb 10.560028885282014 10.073309327896064 19.01184836573871
Pb 19.28204277219537 14.250480741128888 18.54419729594414
Pb 16.596246231202333 12.235368403915034 19.533190122123667
Pb 17.176554836975075 13.951050930101909 16.037248758981125
Pb 13.311012216704881 15.566836972423374 14.298435585743272
Pb 11.269945954265243 13.161956133506571 19.482736365042015
Pb 15.104303615731366 17.45379535716361 12.148128867001578
Pb 9.198881881984253 15.483936584965479 10.79440003897079
Pb 11.86899962012896 17.61303753013452 10.501312114857756
Pb 14.074135822999343 13.679727654828728 17.628555921821796
Pb 11.035595038570063 14.439960498323316 16.397468204694896
Pb 10.233760095894004 16.337426395312974 13.665341807693082
Pb 19.397000422752495 16.486557268162787 16.267482192113192
Pb 14.050733063829153 13.591379390776579 21.21111822111498
Pb 15.865896518365785 17.01528247306464 15.719104845653485
Pb 16.1306825692954 15.467301515594857 19.39759152950401
Pb 12.509188077330856 18.807949728253572 13.580828089265598
Pb 12.783809271654732 16.068869927474935 19.565068109491975
Pb 17.69970306519314 18.76366219984452 13.597234481156445
Pb 12.602174477157147 17.72513134108036 16.729902470571933
Pb 15.22056568798098 20.75195054294224 12.581330016576027
Pb 15.157251059288516 18.540896152576515 18.488068804715446
Pb 17.83465896450299 19.57614701812356 16.890469774598145
Pb 14.742750804592387 20.41367179912156 15.791577095425291
Pb 17.437576645106347 21.739134557607926 14.606661883027876
