47
Energy = -155.3302204 eV
Pb 12.645791813117905 15.14283013038197 8.023585847800636
Pb 16.463938786347835 15.02746098148631 8.585557004608319
Pb 14.845689683972063 12.311129311784548 7.777610307307558
Pb 16.610816869412304 17.904119498975138 12.824907331574627
Pb 11.50785652486334 12.097209940001129 8.61040443929718
Pb 9.420215448470476 14.635138686273098 8.416020608273573
Pb 17.44779647525629 12.045822035019846 9.757905948441568
Pb 10.804997653104301 17.169963144738286 10.072269745676351
Pb 14.369779271158093 16.544628945339827 10.533580834034831
Pb 13.378605589075415 18.575362736854753 12.729759589351179
Pb 17.33434204981545 14.9645065173765 11.75564046335402
Pb 11.476975096524287 14.193273149328327 11.117776135352221
Pb 14.553522881460081 13.183060046445094 10.93663057125226
Pb 16.36614167439832 17.689322202285396 15.954790676733818
Pb 12.90629015194551 10.03322830855023 11.382205462710749
Pb 19.24668264086147 16.225770389237887 14.654194842798116
Pb 15.37030398813395 9.474104889415923 9.31838379513506
Pb 8.89348350270776 12.254687031020124 10.584900617996363
Pb 10.844258734728975 16.45997432085022 13.5282962173259
Pb 8.319578623879806 15.343471344061935 11.40969616558009
Pb 14.340967118583338 15.585475251421704 13.824629743045799
Pb 16.385581157859175 11.113601473168082 12.952255698832326
Pb 19.618479140451644 13.11155294813688 13.306973912676634
Pb 17.989315944577815 9.028928616644617 11.096658530500143
Pb 12.461192990043141 7.0944087372655735 12.70312340419058
Pb 20.293554313109794 13.526173605320857 16.428403284299048
Pb 12.99749478718768 17.833856865842893 16.038508129284196
Pb 18.244617761826245 15.775316050319221 17.80629929852215
Pb 17.034339769741038 13.924364639548271 15.237777128089439
Pb 9.834213785382314 17.864544341802674 16.46870526660727
Pb 10.924080291803525 9.690405498646209 13.855354651130764
Pb 7.880692406279284 15.573868168731277 15.103553402801458
Pb 9.65538659463911 13.028704088181517 13.786172922717284
Pb 15.38932571736566 7.826640458527404 12.287277499888612
Pb 12.924936813797636 12.34555429833229 13.95281863242468
Pb 14.653208108598928 15.252899579925563 17.263289537677135
Pb 13.929724730061032 9.170151577729307 14.841381061564498
Pb 18.458913758485693 10.987714304813322 15.553351242606535
Pb 11.077036412690628 14.57960689391172 16.42393431750412
Pb 17.70964198575653 12.657890645761283 18.21505867094384
Pb 8.319323899645585 15.723232561049599 18.352086074726934
Pb 14.688868334802663 11.919736160220413 16.656238290441543
Pb 11.58483101665228 16.310695489369834 19.09327643541602
Pb 8.159937416552287 12.750713346722964 16.78619317742499
Pb 11.232487515006994 11.288516439260922 17.10355859200425
Pb 13.020157711426867 13.185707405662143 19.211029288250838
Pb 9.903928598731786 13.26878481075962 19.546076752752466
