41
Energy = -134.6927012 eV
Pb 10.6046483052099 17.767097943266553 12.132580289910399
Pb 12.546095056697558 15.755557885046851 10.331765615859132
Pb 13.49370439488802 19.515231957925383 12.12996597918544
Pb 9.454848744759145 16.517569209125632 14.799335537399225
Pb 11.62712379684515 19.22391226821696 14.904991897201306
Pb 15.600324791491786 14.152239957737144 9.324865901707671
Pb 10.814012021108768 14.387488806327838 12.68286820599083
Pb 15.38686434841174 17.21590502763635 10.719024311546578
Pb 16.762399870339095 19.575184714713846 12.405736846979952
Pb 13.318055189078567 12.59190718124154 11.203967544606638
Pb 14.818675835592126 19.709265613427476 15.080946175173118
Pb 13.281606602415197 18.28740033149871 17.741094599556614
Pb 10.158558847231781 17.456928474404712 18.067848571030233
Pb 13.395416607986494 16.431854469530705 13.61323607975612
Pb 7.823857785031769 15.41197177821174 17.195310432179173
Pb 15.741284411365749 10.849009920711557 9.716655527489454
Pb 16.919072681595654 12.96161003135994 12.324538852956904
Pb 9.702135985108466 13.26480518557146 15.583939780680437
Pb 18.461612840440782 15.465091675484308 10.551158900878425
Pb 16.720826649670876 16.279243647171697 13.52884873221155
Pb 18.39902186558003 12.498266980549085 9.087923957885128
Pb 12.387494170938739 15.062197488011844 16.69918168832933
Pb 12.332429823438527 11.563490505679873 14.149255367546138
Pb 9.949079753475036 14.036668288068968 19.020149357156637
Pb 17.828956621861366 18.731535713676106 15.287520439052454
Pb 20.516906688912858 12.780421159346796 11.416640761253719
Pb 19.775677639542128 15.078638137372362 13.574147874030237
Pb 15.866985223405845 16.643658806754654 16.76233935134238
Pb 14.948300728884549 13.285133998807149 15.478184095479685
Pb 14.917887793934899 9.961645766750518 12.693052389869388
Pb 12.464709497821778 15.96899445930462 19.918662738083455
Pb 11.799261829778889 11.462983030143631 17.58816441881865
Pb 18.418752622953534 10.163022839732621 11.594361373316621
Pb 19.579447635622 11.883335411783865 14.35525114025186
Pb 18.065785532275154 14.280412209462305 16.22449704863882
Pb 14.960537970130497 14.046775371380416 18.74438540508164
Pb 14.379162488700041 9.884009256234483 16.09460899512969
Pb 12.45680364791814 12.751442188580551 20.548479856640334
Pb 17.343133810786288 9.499196110959417 14.795961139396187
Pb 17.08942848690335 11.47391693114097 17.36008327976821
Pb 14.537421876368631 10.773289742149062 19.216780015130198
