49
Energy = -162.05631124 eV
Pb 17.281272889878036 13.009542600943732 9.356267376263913
Pb 16.80302087183214 16.016445535088714 8.582921369398882
Pb 17.555344214517465 18.445164720524456 10.483658862557888
Pb 18.49469959809061 9.729018091778553 14.989470129776091
Pb 18.130620707687854 15.407031516189843 11.668714318861165
Pb 16.473331059108954 10.23158670638684 10.926524501186627
Pb 14.432352705395328 11.441402244945223 8.85314291146275
Pb 17.50436883073495 20.055844285932928 13.451626431804694
Pb 13.89023138712433 14.65605355455834 8.352652025410329
Pb 14.22699338939779 17.805404288445402 9.541363977760229
Pb 15.109348503189437 20.46491404722763 11.338167101226542
Pb 19.05515034905614 12.464176085707027 16.524803451140404
Pb 17.6743580227494 12.16398684306098 13.127958057366154
Pb 18.14388474881834 17.608358422782263 15.50196427219528
Pb 14.918661228566249 14.274986112761848 11.315428430750542
Pb 15.5152697646451 17.44110274970509 12.874047922530373
Pb 17.95197374701974 9.671515358059986 18.113355071177182
Pb 15.42686615462445 9.28453235247094 13.871753316063918
Pb 18.25446323038154 12.466387065115343 19.6515981115906
Pb 13.23626899697484 9.65264847689844 11.456146310445988
Pb 17.04595309772105 18.349676887134326 18.58492212744915
Pb 16.39448008261911 14.743451124046361 14.588752421647872
Pb 16.866789653630295 20.733724059177874 16.51131560392047
Pb 11.865418104859907 12.618369609052484 10.461974216092282
Pb 14.828080690185798 17.484003453861742 16.158296009662184
Pb 15.919973015460474 11.718737342732913 16.24501168092494
Pb 11.50524444575753 16.056975932990973 10.605699345471896
Pb 13.150472406116698 12.328572203697682 13.726803821018601
Pb 14.750041567438348 8.793025339042822 17.174710034342233
Pb 12.27013409063769 9.353415770562178 14.976166759598495
Pb 17.24699508911995 15.100517790254989 17.741336942391786
Pb 10.36048646691252 10.60547074874577 12.550443259927228
Pb 12.314844074953022 18.866692638353285 12.160421773182243
Pb 15.238848150479216 10.699752778012483 19.73960685254631
Pb 12.39093659948999 15.809576017264314 14.118037886111395
Pb 14.184216490063593 20.67618742886509 14.62727850587624
Pb 14.075668424212036 20.02717577877218 17.902202538765604
Pb 9.817876331831371 13.887975191973204 12.650673811960909
Pb 15.541274162442502 14.000873921891088 20.45403698153963
Pb 13.878892326691359 14.100786747513716 17.440619482224218
Pb 12.036508417758851 10.472030757795025 18.06003461261642
Pb 10.031004990790047 11.763713066724767 15.541820341260124
Pb 9.583358742729716 17.24541672074468 13.049732531366024
Pb 14.293530823265757 16.89279640568485 19.420107010915828
Pb 12.727436623849886 12.69152455723366 20.330736403871338
Pb 11.42149760361146 18.828152317595816 15.304837446901017
Pb 9.415083590705484 15.136206471523478 15.56793554746301
Pb 11.6298311530589 16.640876372474555 17.589639647095638
Pb 10.613370175260151 13.560949299140681 18.212010246333826
