45
Energy = -149.36308907 eV
Pb 17.274686350943288 18.138540739090278 10.471839662358773
Pb 19.047565621736705 15.513038296188 11.186785312474727
Pb 18.282171238440686 12.283625314655419 10.000690447466392
Pb 16.744032191912407 15.356918748639778 8.798289089260713
Pb 15.079991147142454 12.428846437422186 8.901030763718248
Pb 17.782141964805962 17.30296331138786 13.606791450408242
Pb 19.729927242407488 12.802104231404467 12.954893933788416
Pb 14.953124779415873 18.674926843833394 12.653765723638791
Pb 14.227441850166757 17.38652357065358 9.696152201087521
Pb 11.376246962061057 15.443580330460927 9.528271550436772
Pb 10.888109720023335 12.350567218125088 8.748399094256502
Pb 15.765742808121306 15.370575614816747 11.872353460646337
Pb 16.441909522984204 11.995516942787644 12.855878985828449
Pb 19.080088687538314 9.757639344002799 12.019125152640067
Pb 16.221395598354174 9.630126384590227 10.448208064879811
Pb 12.997067389822993 12.991374936203231 11.281039994372184
Pb 14.940912088574963 16.183012042185528 15.140141264588133
Pb 12.317428796412477 18.050235499420882 15.323442955782681
Pb 9.246565403238815 16.926228446040078 11.45547315614407
Pb 17.206276676108615 13.867552217375131 15.62193230072507
Pb 8.438997401439325 13.750327717014777 10.475303334282655
Pb 18.687338359947645 10.689342014514521 15.08526044787438
Pb 12.51727969919083 16.239881334134758 12.528368432554347
Pb 10.445601625467717 10.944765607912984 11.691332451388055
Pb 16.873563253789428 16.246346361090115 18.056710005158976
Pb 10.206642827401284 14.0145903448744 13.285866918890969
Pb 16.40826665951039 8.844598695092174 13.697528745707256
Pb 12.984024323356566 10.0458570048777 9.566739777852069
Pb 9.146744513362956 16.915449118551518 14.747445518232182
Pb 15.616570815894082 11.068830746025261 16.42529143500987
Pb 6.935365742767874 15.209990850928016 12.985383404882121
Pb 13.770048491508721 17.296200197356107 18.356994433797624
Pb 16.995753201883314 13.06604634987729 18.950368573313746
Pb 13.419006756200837 9.81340034468246 12.762342334674532
Pb 13.083800819019839 12.462253439192255 14.736205357752832
Pb 7.600270207054429 12.055444118352305 13.248923460922407
Pb 14.265281279453795 14.079929302497519 17.580589433602306
Pb 10.00475465002143 11.168106987377612 15.413109874584766
Pb 11.446622013782672 15.134430080562577 16.395205894789818
Pb 12.577442315013068 10.463477826292266 17.31736837937052
Pb 15.250608397245806 15.164155152083435 20.67353499917679
Pb 8.112935672384518 13.987791079579132 15.890420858042923
Pb 13.742512088937346 12.214028748831684 20.052688881752267
Pb 12.014145118698943 15.069150224904082 19.943696361947687
Pb 10.493119610496029 12.733318789069806 18.346958620336505
