43
Energy = -142.05074473 eV
Pb 17.15000451106711 18.171860280549552 15.728217535195641
Pb 15.699706303070354 16.835145604806076 18.280068454304484
Pb 17.630981308850185 14.870392862656905 16.456234175880695
Pb 18.590913126714806 16.2542310221268 13.275050659750871
Pb 18.41747321777919 12.718676240147964 14.063319047140213
Pb 17.00717608238373 11.521416073115107 17.199957718535792
Pb 13.932681309463357 18.914051704577957 16.535458879008388
Pb 16.018370649079145 18.27863522244093 12.465539407889985
Pb 14.606553190510228 13.615278290174386 18.037596232588257
Pb 18.809787023601526 13.936540096624194 10.898035072213503
Pb 17.745034503056026 16.819504506026863 10.043598806675798
Pb 14.58425193893201 16.226648173515134 14.982323196497317
Pb 12.545502738447237 16.314250891919556 17.821678786883563
Pb 15.770792389764495 14.875038099519456 12.118922303505608
Pb 16.470790375393438 9.849070783669031 14.497484216305354
Pb 15.252767664265678 13.009969806017697 14.852137670964893
Pb 14.451539914126878 9.408032851985235 17.26394954324071
Pb 16.991495548322177 11.350734016719416 11.393750520268714
Pb 11.183933306715605 17.140467608810027 14.927193299265149
Pb 12.64018722889789 18.269595421914033 12.148874813547176
Pb 14.56001739074638 16.938165729649402 9.6182114454362
Pb 16.042652681480828 14.010092362780323 9.083039415667326
Pb 11.972296444789729 14.932648147409669 12.22876896703116
Pb 11.981890661875786 11.391940879251056 17.769169165977047
Pb 13.804084832602218 12.161718349265145 11.225249528536773
Pb 12.106723778241667 13.830725565546556 15.479786145258554
Pb 14.519151933927652 8.975487501927327 11.732398095490527
Pb 13.912346130767927 7.532221394738607 14.691526511771356
Pb 11.312985239643808 16.699652133871762 9.547007338252255
Pb 9.416773013173485 17.251309585838612 12.088789956715056
Pb 12.903890077694967 10.646700952689484 14.369290083209481
Pb 11.130814839980685 8.611277553815913 16.179797496662285
Pb 11.840077525398973 13.338024775057713 9.039118417519852
Pb 8.97012842277395 14.45594790004978 13.736493168651196
Pb 11.332630544630105 7.954927950189473 12.623347076703814
Pb 10.511517519178057 11.598089699192439 12.149086393041843
Pb 9.552362075763691 11.62795065360712 15.737432202285381
Pb 11.953328019389563 9.712586949444583 9.64344220636784
Pb 8.948774728184844 14.393989312384166 10.452109729588226
Pb 8.499563696295061 9.198458287989935 13.840303180548954
Pb 9.136782561077768 11.424103911885652 8.927221106640424
Pb 7.35751227221395 11.565459269579383 11.78863015376347
Pb 8.8485829954377 8.836035616593065 10.67719801247241
