40
Energy = -131.48224453 eV
Pb 17.35741210685216 15.004525303492523 13.1802029693491
Pb 17.19801593610386 10.240151962199166 11.758694614915544
Pb 16.808890028842 13.197037813609251 10.472571637055166
Pb 17.643308595984625 16.600094519501866 16.01617380439298
Pb 15.742696304939047 8.951741841020203 9.10261139919901
Pb 17.467142345889776 13.276302059700813 16.056068325586267
Pb 16.556492881707765 9.446559146919025 14.857249275870014
Pb 14.172616220220348 14.792356555060469 11.693418774031853
Pb 14.349461504144847 13.461525139036544 8.463479419627534
Pb 15.410869475462968 12.289265605003509 13.620517953121213
Pb 15.22462668952239 17.649162680014722 13.700025220481708
Pb 14.97040697115844 7.876858540390056 12.324374711508261
Pb 15.982284587250783 15.063394893800345 18.384904982850752
Pb 14.640720682208372 11.258362767819213 16.86334643864063
Pb 14.516317197979143 14.948688809462123 15.574885174474113
Pb 13.914680265997154 10.93360300713637 10.917558794884819
Pb 15.103251291226124 18.032263242302168 17.127165066026155
Pb 13.197332408443012 10.282756826670807 7.779598199162641
Pb 14.520318443260164 16.630844998891295 9.20221668049534
Pb 12.946227521619887 7.542594391739589 9.802894787156426
Pb 13.47666279021724 8.539731880709272 15.387635854181374
Pb 10.743914597791195 12.432620640139119 8.004979327832093
Pb 10.464031469901315 9.532920523295422 9.762856878522692
Pb 11.587291913436951 8.27330011200811 12.723726490968449
Pb 11.643684546875493 15.436302453793836 8.916145174882908
Pb 12.254498324977524 11.510330257155443 14.272592979771307
Pb 11.119591976229326 12.933397803821581 11.245428776548003
Pb 11.4852021257614 14.979692389048623 13.868850519876338
Pb 12.314272192144859 17.615318493555346 11.808804938502048
Pb 12.34563041639652 18.084406339780692 15.483804213425739
Pb 12.756043272962327 16.213452359745354 18.36092016963619
Pb 11.04757981016101 10.034803920435474 16.880689005640363
Pb 12.082225953656843 13.0904659929555 17.437816448194543
Pb 9.100162320483065 10.410514042874942 13.01082028817201
Pb 9.453584843771296 15.993518466714212 11.241648456574325
Pb 8.276152760152717 11.748216510073199 10.162637492548782
Pb 9.978185118613498 15.859974087418284 16.589069235153836
Pb 9.280285767144946 12.440391744710688 15.7719805858946
Pb 9.553981511296618 17.64739054276335 13.928560492077944
Pb 8.268860311197196 13.604951632724504 12.948446385503772
