47
Energy = -155.64144916 eV
Pb 19.262851801171493 14.762122930492513 14.259055246265607
Pb 17.240421631892218 17.459789782282122 13.345002515186284
Pb 20.71896874973654 11.879933810299201 13.361794523219777
Pb 18.80447091612471 13.446984556235012 11.308791902664879
Pb 15.259364811470688 15.461673806127516 8.932790642155695
Pb 16.876708434188952 18.10370744323118 16.4627640965235
Pb 17.68784096825795 14.882600622551386 17.04329247411774
Pb 12.28786912270049 16.02251612702653 7.977440583810237
Pb 19.451491704844187 11.86997829623024 16.491286857715693
Pb 14.88287286395884 19.670757120181435 14.237873695860932
Pb 13.413450721739581 12.913741241783036 7.847145180982699
Pb 18.45962471641995 10.1940115625967 11.55999970014238
Pb 14.856286367450625 17.59463872809801 11.262325106205383
Pb 15.768828348818802 14.570030901600896 12.472532632865052
Pb 14.859654520910162 16.04900261063367 18.23858987159722
Pb 17.293064046978905 11.973386129050098 14.00848283011964
Pb 19.29449189254551 9.235003080284724 14.536921509161072
Pb 17.0217727863234 12.232018762299319 18.811753444219942
Pb 14.1456492452138 16.555925537220535 14.953915371808213
Pb 16.146791304217103 12.53318998778128 9.755634446652447
Pb 13.993346964452165 19.108278361702503 17.263105888088575
Pb 12.697754566596934 14.438281525589476 10.876805055411426
Pb 10.383251319176644 13.507302976066596 8.548125910270295
Pb 14.779695175506577 9.794681703261919 10.523136853063145
Pb 13.81467008453902 11.749007879307143 13.082188045325546
Pb 11.607862417697325 16.76561374743801 17.516732745640095
Pb 15.951975080479807 8.877408675056063 13.498043850268337
Pb 11.908803871118558 18.620321761535767 11.84760752317859
Pb 16.883506079256318 9.619222170276238 16.783452286171112
Pb 15.02356527939257 12.986495017618532 16.384185706617448
Pb 12.724694896824236 13.581115152461507 18.774452718979017
Pb 10.847819099755817 15.895639138692854 13.491218147989501
Pb 11.950762827676808 13.566032300018001 15.49220687486963
Pb 9.80296223932241 16.380777775102644 10.336907404442394
Pb 11.74124310626196 11.16049215566935 10.453039956430187
Pb 11.421369783360742 18.962551232016764 15.074602762135484
Pb 12.595948617659245 8.642524433887735 12.665278733914294
Pb 9.198454457858622 13.135568143639247 11.60354646792564
Pb 14.19545223878091 10.5882206545038 18.66311956823401
Pb 10.682499555379428 10.781340653356406 14.120028874408405
Pb 13.506162875501026 9.372243586570779 15.708605166749196
Pb 9.65724822327582 14.07489161809566 17.823097665204592
Pb 8.820554695399947 18.51982384034318 12.967359847110561
Pb 11.122388605526629 10.987374750127072 17.41876173759088
Pb 7.517867187050827 15.646625805246854 12.816282437916927
Pb 8.57185766467392 13.378387664003817 14.934615705505502
Pb 8.5913154652265 16.808968517351477 15.768860753825795
