46
Energy = -152.74942127 eV
Pb 19.041455163778423 9.537259393287549 13.093200680414935
Pb 16.16640795059809 9.044704701710337 11.332747330491616
Pb 18.32260293901909 11.303602215444212 10.35654400963102
Pb 16.300666881970425 8.779334298878627 14.67788705655073
Pb 13.538820612094762 9.89357181157778 13.236362134161697
Pb 19.83552499445174 12.702299691345724 13.152298177190465
Pb 18.27340692873913 11.198390254208308 15.79865679218701
Pb 15.760935348673385 10.503160180120819 8.307005110764752
Pb 16.465015076834217 11.845480249409288 13.217835088779863
Pb 12.94495968121466 9.980550344437427 9.98860045984218
Pb 11.328298719961733 10.75557961878389 15.76720842264137
Pb 18.418352395348276 14.613354921055727 10.7261854219334
Pb 13.353349771401364 12.963691999304478 14.235231895960604
Pb 14.458228631908229 10.934002228819669 16.612419921251643
Pb 19.517004569463378 14.259562203188512 16.071608445853688
Pb 10.023087922507223 12.615731349616487 13.388755915914814
Pb 15.968175712538036 13.88932097685067 16.367450351701564
Pb 19.7842546921294 16.046767637145823 13.343047111843942
Pb 13.224192715208728 12.245110908423989 7.564604937790638
Pb 16.166082187798338 13.77937940740042 8.010836663929595
Pb 14.627666278033885 12.77123310746018 10.641608211814834
Pb 14.905235674270985 12.693778104853642 19.367719325588105
Pb 17.82799959080978 16.940312899384388 15.83193851059393
Pb 17.746693029114844 18.542426636459414 12.928111949653973
Pb 14.847549009943775 15.9828433924845 18.765627332856592
Pb 13.180117416125938 15.228679487249225 8.686343000285525
Pb 11.290017048633823 12.935729347217038 10.156809251324768
Pb 11.773530094202744 11.520287247382768 19.24463834421357
Pb 16.34057991869314 15.49653943686609 13.272282519726442
Pb 12.475591444922717 13.95931565368914 17.405405925094225
Pb 15.76409657415635 16.53533743368768 10.223871397852813
Pb 8.979780699870314 12.914386205171349 16.669448944166774
Pb 14.543805042813691 18.426713255877242 12.505250137549773
Pb 12.709685003981223 14.498189201119517 20.809538302646683
Pb 7.288089961577109 14.592851848341931 14.337070234363248
Pb 15.63950203945174 19.113362843946213 15.419610318021087
Pb 12.736099766631257 15.382646314995094 12.068103794009042
Pb 10.527200620956123 15.50315236799319 14.937929347299615
Pb 9.19486370675529 15.685214451750378 11.868427830124196
Pb 9.777879898705862 14.337190855838799 19.521451997118554
Pb 11.680428034569157 16.92721399244125 18.792370307136718
Pb 13.510312301181445 16.638269590385523 15.580819840438695
Pb 8.242924245126144 16.291014099037728 17.12998463313927
Pb 8.043278063454274 17.701844549406125 14.114406450965186
Pb 11.063150927571908 18.21788059009516 12.9499539814883
Pb 10.500196155355905 18.60001689615147 16.142599483059687
