40
Energy = -132.15599621 eV
Pb 12.395108155528227 19.870902737712107 17.662512217692413
Pb 11.273550237702082 19.596313435532736 14.624558147821563
Pb 14.527246106822266 19.940624197406596 15.124372840627826
Pb 10.123868099650785 17.568323036512254 16.94153479205496
Pb 15.365403717160673 18.64298027359666 18.04085506689264
Pb 12.791534100605794 16.87578938876566 19.043368305400225
Pb 13.145768481871174 17.100322970917485 15.716186481219523
Pb 13.053033486500388 16.734339229415916 12.372572319640053
Pb 10.49084453813504 15.25945109579727 10.463571675862728
Pb 9.909973629816152 16.80387553746255 13.515118369092338
Pb 16.54075965178362 17.25009884835856 15.317594933243862
Pb 13.696551546760277 15.511031212035983 9.172840898083583
Pb 12.435819091008812 14.092243584840098 17.055034393798476
Pb 15.60426815007287 15.357483064659982 17.751509893250166
Pb 9.366353933057436 14.442600027430222 15.786106796166344
Pb 8.41006519080512 13.958543255052648 12.68150250826063
Pb 16.699053075805 14.84366582126497 10.103958715869727
Pb 11.645184112585781 13.459117616856044 7.944083867869386
Pb 14.995050802080051 14.484994385650491 14.600982543842553
Pb 12.937833606809116 12.608752215840076 10.92655698795952
Pb 11.782194306978983 14.114163436194094 13.702359453765549
Pb 11.961068810617885 10.713112853867074 17.143398285861714
Pb 15.0773198689839 11.681782958679474 17.309779393328707
Pb 9.900679162602344 11.295623451764195 14.006462478636417
Pb 17.70515696071582 12.81451939099365 15.631692910692259
Pb 9.71806739666213 11.820770386990667 10.520906947667433
Pb 18.26032020612376 14.53462638661432 12.832673381149863
Pb 14.958596136085331 12.55656195958392 8.329723765851051
Pb 11.9539484297555 10.394016521916315 8.458980714974356
Pb 16.038080986750696 12.119470254190512 12.220935990063104
Pb 13.534149268512689 11.152044846366545 14.315254409029405
Pb 14.2383145525678 8.5621288289072 16.387518435468646
Pb 11.431397296759483 8.54592179676005 14.823285967861624
Pb 11.713121309299801 9.31756458629448 11.588189312804792
Pb 18.55825877224747 12.258527014164057 10.187968375545568
Pb 19.276947480970573 11.424518451354889 13.184542300484711
Pb 14.73258719602211 9.63474937459722 9.812231171986614
Pb 16.927148931270462 9.677133201551719 14.863376224044375
Pb 17.481457399759826 9.270787770410694 11.43787944825048
Pb 14.518310710844778 8.241455652211133 12.997183603131448
