43
Energy = -142.39207613 eV
Pb 16.274813981926574 12.431348787899537 7.5712990652829095
Pb 15.361177034182221 9.246142026731292 8.359160783983627
Pb 13.48841508913241 11.083040713476958 6.606032049828258
Pb 17.327339520597857 10.931284356340859 10.409305192150939
Pb 17.350582064468593 14.241747679456289 10.394985374593618
Pb 13.478584527347264 14.239345284525928 7.3083599677213815
Pb 17.519501767045544 17.486164210069493 11.314102901246834
Pb 18.587639935710737 15.115010267354176 13.312927085087845
Pb 13.98336418689101 12.192870623515187 9.9738517128937
Pb 17.231058333431122 11.628452653884802 15.792131962205666
Pb 12.239629025377239 9.456244102721177 9.486686992300559
Pb 15.036278409412809 8.922509957474283 11.57327778801258
Pb 14.79430159933561 16.109203330257813 9.715872659187012
Pb 10.909540789489794 12.36952202136416 8.080403836714849
Pb 17.08091114733795 17.79628885062952 14.462930873412086
Pb 15.331715215490975 15.275203941251274 12.764349834908193
Pb 15.443881991924373 11.86945776543996 13.095093613698857
Pb 17.819261418124075 14.972070980451555 16.47943225303641
Pb 11.677428108614112 14.788844402083644 10.215315928805635
Pb 14.555247744936636 18.411405447854538 12.219107869705436
Pb 15.068271657015725 9.01975276215419 15.025284418597758
Pb 10.3672349648527 11.766383833767684 11.172907459526261
Pb 13.648446967270909 12.018576523808028 16.313388230070395
Pb 14.580365508810765 15.28329303886079 16.115533368252745
Pb 12.43132346895553 10.130001759198436 13.120668191511038
Pb 15.755967182121655 9.859981255037264 18.099878497686586
Pb 16.008438484572533 13.115572193349788 18.583698146775774
Pb 14.025467648352572 18.821169599701054 15.449405041697696
Pb 9.00354786079348 14.297632988671312 13.14172528584101
Pb 16.279458617089926 17.628884710354622 17.613000592574302
Pb 11.737835691584042 16.877796252304723 13.481771095783575
Pb 12.42668846230709 13.506576549136557 13.179930429244454
Pb 12.58976213356471 9.177753632822132 17.341700055403273
Pb 10.103022134386364 11.822666885732572 14.905872415979314
Pb 11.157812435356936 14.980496598826363 16.161410482426255
Pb 13.385882660515334 11.000453255311205 19.830196851101068
Pb 12.954519587599254 14.191354905772867 19.064270859581306
Pb 13.035273681286949 17.302568683028724 18.30669060143611
Pb 10.928956799375776 18.713656074479747 16.18587032953456
Pb 8.576461055447464 17.103952766489527 14.661103226869626
Pb 8.004775984080956 14.214004894216018 16.24210387399207
Pb 10.757224972567077 11.992708371145884 18.066969729727493
Pb 9.035259018862142 16.745394957875472 17.887381294320537
