45
Energy = -148.56631381 eV
Pb 13.04536547167042 19.42891833657547 11.402012970574622
Pb 15.696494095104187 18.9633203062805 13.344720817472679
Pb 15.24183358050829 16.844919637709925 10.447474955337468
Pb 12.630639622040144 19.695662874950564 14.542605604538688
Pb 18.268113322314726 18.93100915521544 15.542829209872654
Pb 15.104603831771799 19.142100037608866 16.677137502096766
Pb 11.25970318740186 17.250550548894857 9.767207832609017
Pb 10.235258934587833 18.00321284415528 12.941695016509158
Pb 18.26484261535992 16.916063486144523 12.728157603957232
Pb 13.15448920948861 16.617681707995676 13.087373710908025
Pb 16.121149032879337 16.18015352097752 15.393090622770714
Pb 17.334120781000625 17.330065031568235 18.217061689990672
Pb 13.242816541235 15.142249401316505 8.390317226609623
Pb 11.581691500658724 17.240487431001718 16.276092592349077
Pb 16.018863620432658 13.8376862828108 9.227863394808473
Pb 19.573383913592362 16.062185876791375 15.725499235954544
Pb 8.313870456849592 16.286100185042862 10.730656742446374
Pb 14.146715676354361 16.28181735760836 18.146596173732558
Pb 19.239389246801892 13.944822863435032 13.094010368195766
Pb 10.170228696066777 14.01269728636075 8.987870659962073
Pb 15.861631674495001 14.359301071384523 12.527574660187216
Pb 10.795684155396177 14.48039122117942 12.234793565097055
Pb 13.291768580940134 12.032480140155165 9.355331195585668
Pb 20.004470494357236 12.969198514053069 16.036348352785723
Pb 16.88964777081476 12.634888327547669 15.182046796517099
Pb 13.051627538896508 12.084142165743309 12.934656490896396
Pb 7.735824850890518 13.214870205441908 11.24519515408046
Pb 13.286736516343806 14.312531253596209 15.527693121791097
Pb 7.996421980990545 15.264391091939684 13.852107426525228
Pb 17.751746384656016 13.991138239672305 18.101111644665874
Pb 10.07566863832034 14.424561764479872 16.167532691074303
Pb 15.96468878480067 11.37309397266352 11.332281825726508
Pb 14.68963301174189 12.798289231150665 18.034847364935622
Pb 13.418202778730626 9.318637510157188 11.253340540650246
Pb 17.1806891166933 10.451625204128323 17.826350070377238
Pb 9.034479178357508 12.093016995072555 14.01643066565275
Pb 10.382361844098199 11.282452323919532 11.009848425952041
Pb 17.39390906092307 9.381838366466983 14.690293752322683
Pb 14.472158572137722 10.390722409469857 15.619283698629388
Pb 11.507747531555971 9.287311946277512 13.866934871387402
Pb 11.487720707871699 11.442607814219617 16.390591155924316
Pb 14.628068587690704 7.611518376008768 13.97625398695595
Pb 14.115605415262083 9.56154438855086 18.78489845574432
Pb 15.965179682018839 7.535419511575334 16.9896065806651
Pb 12.643652563078351 7.758251703165679 16.54961188840259
