46
Energy = -152.27219963 eV
Pb 8.112977659665665 13.860193697397055 11.438417832275654
Pb 12.631666525837247 11.978930615033207 6.830289657136189
Pb 12.008854884806517 9.626713671105298 9.070355991791306
Pb 10.318719330486353 12.634714939927502 9.113614344552778
Pb 8.597607696656132 11.094063389921024 14.968578846440225
Pb 8.971523273063946 10.71947683176973 11.548483099251934
Pb 9.078240671885764 15.677409508008454 13.956278708775669
Pb 12.70408101351193 15.011430306586428 8.381987420504982
Pb 10.54482920078915 15.788345073657597 10.780293607768145
Pb 11.854699180279104 9.517631775652742 12.540407595915454
Pb 15.137691906510097 10.302372014696624 8.060925223140325
Pb 15.348852995703577 13.489061867141409 7.545587024166251
Pb 10.843672545442631 12.936766710892337 12.897665726415974
Pb 14.729875998402173 9.356079777609674 11.117114631912008
Pb 14.494040605985747 18.151723746012372 11.789237964403489
Pb 13.56803013610308 12.376106540255256 10.197376173310198
Pb 9.475690115920404 10.851661139551632 18.222023763645975
Pb 9.142274237680159 13.873036600052389 16.639585411531897
Pb 10.286491116538654 8.576515095651565 16.014011514168924
Pb 11.607273737200725 17.76562564814456 13.59389160913789
Pb 13.351806982145629 15.096179164853572 12.314548559172293
Pb 15.94352291419267 15.391492015311393 10.320748362480124
Pb 15.733049929476149 19.888276118927063 14.192909847603476
Pb 13.453854079672082 8.588972068058895 15.235808579352002
Pb 11.80433386191545 11.558040109492405 15.821318469135333
Pb 12.216405423253693 18.193064039953274 16.801349023719293
Pb 17.77666515191214 17.890551769017794 12.625946907303863
Pb 17.199733388391763 12.291807315864274 10.963044627488232
Pb 12.026142507985915 15.116146643627276 15.53504014885607
Pb 14.232033818339096 11.697114108534528 13.526738228231464
Pb 14.94597423620721 16.926404533406654 14.974764526251741
Pb 12.442983880973685 9.51845197288898 18.247763203041597
Pb 10.74751581784494 15.928097279863026 18.54645738076129
Pb 19.081515919363152 15.148017826430385 11.462203521754663
Pb 16.656510011283668 14.287822941262151 13.634370768330326
Pb 15.335466576069338 18.75839198161529 17.661497109894782
Pb 12.094252420719677 12.865598413871094 18.88093100314502
Pb 18.069075625695028 18.516710189395152 15.881994409017027
Pb 15.509580437419032 10.563227653557222 16.6008047593663
Pb 14.762860431621636 13.657460682858074 16.634632112386445
Pb 17.308244242562584 10.643416360622618 13.843928130265537
Pb 13.956275058195764 15.97263388885811 18.773829726785642
Pb 19.49741500388694 15.778020549047316 14.816444083875412
Pb 19.671241523983788 12.740422886572132 13.430148256115679
Pb 17.152822895588464 15.84449504779961 17.582458849793213
Pb 18.144771154415828 12.88837857838784 16.311517699589853
