46
Energy = -152.33123527 eV
Pb 17.04278596821179 12.142948445519936 8.744637005557854
Pb 14.668893297108385 9.640944570662803 10.609871536296957
Pb 17.24514512006361 11.169415593016257 11.834872206165384
Pb 14.413303026291915 7.76344841651772 13.284686586379882
Pb 18.61094152628779 13.974641288779305 10.99339198678573
Pb 16.784721571256256 15.300731185516668 8.641872324187498
Pb 11.938102030264433 11.191962114963856 9.764761756632273
Pb 11.579614158098313 9.165088860536573 12.363057876436203
Pb 15.538137053485592 8.887498601451973 15.980145590200937
Pb 11.323813103658898 14.344171565559297 9.434070745039028
Pb 17.695641356838586 11.070773272344603 14.933256065780542
Pb 14.607930826669111 13.300300254940813 10.453098091434311
Pb 9.271985174594748 11.365771575358695 11.708453990600944
Pb 12.125314102095375 8.02979887257059 15.628397217758147
Pb 19.256715855547068 15.534842025015346 13.934526040349686
Pb 11.87112579965478 13.1270582211814 12.611077869613569
Pb 16.97000121037341 16.921978360407078 11.569895147111671
Pb 13.809046297395854 16.43586461210281 9.030052549091637
Pb 14.394918295152936 11.037013011284392 13.657732776592837
Pb 16.31010964982827 14.008561151383546 13.569783071477623
Pb 9.209820715701127 14.974199370290826 11.717932454762849
Pb 13.496147991790657 9.72968879225702 18.39723506432809
Pb 9.321784375273955 9.761873709429443 14.84669112905404
Pb 11.811151829995252 11.573895409914744 16.028308709018955
Pb 18.133353238611928 13.823948947399554 16.365550035198627
Pb 13.821320295581916 15.994676180652998 12.403769548078966
Pb 14.313707252476718 18.988843421835526 11.01896075814112
Pb 11.362471834802237 17.480970450895953 10.937092816309258
Pb 10.36681722696803 9.097517250954263 18.11292246518506
Pb 15.198420664801441 12.336250521419272 16.917528720645002
Pb 10.641865286013436 16.346910256634192 14.329081861072664
Pb 18.60701766513453 18.717162094878887 14.051417414982156
Pb 13.323432528966276 14.620182863234135 15.44331596786006
Pb 8.999878893865834 13.227304129138293 14.447602878630978
Pb 8.743611872079402 11.776422116197443 17.49517750241418
Pb 12.794714338696034 18.97028841892204 13.873350901765683
Pb 11.468343619897603 12.121638086110456 19.247634373027875
Pb 15.88482838852332 20.394105948947594 13.819497859774005
Pb 15.737745940962437 17.365971255101126 15.22180176044695
Pb 18.522794138944352 17.030281011668272 17.00122137277281
Pb 13.435396596432001 14.864937134029567 18.64161404174721
Pb 10.356778795749948 14.672806731666698 17.31229106090429
Pb 17.471172534330996 20.075699540165644 16.785469436594507
Pb 12.573813657587696 17.448970650301305 17.039176047945485
Pb 14.293048333199357 20.188392172679098 16.685910728131407
Pb 15.711538870019597 17.827530048768015 18.482700893917745
