42
Energy = -139.48746083 eV
Pb 13.34766160995265 17.99489973900227 9.014698261737479
Pb 18.195271203432306 9.507020342085209 15.556822726280517
Pb 13.452778751428042 12.410637554979893 14.720054388456845
Pb 20.273340664365968 11.838836715168066 14.94483242785098
Pb 15.951687573007927 13.831326793719844 11.409762071279095
Pb 9.245780280273973 16.83511902594159 12.526437072052127
Pb 8.750014410530202 14.82071974194616 9.835615850523151
Pb 17.49196377498222 16.49343872212913 14.138809717903907
Pb 14.75419464625385 17.761885345177387 15.933039603880705
Pb 8.300252740813775 10.829430450640722 13.859047759097885
Pb 17.375798368877163 15.136993823476493 19.766707371288984
Pb 12.532496125987578 18.024814465644404 12.351681262572544
Pb 15.24002804552756 15.469707268984704 8.460607767657187
Pb 14.414228797770413 15.425390562331344 13.718306931883713
Pb 12.87731328364915 12.72635963862759 18.233472240999717
Pb 10.651725910613472 12.128361819930719 9.118409304541203
Pb 10.327791904957055 17.58013211428397 9.654749632752951
Pb 15.43555152288862 14.659285815782148 17.25232755746388
Pb 12.648851449432122 15.123814281325666 10.793340626322724
Pb 15.732054256154631 12.231057484440063 19.725935927686926
Pb 11.238571447007006 15.469789511630129 14.66992941254917
Pb 15.310959099546725 10.381929910985978 17.03913863153056
Pb 18.176177675129885 10.961362446011274 12.556358527206841
Pb 17.769746958069558 17.305829905493898 17.309575451412908
Pb 15.451886230378653 9.76597636433582 13.84157753139418
Pb 18.449051547742318 11.912115555081115 17.78666669032452
Pb 10.060484272453586 9.623183805402235 11.367075497627711
Pb 11.420543552274287 9.881227220062092 14.296911633687907
Pb 10.705250749968666 12.815143704779757 12.44442509828582
Pb 19.23109599707318 14.094350519794563 12.852494296048722
Pb 10.243918127921026 12.53072523073322 15.865792269897982
Pb 15.615058823519837 17.175988835313074 11.171681106659996
Pb 12.472157794828394 16.03136239918285 17.95550203340358
Pb 7.923947585670979 14.099033431378446 13.593951848404151
Pb 16.956046143875888 12.770643868768703 14.931721089521108
Pb 15.11453893205743 17.551432265611908 19.181691363826825
Pb 13.251804517453227 10.882356281772662 11.548356552687935
Pb 14.108813854574315 14.88999571880497 20.532378574064072
Pb 13.844602517902079 12.666710950199803 8.795824839813738
Pb 19.575519271582444 14.783460757102574 16.171880242749747
Pb 7.766242584791489 11.97557845216621 10.916615212693383
Pb 11.81290492515695 15.220892428719852 7.684494392621655
