48
Energy = -158.78332264 eV
Pb 15.199272354762085 7.332381726774197 14.191264110861304
Pb 17.441188799578317 9.635355753764935 13.272597970060879
Pb 14.723493897729524 9.070703021014316 11.397082510961017
Pb 17.054853712676923 8.751465504887816 16.407843592110567
Pb 17.236880049080987 10.61160138635278 10.101947409102724
Pb 13.910975267390771 8.35026691004015 17.170256482551437
Pb 10.72216536164457 9.398104570816582 15.741487360122466
Pb 11.41156824213444 9.653530781063488 12.546783510248828
Pb 14.136455102736456 10.33066522125839 14.671797908199325
Pb 17.824953759379103 11.938929899263087 15.590835990450477
Pb 18.829323750413575 12.904629697252537 12.042568053490308
Pb 12.857243605689456 11.302171849349982 9.796531616790489
Pb 11.969886204696085 11.145105656431468 18.178173527017496
Pb 15.251121324198847 12.428288938426899 12.03072800150579
Pb 15.447941669624624 11.157896122207077 17.92103745584407
Pb 18.75446805016102 16.12872830291573 10.845338385220469
Pb 16.87349787088978 13.790386563317892 9.521649821732318
Pb 14.912141913503344 13.411710569816163 15.32845066756787
Pb 13.888134937061958 14.12547092442222 18.384856819496484
Pb 9.78286759201681 11.565780432264082 10.554549307820738
Pb 8.849423725624465 11.82302732993708 17.169122958636308
Pb 8.74585006487304 11.534654833193493 13.727281289045742
Pb 11.54353320363487 12.561174342745984 15.32408191920854
Pb 13.719126658051513 14.41986627110869 9.286715963946099
Pb 17.227098549089977 15.251856156059183 13.78469779085418
Pb 17.032317857760557 14.730009552267628 17.4317678150644
Pb 12.524559656968018 15.737216322710527 15.62130023164454
Pb 14.093747573550287 15.973138596212067 12.325408039470247
Pb 10.62496080836756 14.436808921367772 18.2223058303569
Pb 11.97818695188877 13.366012000066362 12.156372133594248
Pb 14.203776641985867 17.64022651565676 9.38440095405504
Pb 8.784759615431925 14.526791807128449 15.355542458705298
Pb 20.44508231523357 15.300864190560764 13.530443659277703
Pb 8.968434040896065 14.475170471996073 11.899271912425004
Pb 19.088334593506055 16.861502734061613 16.23120062071552
Pb 11.325073332508138 16.343270783060913 10.381855406998296
Pb 15.39359075350161 17.450219640563184 15.619972379212793
Pb 13.214317421814558 17.606703261054168 18.32776574161493
Pb 16.117676724654146 18.496609717258124 11.681313852840365
Pb 12.230299752890256 19.344119199043288 15.643733660766742
Pb 19.001718295096484 18.23114110831871 13.301812696576656
Pb 9.923910226519297 17.341099582377687 16.846197636928846
Pb 12.664636453625908 18.977951727736034 12.001514388848769
Pb 16.691986396697587 17.920686813352287 18.54410802635202
Pb 10.416081515974158 17.169483320942263 13.499523154358286
Pb 17.63738119752555 19.880636484849916 15.963280682527461
Pb 14.798847294920607 20.297743997100675 17.467255303285427
Pb 14.955006782243323 20.486595998047314 14.085443033575611
