42
Energy = -138.3882618 eV
Pb 14.250959863511708 11.706201770131134 9.419668904373939
Pb 11.09233726741875 12.502529290709328 9.983813098109236
Pb 10.458704178033859 18.78313302194579 10.446980020352798
Pb 8.662804530065873 14.324851168042663 11.417021191832152
Pb 17.066218403953766 13.1435347941621 10.107901576583243
Pb 11.302783836299882 15.818679110645236 9.980940163049432
Pb 14.325889045989019 14.936877542943224 9.245724916093506
Pb 16.08183141208351 16.072029407285797 11.719084912850942
Pb 19.300142147090124 11.242705660332794 11.721721250707347
Pb 16.172109787541817 10.28525633258106 11.706399923894187
Pb 12.605507442474746 10.648022263527299 12.145046401815682
Pb 11.68600454446523 19.39486863335473 13.345605514125733
Pb 9.545455467269148 11.580907077331545 12.800331158970156
Pb 18.859755650900567 14.33269037289745 12.693701693522037
Pb 9.278597283614264 17.049473615389203 12.825900681022608
Pb 13.609646187882495 18.117849674686365 10.877349246888192
Pb 9.182520602840093 14.116242382377079 14.9414793965222
Pb 11.756849785359792 14.112172764831259 12.910209207334281
Pb 15.08363031055406 13.18675966952769 12.837463821199384
Pb 14.999606405463993 19.468352741109463 13.57556720998069
Pb 20.949462090565074 12.446677481336973 14.312512096498045
Pb 10.696942228217553 17.177261713399076 15.742566694063
Pb 17.74274562283459 11.471932568862835 14.569741859022841
Pb 14.534792186468087 10.657695719436491 14.828244162173956
Pb 17.059558119152626 14.63873169485479 15.555784297051488
Pb 18.0718914403607 17.345298240586825 13.942947872951848
Pb 13.644618832026016 16.632856291780612 14.286069288372143
Pb 11.055649416971217 14.205977530840444 17.7682217327585
Pb 13.06355560092529 19.51409726486103 16.222676645797677
Pb 20.36509320409349 15.494100808697956 15.423194813115124
Pb 13.946915512783681 13.696233908471498 16.230832570007877
Pb 11.356081323950793 11.626177939016925 15.560597747767275
Pb 16.115802675760605 11.581244294955548 17.778825957727147
Pb 13.21885514391697 16.601922805590522 17.918930490943136
Pb 19.54643280082183 12.738506835574784 17.18417953999944
Pb 18.627887587275904 15.758528203826463 18.272596513520266
Pb 15.896899738084368 17.755505365044403 16.418587943620427
Pb 12.880746276452248 11.596239516127604 18.67896818399486
Pb 12.89481051093727 14.32850867968633 20.602100760210096
Pb 18.2048464273455 13.06682105850637 20.049401291803058
Pb 15.662162227981387 14.737435202408504 18.99793971772256
Pb 15.10841310114705 12.070625803207884 20.91868575253721
