42
Energy = -138.03944261 eV
Pb 17.434968049046088 14.012546206882929 10.790977654097322
Pb 18.149194509636153 16.698233881713854 12.836233239470605
Pb 19.49673060542111 13.652536915288916 13.655177774759267
Pb 17.465645360872287 11.254006346171609 13.0714691052817
Pb 19.446286764075616 10.831225763740575 15.69063405410497
Pb 16.328851620002666 16.768350870963577 9.782408704924748
Pb 15.757444847869614 11.401690374926064 10.284318633635554
Pb 20.049718668402015 16.29113459874783 15.416739659220532
Pb 19.231625859109755 13.698830354961252 17.077394161807426
Pb 14.87777137113636 13.956197941628396 8.303971542190435
Pb 14.291824853283526 14.583877697712923 11.618925072341105
Pb 17.538655425785603 11.15892283592207 18.273710742903496
Pb 17.650279385729316 18.513932148204884 15.683843126192157
Pb 15.670870681514712 18.769338491173237 12.562071559617346
Pb 13.945237834075911 16.965291754779894 7.689498224087424
Pb 16.4367709431223 9.652193676528569 15.642731254613883
Pb 18.396735931780036 16.574694397125413 18.29225811630232
Pb 15.567654792903411 16.01610873465214 14.664543628261212
Pb 13.611412083104586 10.219327515828807 12.332461677937085
Pb 14.823306668127552 12.4367619662262 14.493032590908477
Pb 12.422978299018792 12.019396608070435 9.735286008751928
Pb 16.0555285015948 14.063288133465527 17.36553997174873
Pb 13.214993033523843 17.92477514480991 10.642834896698279
Pb 11.77771011846972 15.228994079192793 9.210556518324676
Pb 15.942842287991283 15.827026357693637 20.304599286814074
Pb 9.564386973266009 13.597795835350633 10.83309356679994
Pb 10.42413326658002 10.887366410918053 12.121350462628994
Pb 14.260722824690863 11.097446007279112 17.520761771294854
Pb 14.436071041973824 19.500894130730956 15.444438629971433
Pb 12.55202241767755 14.64594259546812 16.746087046275065
Pb 14.542902286455645 13.059279257572348 20.132188238231784
Pb 10.434433949687078 16.576652557302292 11.999785316277517
Pb 12.68689996802955 17.18091380116756 14.156069988622024
Pb 15.067641301737345 17.381854092518882 17.661966974984434
Pb 12.005145217109968 10.772259114436105 15.042643890533743
Pb 11.560896756175595 13.654765551147293 13.441263903542733
Pb 11.536193532142212 17.776835518552513 17.376196450849086
Pb 9.659073805696917 15.986932875759841 15.451206737609937
Pb 11.413465446787853 12.808411707589656 19.304447986135656
Pb 12.543148080246818 15.914046283008553 19.872375010831654
Pb 9.781560708721415 12.912534710299726 16.43318317740392
Pb 9.553936045462018 15.335058872524794 18.649395761051302
