46
Energy = -152.21680156 eV
Pb 18.560123751439242 17.033917604859234 15.41445334862659
Pb 19.850991942463516 14.053205667204894 16.041071660493436
Pb 15.69501634284294 17.776775561641525 17.66996412803981
Pb 17.888137263543445 15.202522928539405 18.463723913655503
Pb 19.727555069489167 14.74131774392702 12.926062128749242
Pb 17.871869737824046 17.55729132450393 12.249231466301769
Pb 18.808856445504745 15.420604521860367 9.93682542965887
Pb 15.690771867717176 16.28884891847236 20.761708257252682
Pb 14.943590552537211 18.42384631425121 11.219082740728789
Pb 16.116229299540624 13.091527498741383 20.55520137895282
Pb 12.693609851156467 18.677881309609766 16.36369617183273
Pb 14.91974054540349 17.061181316912833 14.331435179828148
Pb 17.01772239334827 12.187869490853776 17.552868888799246
Pb 16.762332454227327 14.436559222220387 15.104229621175548
Pb 18.27282693885376 12.291072363121303 10.740092939642311
Pb 14.12780205577209 16.355160868145735 8.955479484479262
Pb 12.392407574315934 19.067372666729764 13.072572748481285
Pb 18.339954471054686 11.902122856981725 14.001398468782785
Pb 12.882736677759274 17.288625756873653 19.471763955413174
Pb 15.945926867043775 14.990242347789678 11.580172959692655
Pb 14.525629308303065 14.683327700262609 17.928113097240086
Pb 16.394957569255194 13.976307863987175 8.475669284075623
Pb 13.136671187393743 14.313698443745869 20.99240435226995
Pb 14.469036285761206 12.080632113122718 15.386162236174798
Pb 12.214748267872231 15.071996108606731 15.407095971816458
Pb 15.242096650801914 11.566338244670016 12.187101396477347
Pb 15.499257528512029 10.54660689372315 9.092243287451135
Pb 13.566216441844775 11.624200691443496 18.804434180194843
Pb 10.259076940672383 16.83503433691125 17.506370806153054
Pb 10.936355510118364 15.607851862194563 9.169065490683654
Pb 11.090618895272245 13.917210308701856 18.45342090017639
Pb 15.974647580714278 9.22146269217583 14.420912340512988
Pb 12.568820792440746 15.985255803108709 11.967146626610846
Pb 9.742951415063995 17.319517473541122 14.324881414059544
Pb 12.134320237995091 12.684723923850841 12.644507576697777
Pb 13.339429643264896 13.117138536391534 9.39299043866453
Pb 13.50598402893921 9.14275280150953 16.487837619688424
Pb 15.218498419035724 8.295873682507583 11.450435740736602
Pb 9.997901495460521 17.942028472089934 11.157663965917914
Pb 9.025773246801602 14.315265703577792 15.265729985051715
Pb 11.179086792217843 11.744079546781855 15.711048914486872
Pb 10.048402180931893 12.519989495052945 10.02524665283935
Pb 12.76310244529373 9.153150935166416 13.442762490808985
Pb 8.761290561669242 14.98980686495704 12.018231811266029
Pb 12.508392116955486 10.040637711252447 10.408000213617356
Pb 9.017891605693395 11.925146250148263 12.983630931546575
