46
Energy = -151.34209348 eV
Pb 18.881094257383065 14.388831957739466 10.163820408586192
Pb 18.13468374187431 17.46239490733354 10.306685525767291
Pb 16.26759882063523 15.322773512115273 8.26381755539621
Pb 16.771962558802233 12.27775623283786 9.232661839527994
Pb 19.044659886953593 15.98211008028341 13.230251858618894
Pb 16.867121967608345 18.842776047943982 13.002788933279106
Pb 15.114778971654832 18.680689176843586 10.216585165587869
Pb 19.203665641878032 12.56544841320221 13.020514896719012
Pb 15.799721291038427 15.42280250603958 11.54257533452051
Pb 13.179382425614804 16.179199340598565 9.015508801605867
Pb 18.649405704312205 11.407126587258828 16.468707090001278
Pb 13.7677917893776 13.163676006286652 9.78987122725737
Pb 11.905346454101156 18.750200609166004 10.46177867172083
Pb 13.628224969237635 19.867935438570512 12.977078415674255
Pb 17.60186906283833 17.095771022657473 16.032809445495733
Pb 15.45993478126002 19.709449430573898 15.727996083132139
Pb 15.704806020680133 11.643388146643257 12.16583078898587
Pb 16.76875028500334 14.005039659915502 14.825953400064956
Pb 14.408409623294503 16.733582965945853 15.162901578519566
Pb 17.90723833681298 9.7262462354606 13.900157883950152
Pb 20.074933536517268 14.240872329326567 15.734441976034267
Pb 12.098358794366042 15.83111434483477 12.064039875892451
Pb 15.399899209120337 16.690808446381887 18.65318569496941
Pb 12.23002288109354 19.21802177231885 15.841288367090447
Pb 11.14117007148909 15.54852168884535 15.187431559950232
Pb 13.57168682895454 13.399226622601336 13.82512879012539
Pb 17.76855135995614 14.09665648894194 18.049180490069816
Pb 10.530810330968313 12.991588479348627 11.717432271573598
Pb 15.084283567287795 8.536958551239826 13.056864594948427
Pb 8.669652980825619 15.359383086386778 13.040117341029875
Pb 10.420555981051148 18.356888809710895 13.327552522260934
Pb 14.00324231286535 14.055065752084346 17.3909368740323
Pb 15.223434645010315 10.828032289813665 15.514778688385864
Pb 12.55814312715618 10.42887426159254 12.033983771036176
Pb 12.224713986509764 16.979432357802036 18.089346005608064
Pb 16.118604521839003 11.062413917117293 18.750799914761515
Pb 11.778306057360162 11.753019370173995 15.99179065239682
Pb 8.741892898837511 13.179534563198695 15.562679990623993
Pb 15.535383906371484 13.815145431401383 20.428229748227523
Pb 9.712606137498119 10.34913994975568 13.856170230616618
Pb 10.50016856791682 14.154062171865107 18.316572599904582
Pb 7.594041885777806 12.363422339410295 12.64579321986077
Pb 12.45191332818401 8.607422559248569 14.849433469411352
Pb 13.423167284713328 9.322468002371574 17.780582110513862
Pb 12.723361176669005 11.96888247045471 19.550593450088698
Pb 12.684070557758773 15.067419487759702 20.58870529548473
