40
Energy = -131.80293718 eV
Pb 17.094745649808957 14.656845111739353 19.231157784376077
Pb 19.461231813182955 13.302422429631811 14.423009537207149
Pb 19.075791021923727 15.629312396577852 16.68757596703348
Pb 17.809205029395688 18.57719110360134 15.486476501380736
Pb 18.0457016788548 17.842138246308 18.66159985403015
Pb 18.39404418373926 16.28337988073251 13.179813686806137
Pb 18.035173433685287 13.381441417117951 11.512264365327598
Pb 17.402671844873492 10.87665462732281 13.66468315041424
Pb 17.709563029950022 12.256394934322255 16.889995508611115
Pb 15.397419086034825 11.2601563316548 11.10883649471224
Pb 14.73572101594022 19.648299787320415 15.892169973011393
Pb 14.12748535980707 15.805990364907439 19.7448420215598
Pb 16.10474535753064 13.914412624390618 14.327892685592428
Pb 15.582787501572383 16.53892330425949 16.820967724449762
Pb 15.209213102707427 17.21410059949602 13.426993053349653
Pb 16.113503765243156 16.70250617789608 10.147632492424734
Pb 15.093459687830613 18.95419400265279 19.08306395062039
Pb 15.953296043621993 13.690638073280375 8.868362752077184
Pb 14.985890132933248 10.095029629153071 16.309237729560515
Pb 14.564603446236408 13.342163176019302 17.37867099606405
Pb 12.812177291476338 15.041298349426457 14.948522622324596
Pb 11.48312730001435 14.429434797630641 18.07640895640684
Pb 13.903169730780968 14.521975762662127 11.498338405764494
Pb 14.559016364958905 8.584114306413754 13.44688491795584
Pb 12.40921337747509 17.978600152839956 17.79828065467361
Pb 13.69441531267367 15.789233246179847 8.029882183973452
Pb 13.399292755577575 11.800431921477259 13.849937908057235
Pb 11.9569163401841 11.121297282192375 16.865696481516377
Pb 12.163270530518247 18.36760703879506 14.249996888929013
Pb 13.144838021693726 17.707846239518148 10.72829006846568
Pb 12.827164842541576 12.686431977577467 9.005165802528994
Pb 12.415878839809869 7.919318928319211 15.981619448486837
Pb 10.004726157323432 16.53399160993286 16.153355008788395
Pb 12.318988374965109 9.897565283205843 11.350222596196582
Pb 10.146365758117344 15.990977943890694 12.965817477961576
Pb 11.059012495579074 15.349572618413095 9.78571886204355
Pb 11.695252268279559 7.206063434767482 13.070795064226616
Pb 10.735996700407265 12.799464865208051 11.959574404008649
Pb 9.857551552420379 13.43327896371956 15.09096808278508
Pb 10.481982790957282 9.957803056926407 14.154464993552411
