45
Energy = -149.05305706 eV
Pb 15.906815233271542 9.2849256367375 10.371260749349124
Pb 18.011907725489994 10.607505949805404 12.587335771131716
Pb 14.946280518554039 9.039794485958433 13.441968299996054
Pb 12.66047534943481 9.869575030046768 11.396990988077558
Pb 17.12626998944886 12.024998640173271 9.030262391143838
Pb 13.907525164184767 11.224813563200874 8.48262110349585
Pb 18.67451246536289 13.450763520324681 14.428698775463998
Pb 17.130167201854754 10.34625935626781 15.728221795741813
Pb 14.073041044899117 8.92745733106291 16.604680668678707
Pb 11.291351081586411 10.393622386365776 15.322063218688841
Pb 19.025351709093236 13.419867206827265 11.212771580116232
Pb 10.789371387023172 12.135256676827668 9.534151936015219
Pb 15.122405697877502 12.095074493222485 11.831120955302417
Pb 15.307902314320133 14.129678551579072 7.303754943270347
Pb 15.799682167902382 10.50546627932962 18.644058202622126
Pb 17.038777098209888 15.543067091347448 9.869765868464635
Pb 12.203905772274481 13.46483967193284 6.782360752159124
Pb 15.886010230730857 14.972602983318104 13.139797874503115
Pb 12.295421131612475 11.246807774943218 18.412338608917302
Pb 14.336577165965723 12.109508208666616 15.858623036377745
Pb 17.338433660689745 13.29784788781728 17.506552975249797
Pb 12.013401890963614 12.650184747482578 13.14553464161199
Pb 18.72178380677684 16.298395111534198 12.62590615610684
Pb 17.684190074822357 16.41052159943373 15.98310895737839
Pb 9.034777814731928 11.550315128301968 17.47429607945086
Pb 13.220892131917893 14.44155959019647 10.073828946278141
Pb 8.848596972647629 12.864233624365516 14.466565078438078
Pb 14.510527447014598 13.44121828430222 19.28236102293508
Pb 11.241631894331121 14.06280238025218 16.506976046633827
Pb 14.563829041331356 15.459636032517231 16.34040992595563
Pb 15.309148095730729 18.243684541678427 14.36341437599301
Pb 10.192412010815536 15.27755579041313 8.389131348245074
Pb 9.92104540254757 14.665760187556568 11.586398706577105
Pb 16.46773531604291 16.125714174448586 19.098258897459278
Pb 13.115449956529671 16.55441704164643 7.639135002696681
Pb 12.601179521797949 16.00416592465931 13.378137559723342
Pb 14.849006593399105 17.412127883479958 11.253011849613387
Pb 10.00327866456884 13.94856047829179 19.43407108286254
Pb 9.40686496772839 16.242002235348377 14.790556443492255
Pb 15.194811420353043 18.56742963188971 17.658319437437587
Pb 7.8021099046228475 14.477917872308113 17.06785964793735
Pb 11.545931230191561 17.381496132255155 10.466616367439105
Pb 13.047300149852866 16.509252097034913 19.047065946497558
Pb 12.331363193106185 18.16423566057999 16.173552778100767
Pb 9.82532927280447 16.86096565130431 17.943470746862456
