47
Energy = -155.45283895 eV
Pb 20.224794932673166 14.586287616412632 12.787082221345626
Pb 18.239157097078483 13.933913233572262 15.674710144380104
Pb 19.973004640411094 12.449867511270913 10.350219803926283
Pb 18.786543560368905 11.547918396982258 13.353782919379865
Pb 17.2786637966235 10.846835892789306 16.49943575912706
Pb 19.53094319466855 17.7707345925391 12.31739063466133
Pb 19.20073180036168 15.672496560283882 9.853140008373904
Pb 15.699629818425915 15.950952047154619 18.36398831236722
Pb 17.36053908604187 13.260587609137854 18.767933456932443
Pb 18.768819068221333 17.108565998231864 15.457371280646448
Pb 15.610713281890462 16.061499623159346 14.959803099000808
Pb 15.644991855834942 10.155837922528736 13.760809505678454
Pb 17.077852646361094 13.977709520374718 11.731544527150891
Pb 14.96587997633828 13.073886118500475 16.138958804179133
Pb 17.578402507318668 13.229069997175616 8.364613342156607
Pb 17.159043681272816 10.773418037718939 10.596735357553584
Pb 14.84409378294297 11.367343860518401 19.243983772774968
Pb 14.138029680805701 14.10951340265508 21.04605087423508
Pb 17.10668025049911 19.36814942310417 13.652918343505181
Pb 12.799558585855095 16.82925335751693 19.68858206618457
Pb 17.11303936738438 18.911410815469 10.177667966554404
Pb 12.746254956031839 16.522636480765087 16.41017366947477
Pb 16.299014701357475 18.67321771611981 16.770877214096956
Pb 15.90117448231591 16.170201167168212 8.691470821062019
Pb 14.010649032670226 12.953650464603614 12.78348553245073
Pb 14.490451366568449 20.33216068030729 11.77950460605202
Pb 14.543905761242764 12.87592639804204 9.544306389687195
Pb 13.787489738446256 9.968969587939922 16.57402993642525
Pb 13.852310316259135 10.155681352364576 11.02778051419536
Pb 15.115035800171755 16.954661664252296 11.919406593655987
Pb 13.773711707828452 19.169269175486143 14.716410090876153
Pb 11.981254730573898 11.68283072422743 20.857959360849488
Pb 12.769200221077647 15.646117133427454 9.96811897957681
Pb 10.944482305354214 14.72754808555347 21.297210953368317
Pb 12.322202495846833 13.667700000187935 18.26030017781621
Pb 12.059299011629768 17.992764398354705 12.068309443168268
Pb 13.758852713149954 18.644348169239557 9.2714636713911
Pb 11.449714484390753 13.387055694997043 14.801162403354367
Pb 11.011541235922326 12.316284857763485 11.630254936879938
Pb 9.903387788462734 16.252148704343785 14.962267443101759
Pb 12.091750343619045 9.951969616132141 13.720133090786717
Pb 8.678527550528647 14.14748207839155 12.9498605891091
Pb 9.281159553057316 12.759286827292666 19.315528676157747
Pb 9.760860944609167 15.919530599786283 18.3368830292613
Pb 10.579501415216386 10.91276080756943 16.843823783620042
Pb 8.297199087914652 13.591141049607266 16.20128709604621
Pb 8.985167500023682 11.134616884628128 14.006480653069632
