43
Energy = -142.51956036 eV
Pb 14.068881265496977 12.473212436804578 18.694090844555344
Pb 11.037891460011368 13.727283682391606 17.99863679527847
Pb 13.564909801598274 15.714657408709945 18.045896584311393
Pb 9.705577674967325 11.659143058505677 16.007136718475532
Pb 10.704646622564788 16.9146973477695 16.884932446677812
Pb 8.201318615885352 14.611947154561449 15.858097483078446
Pb 16.70806220563442 10.531342409004653 18.609872474029547
Pb 14.104484777756932 9.894605407334923 16.709480175160866
Pb 17.17926193922827 13.838473162813958 18.54806567567261
Pb 8.793751619177613 17.572294331043988 14.418180378431419
Pb 13.53930632288169 18.525062120695445 16.43479405896177
Pb 14.16775266413718 15.601759029652893 14.790489899859066
Pb 16.033769066384547 12.51191009549637 15.81781476986196
Pb 10.931703639998542 9.922641734440427 13.510728868031995
Pb 12.774977851366588 12.557817618914603 15.237874657251197
Pb 7.309155056962777 15.360943891241023 12.626090193683979
Pb 11.979221568951578 18.09087582508447 13.667749551846132
Pb 8.188292001310112 12.289566784032147 13.22477677654209
Pb 16.609242114401535 16.9324808442971 16.89408661824989
Pb 17.109541874027073 9.352263056564675 15.68542340046602
Pb 10.591228017131854 14.856841266705034 13.612690438277554
Pb 18.938563568293326 18.30483982785924 14.954987840935752
Pb 15.785323684524728 18.40890836499717 13.920006452900365
Pb 19.745283890026784 15.403886608541825 16.556641842431212
Pb 19.15984625897702 11.815976002653047 16.751631593699834
Pb 14.422425310360959 10.288562424390667 13.142383232731266
Pb 9.528235561262111 10.696024796206737 10.589864924164178
Pb 12.290141272698783 12.616982317650923 11.631568968571194
Pb 17.572819409559255 15.290161447955223 14.196401188977877
Pb 8.997965307436953 13.92883577028747 10.23655925029908
Pb 15.609477228298763 13.373527202418266 12.178595040295914
Pb 9.73965396244862 17.096852066790955 11.283938204024876
Pb 12.399431800978956 9.32665746281981 10.660302538252168
Pb 20.896390747774635 16.333956641704916 13.33413283817612
Pb 13.961589635758378 16.320342730957716 11.55572300480533
Pb 18.22632730135542 17.44300991081851 11.858733323207733
Pb 11.801348292481007 12.012835238252642 8.520137016173493
Pb 20.65830204540837 13.274066132105366 14.142207591180796
Pb 14.923163586078395 11.04821774657493 9.858599735564098
Pb 18.12428979254195 11.422095215454805 13.326756439847536
Pb 11.63026940806889 15.505628623466572 9.185675455234598
Pb 14.44706406412855 14.0649465713743 9.130707434095218
Pb 19.014486821801302 14.286581796079307 11.470026942809445
