47
Energy = -156.19195577 eV
Pb 13.292015012168001 20.775001465887026 14.293802654682446
Pb 19.86870166981341 10.702131913509145 15.175066427491988
Pb 19.16614887731962 12.425270719398444 12.45678862310724
Pb 16.959731796391907 12.464483261140611 14.863397704578256
Pb 13.804583903704291 13.328137176520064 13.246315452500431
Pb 15.713483168549406 22.47842578872337 15.761398841230715
Pb 15.463617046260463 14.045732629171885 18.47229287022857
Pb 11.423683892058468 16.864924184135297 10.351845757679035
Pb 9.427203772230774 13.556325475213054 18.48911033955698
Pb 17.286064739702216 9.184540448810273 16.511234103971663
Pb 16.463170347468434 18.53596302884771 10.776438308941454
Pb 15.261920120516827 15.376996598632573 15.54500015919178
Pb 16.16531076663037 12.156255206880642 11.259629201565653
Pb 18.428973164129324 12.059120097708472 17.887254910381667
Pb 8.805294082649828 13.088578868065287 15.34654953539296
Pb 14.008473207760685 20.42532831206425 17.5632704726797
Pb 18.62387538367225 21.449140571556715 15.002101832995512
Pb 12.964882416347447 17.533933595886964 16.278065101047414
Pb 15.552247119869294 10.812837597952491 18.97409298276465
Pb 12.492939646536996 12.233047070222565 19.084539733705462
Pb 18.80469928772111 19.07343575010583 12.895304587494303
Pb 20.047288557729708 13.930854275503588 15.171288859635402
Pb 11.319791470267948 18.09279696704815 13.43569632934738
Pb 15.962286716966961 18.96475133663301 14.928009472604025
Pb 13.887405971783286 10.028880975655012 12.401758414377708
Pb 14.212323054704466 8.199276456150008 17.46388485350886
Pb 14.060834844164336 11.011288417551173 15.902107256393847
Pb 13.41212212894251 14.259692320554716 10.10472144270533
Pb 12.101805667636329 13.757862516818477 16.167090019855287
Pb 15.783267355910928 17.555535008700954 18.135971198652324
Pb 12.044605659316957 8.57132093907653 14.954958765661623
Pb 11.93372098315127 15.518737453959112 18.911540846510317
Pb 16.611203681769684 15.268642129012706 10.367468548318287
Pb 11.076318743495236 11.371363801832045 13.600470295190911
Pb 17.271492223754677 20.474510431738054 17.86556793694925
Pb 16.229666561759423 21.410403462952022 12.670853506376133
Pb 17.823692354625113 15.83057393206009 13.554536831366125
Pb 14.2310911219485 17.15731430116203 8.92377488376012
Pb 18.897048960532835 18.20016420395184 16.095348995620988
Pb 14.161204940552858 16.61513851719522 12.386415038215524
Pb 13.269868240976777 19.53239627994196 11.04628771196308
Pb 10.560024313908327 10.704381460368353 16.998255553513747
Pb 10.838728462521521 14.891860388733159 13.232834339711262
Pb 15.124032563526622 7.785329907320695 14.396391940888075
Pb 17.485714056664 9.549954120653027 13.017510978347332
Pb 18.2815954852582 15.296020879124017 17.43402242448703
Pb 9.755517876207648 16.00679390763546 16.405973054922097
