47
Energy = -155.88830866 eV
Pb 20.65960937770614 12.563265614710138 15.925202169050607
Pb 19.67419920026004 15.740086639265128 16.391125683815122
Pb 20.972071497426032 14.763019903770779 13.621787318635818
Pb 18.400531632952212 16.966235187165264 13.345954336043267
Pb 18.003571444566393 13.015112970162244 17.676963342747502
Pb 19.977638512008568 11.823285825621806 12.820466956754137
Pb 16.020316444761324 19.341275610917787 12.865524524110368
Pb 17.86662526181824 10.779049400810647 15.179988004867889
Pb 17.782492468355255 13.865274709514095 14.204436042715212
Pb 17.7138871793547 18.077942145678715 10.266015021765115
Pb 17.029602479949446 16.089312313667968 18.252749890136602
Pb 16.84058261076138 18.29068713478625 15.929474131050661
Pb 18.257982597703773 14.427126050481208 10.731816354105574
Pb 16.534685540258174 15.888409673812335 8.34337256028934
Pb 16.94160808003379 11.334520036003447 11.948513574664009
Pb 14.548930339208187 18.742123827695654 9.743082760269159
Pb 13.180982828708064 13.714057778404202 18.96222731906813
Pb 13.79388103120398 16.699332318579618 14.311783804152968
Pb 13.747105712772505 19.6522762461801 15.563502574325845
Pb 14.679409547507651 11.051315945157674 17.574498663606658
Pb 14.043022275947221 17.0482504705855 17.71327894429175
Pb 15.324718433400392 16.00202760954543 11.48657075289889
Pb 15.150614938147292 14.192613973041995 16.294140157305012
Pb 12.94334212936839 20.15726500837156 12.40676072427645
Pb 13.351485355890283 15.853206235857543 8.613405260485584
Pb 14.137000983948798 13.132638080349704 13.074069274444168
Pb 11.240383971757893 15.888112783867182 16.62661819707956
Pb 15.286883280733637 13.15645535843357 9.598531230308133
Pb 11.763824861886972 10.850203406647104 19.157846503283086
Pb 11.805316191533263 17.349545363048257 11.180740516709339
Pb 11.973643962194533 12.538242359774484 16.082778582434827
Pb 10.9591205884818 18.42227374900163 14.219980532947892
Pb 9.955651159971536 13.577427529189169 18.653199623844387
Pb 14.601520277261129 10.102626294824319 14.162348748187924
Pb 13.517072378916547 10.462631624103173 11.044084899145309
Pb 10.9303041671221 15.055873610155837 13.44265466245829
Pb 12.153160872698747 9.205992736131112 16.416715313563525
Pb 11.948300458236666 13.563077592115748 10.738574564778396
Pb 10.8772701116912 11.087165076422183 13.200343473079446
Pb 8.652832624926933 13.764279461225975 15.594871542598543
Pb 9.214587866009076 10.728265487986189 17.04037134110525
Pb 11.276775746294712 8.155820591122504 11.781971266422165
Pb 9.45288980598183 8.390080882719111 14.505421311473667
Pb 10.51510200820542 10.665027579108582 9.794894256829629
Pb 8.57011596912837 12.698496016470683 11.542052789145606
Pb 7.467091949296835 11.055618764757286 14.206964686365435
Pb 8.245288054718651 9.369055940479576 11.589593892222577
