47
Energy = -154.4432352 eV
Pb 17.281142011729674 10.063619810302402 11.870425302947679
Pb 19.49737728910141 12.652262742568166 14.894524596171063
Pb 16.61834510102994 16.329312123933 18.82428656953405
Pb 18.97123140447503 15.327323099295484 16.596065640366128
Pb 18.904380126825068 13.979492456018114 19.450215274371008
Pb 19.35297168395563 12.673924603806787 11.70210768602039
Pb 16.893762436894075 13.467710732102454 9.807608045336304
Pb 19.110976308595724 15.760149754403677 10.107286202378054
Pb 17.56842951440394 10.245234607720638 15.1241687114316
Pb 17.755686864872942 18.170156729922194 11.96727497424437
Pb 17.002484746342766 17.720639154895064 15.586358244550642
Pb 17.59933677563654 11.095515678225302 19.858743595351157
Pb 16.07445897040693 13.737616065277571 20.96631787663187
Pb 16.251175592505454 12.840029215132143 13.367080986060992
Pb 16.092734560999062 16.668232208587828 9.477172763203038
Pb 13.385475521388322 9.785809343526553 16.18754184106524
Pb 13.553834324600967 14.558544906834443 10.396721796393276
Pb 16.180527996989603 9.2515918895484 17.732650539808727
Pb 14.517044898204906 19.375041623026146 14.105552487299272
Pb 13.688541122254312 14.820219956540809 19.124827207826495
Pb 14.295414617564308 18.514314504794285 17.447920603350383
Pb 16.443409774526863 12.9311211662622 17.35382383136017
Pb 18.40901385331929 15.335934699832999 13.322324266386106
Pb 11.718623828583873 20.00010845896023 15.813169197713835
Pb 14.329988420707263 11.437978025017433 19.479377057653327
Pb 11.87749140975223 20.38876798250341 12.398192168904004
Pb 14.795202630726768 8.3573367839985 10.859005110546661
Pb 15.283692948139057 8.267679346320284 14.048366493905638
Pb 14.929225774423806 19.41449800291158 10.871937360499539
Pb 14.465267574910289 15.595730673506985 15.950806551534669
Pb 10.251428817284863 10.8455011702713 15.350964972808459
Pb 11.909539951578743 17.002976608471524 13.907372045082107
Pb 9.156837248621644 20.75850596020341 14.043425730813984
Pb 11.55493289546167 16.862183964572047 17.192721337373868
Pb 12.611712020909058 12.84585978525431 16.728166231744225
Pb 12.282658639047861 17.664248184336753 10.587340054362533
Pb 12.816778065728721 13.024675101752091 13.439559299152325
Pb 12.62874085024018 9.685560259121269 12.94153061012151
Pb 15.00502179140338 16.4133865601857 12.682584101736449
Pb 14.375486590498229 11.448954585278138 10.630649054628604
Pb 9.395142778651742 18.12606230570534 12.086150336819388
Pb 10.019709608471619 14.204569568948763 15.130576952892644
Pb 9.109901651807816 17.889609613113127 15.349265652242801
Pb 10.418709077823722 14.65746177773443 11.895389339538166
Pb 8.478269799608977 12.243214696896036 13.028689528193064
Pb 10.843763547675918 11.577501081141945 10.890001449206924
Pb 9.53866200513878 9.228375855059113 12.668303744258086
