49
Energy = -162.10731988 eV
Pb 9.684085694248981 15.305318076523683 9.585488478776622
Pb 11.558687196415544 18.911084898944814 11.710338335894209
Pb 8.810921173175325 17.084079904480845 12.11450530438199
Pb 7.627422777461714 12.971703921178236 10.97134793251757
Pb 12.601375239716297 17.158926639804527 9.090148201087946
Pb 9.558108672667327 12.275530096196208 8.277759157265736
Pb 12.66943986855215 13.903090738247162 9.03474263971255
Pb 8.30107066993361 9.916813530748684 10.160386870514644
Pb 12.025184011048818 15.690038130065206 11.97641173356109
Pb 10.643706698555194 17.662087625281956 14.808148175797568
Pb 8.325935515506165 10.543235595501155 13.388518887849619
Pb 9.488544134305688 14.02048758365244 13.594945427661163
Pb 14.835128722949705 18.523205046922136 11.087426746669479
Pb 10.896824244226119 12.101629456479913 11.198848081132095
Pb 11.382503691730461 9.592095805540167 9.150666341317374
Pb 15.509018646122977 15.410743821225951 9.924054061941888
Pb 14.212661581752116 13.152155436643122 12.038529825779749
Pb 18.090582483102583 17.058310028383367 10.979364000297435
Pb 10.20330866713456 14.886676640932654 16.721257964961644
Pb 10.609409597098272 8.427178258360344 12.136316161931619
Pb 17.13407053047848 19.160869675690577 13.262663362400227
Pb 13.109224762959391 15.610171765165543 15.38790462572407
Pb 7.755836161007646 16.37658437930653 15.010568831134407
Pb 13.945177423480207 18.775342869517548 14.2647676927332
Pb 15.776780591864943 16.024692483853173 13.199900512779394
Pb 17.3003901675789 18.30952614366523 16.42176522420342
Pb 13.680925941537568 9.881354286666847 11.528138506947132
Pb 9.517192080787634 11.697237198392777 16.293322048784564
Pb 11.856623964108731 11.133568716627357 14.146620846613303
Pb 16.879565891150584 11.447908147532 11.142828655638985
Pb 14.525584151944583 17.615487179026207 17.701526690994626
Pb 13.751003998801904 12.607053779276848 16.4251375098817
Pb 19.092962631116787 16.602164340471 14.054157994846813
Pb 10.006898239670091 8.448635329649429 15.371529868645117
Pb 13.471119645332275 14.853675335595065 18.77738744145183
Pb 18.940730155636945 13.962383322114041 11.865878368909701
Pb 16.366520147998596 15.00323401098745 16.484318627231378
Pb 16.677288458305824 9.216399364652023 13.56736877607381
Pb 16.747195882304545 12.459911914781925 14.296003403567726
Pb 13.274297052333198 8.21786131300655 14.505970144634983
Pb 12.221452639448186 9.810054612076646 17.17060824295324
Pb 19.479892901540488 16.09187753085114 17.293502474976417
Pb 16.6723745462838 15.619379478689158 19.611384687376404
Pb 15.598327191433219 9.935042316012657 16.60558815564414
Pb 15.704595710943755 12.486253579519833 19.03730941508975
Pb 19.499962804773183 10.921588766541726 12.911982743688535
Pb 20.0018091869633 13.443033613938448 15.081621452749008
Pb 18.687646454864147 13.15793043223884 18.181801475561773
Pb 18.806358320726908 10.477047011085885 15.99751542840974
