40
Energy = -131.80216247 eV
Pb 18.15777681943951 11.49240431716795 10.904855408113237
Pb 19.171162456399582 10.365843678840259 13.695493088316292
Pb 16.096374803336612 12.369116280521785 8.598001090292819
Pb 14.809134357681565 15.264282051425264 8.022184006058469
Pb 17.59563740758999 14.888338577870092 9.984828418540415
Pb 19.043807181362375 13.638272112889945 13.204221478802717
Pb 16.509282053742233 9.022204235642892 12.522267390408787
Pb 13.885493415999862 10.701195537664313 11.475353931573123
Pb 18.567693973141836 12.325674921031723 16.221064694103728
Pb 12.948729198483102 12.680915306621646 8.862772165118091
Pb 14.932465183547553 17.209927259975146 10.63895779237058
Pb 16.746179486139035 9.55151391609759 15.764339854135299
Pb 14.848152706616874 13.87392667159216 11.297035940596384
Pb 13.609694136001997 9.068685910174738 14.496147078758234
Pb 16.850850499036376 16.1345948541565 13.211947704246024
Pb 10.867829476867655 10.071552931774013 12.717837462579864
Pb 10.312440990000269 13.492904284816474 12.029942905891136
Pb 12.082428027487113 15.649246639465257 9.784378956881174
Pb 18.13669066085626 15.60456801182761 16.320645757069364
Pb 16.150278402244208 12.087471205206295 13.91652880920292
Pb 12.387857367080281 12.263342180401146 14.695779203718825
Pb 8.84094844156866 11.829102053764984 14.764697036226854
Pb 12.075058242215608 18.581016722892237 11.47375842872738
Pb 7.463349873630813 14.475258633317221 13.382464474366758
Pb 14.950371913048354 15.088929658195406 15.556948588163063
Pb 15.904939957991072 18.127955839629454 17.076311920502775
Pb 12.600431180015471 15.723768331554027 13.152246779087374
Pb 9.316744067798833 16.761954045791843 12.04472361341514
Pb 10.709005737971284 9.38140680930323 15.883965233457339
Pb 14.43541321444335 18.279356350422425 14.135557500287096
Pb 13.403235584686476 10.470994514766446 17.368131174908974
Pb 16.344259345969803 13.713341229016534 18.440697168713942
Pb 10.821234862199013 18.442359383644575 14.442577573671084
Pb 17.69158858225834 16.56856401971631 19.28321209055883
Pb 10.114188623878174 14.99522549241128 15.210760948336526
Pb 13.104104232660319 14.033446236751715 17.931394084573277
Pb 14.617312841386292 16.437886545833923 19.600612531188634
Pb 7.845206145425794 17.288890201282925 14.83984080102426
Pb 12.793292433726748 17.150658009837837 16.916258754281483
Pb 10.519518254511665 12.118332301928469 17.534433193778145
