45
Energy = -148.56832589 eV
Pb 17.943037831543677 10.54084942813176 17.42849389126611
Pb 16.22488278528025 10.853443843546454 14.024230149536132
Pb 15.978875771485741 8.032164697787326 16.56610601621315
Pb 15.95155296324882 9.218551756249765 19.614704962452198
Pb 13.034744659459454 10.132385315033135 11.595008096298269
Pb 17.577401440444792 13.348656163564689 15.896451416627853
Pb 13.149313315780878 8.1938247520969 18.194406063659745
Pb 16.154719704951642 12.506374710854711 19.414115941083153
Pb 16.115292690281297 11.642495298468683 10.813671835896987
Pb 15.694041738634775 14.14045813635034 13.254409858921843
Pb 13.145628840692419 8.77773579405096 14.91712226174215
Pb 11.3728354814517 13.585014504064624 18.831820711394702
Pb 14.08571915285411 17.812744566676532 17.027822518391158
Pb 10.13588651937894 13.60143379632168 15.66192421042523
Pb 10.185581232091659 10.771642669058952 13.075556005636717
Pb 11.214799612477604 10.556532180164721 16.857687914552297
Pb 10.389022998145723 11.543243859905708 9.980344832206287
Pb 16.652928871833822 16.366084059712147 15.840996519275471
Pb 10.086608100693162 14.76294479947064 9.40634147306765
Pb 13.101268144705394 10.992306763856162 19.906730630840997
Pb 11.102465600175707 16.556210026257816 17.29433644385147
Pb 12.942466049611145 12.127673309652398 14.20738986883569
Pb 12.372787641995895 15.465300746025479 14.156175074580437
Pb 13.164998254908072 11.063921032002629 8.529852792110322
Pb 10.124270441797805 17.27472537762504 11.46401507382745
Pb 9.510892394280175 14.015491097638812 12.483651105349159
Pb 12.713525322900583 14.453081394343126 7.581690165383964
Pb 12.076220415757945 17.603159989295204 8.76064056985806
Pb 9.352158066207247 16.78096285847566 14.537881899172994
Pb 14.609278383096441 11.04858776522649 16.967057649319194
Pb 14.046227240379583 14.416094334116885 16.94417565692701
Pb 15.59880409802331 13.268189881704538 8.130772947524177
Pb 13.271558739756744 16.021981955884023 19.716519572533944
Pb 13.063649351137311 13.554900559062903 10.732723408405795
Pb 13.84268799630326 16.924070495915522 11.471148598401404
Pb 12.044729308578697 19.86223942227169 11.256388196710134
Pb 18.6793925850893 12.800798954204641 12.689929127092865
Pb 12.022291243552612 18.67934085769417 14.431074920979801
Pb 15.347134268563464 16.580603515136534 8.347882881695893
Pb 14.7202540983521 19.57257349124191 9.508155747826189
Pb 16.267854124640504 15.825564028369733 18.98451740444069
Pb 18.509229578826687 15.923949672377873 13.18982479427038
Pb 17.68111355837952 14.71168291194269 10.202820487210866
Pb 17.09712673130721 17.89797776949472 11.009096745610407
Pb 14.907229476946236 19.62958755162938 12.770509408719372
