45
Energy = -148.90764748 eV
Pb 15.271129243094219 15.286639359451447 7.556890466479042
Pb 16.699884991431002 17.81876271425624 9.101288964096062
Pb 13.571968467220781 18.03345339836484 8.146116097989863
Pb 16.9321457279305 12.85187252548632 9.760215915072488
Pb 18.592073893781816 15.36845137258782 10.791918106499494
Pb 11.947993571882055 15.263485117630683 8.213920602272754
Pb 13.77482744418124 12.429527208026741 9.227126055552072
Pb 14.371659954385274 8.933796838364975 10.290330192989012
Pb 17.657641493274596 9.98308893637041 11.020594161931571
Pb 10.37798150289994 12.673879766211087 9.42569277353754
Pb 19.438784289250957 12.714095164280245 12.564316810400577
Pb 14.955130587780797 15.5004661142317 10.660540400413757
Pb 16.974945034153112 17.666552488286612 12.504544946092821
Pb 14.46881355610343 19.260298357573426 11.020349413782887
Pb 11.726562531277333 17.551920962493814 10.884172173168226
Pb 14.991194630811966 11.325410713954541 12.416977903541532
Pb 9.394439540982026 15.283222779937946 10.807687139140887
Pb 16.573233081890784 14.055266858590928 13.531516254223714
Pb 11.618928037876604 10.485224864035718 11.375051654461595
Pb 12.198811749355341 13.918187807066229 12.015669909114433
Pb 16.014526299218495 7.996818519480223 12.879072535096736
Pb 17.798444143600538 10.471835998068268 14.440809816188585
Pb 19.31898807151154 15.747171781075453 13.995468235838603
Pb 9.269151994123611 12.71671047411853 13.224446628226575
Pb 10.370415524999537 16.003249653311855 13.974314071201377
Pb 13.8581977010683 16.873398281618837 13.286257240572832
Pb 19.058723212677904 13.133760020121532 15.901706920829831
Pb 13.803851302437032 14.252804899858923 15.504640339906981
Pb 7.398971101631374 15.011567555191741 15.237337208125771
Pb 14.869186802973742 9.314683847549373 15.75621693330715
Pb 12.894349241115528 8.282734775955603 13.273050114484299
Pb 7.168667664507503 11.910585758334081 16.13139987211078
Pb 16.86634373228865 15.492593544582366 16.47407938234726
Pb 12.371427988699974 11.40928242436207 14.64780360529308
Pb 16.122714082193507 12.26865709696102 16.92117804652292
Pb 10.282414527571833 13.619721706136465 16.299378668554265
Pb 9.20864623916763 16.663297692263896 17.382343284236676
Pb 12.39337749758847 16.6179636463628 17.195088786034706
Pb 9.518702207903777 9.968783086468207 15.27751405331647
Pb 7.55531737725684 14.125375147421394 18.459360302299988
Pb 11.862956583475322 9.21289844988975 17.207957981080234
Pb 14.304549715437249 14.66718133623403 18.79350927242148
Pb 9.412129169776664 11.322433993129389 18.56420086668455
Pb 12.812895810965621 12.032505724868884 18.166159394014674
Pb 10.758808562171641 14.526563092379615 19.464291710553546
