49
Energy = -161.95626079 eV
Pb 20.618655041489244 14.421962815368392 16.022110723523024
Pb 20.070884764453655 13.32898643521966 13.036908882398697
Pb 19.51461421295612 16.64364681366029 13.815078763597898
Pb 19.374500802969155 11.418289150561744 15.781354295227171
Pb 17.346874656344777 16.262179325110274 11.195353122468228
Pb 19.020490924399258 10.274734082201451 12.718893061851505
Pb 17.758453566130598 19.317362761234435 12.21285852450728
Pb 18.385171342961304 16.72532099675563 16.87894532796784
Pb 18.250306412880235 13.483237628868228 18.067612946559763
Pb 16.86587375309429 8.865470978318761 14.587709628082667
Pb 17.372337183148897 14.038496911404714 14.776376095267906
Pb 17.287704894388575 12.799089261218912 11.259042531330984
Pb 16.413851189494544 20.400351128479404 14.825069496802913
Pb 16.20900246685422 10.780934915174935 17.294775133473703
Pb 16.21057338483921 17.17940820408926 14.342927099574553
Pb 16.20765205575226 9.535990966354 11.287102832063285
Pb 15.878179833629963 18.776048769971386 9.666696918510159
Pb 14.407598070738503 7.330782884971205 13.146336240671772
Pb 15.466023343698641 18.822773509545605 17.515037509665092
Pb 15.805971355469039 15.775044189705232 18.99873544225784
Pb 15.513157407715696 12.62509546365604 19.848191540351824
Pb 13.27718227412826 16.66007476762467 16.42940346091326
Pb 14.410398375988782 13.487638848660877 16.635393330419774
Pb 14.422515575707182 20.46568011200936 12.173230393909307
Pb 13.018483003695755 10.983541804776866 18.433013569861565
Pb 12.962292235870164 17.543978627971963 13.209163447386056
Pb 14.795440117261538 14.600706449539828 12.532226805886987
Pb 14.058462366843115 10.834873326968841 13.619923465392567
Pb 13.765215872201576 8.53490926685601 16.13061797189629
Pb 12.501710730456706 18.584310663960103 10.08406524198748
Pb 14.171322713619748 12.105765541151735 10.359865487190971
Pb 12.78720733406213 14.45060004685376 19.49226240658157
Pb 14.639672166891437 15.88246907224834 9.37523187198655
Pb 13.046301053612554 9.090261024084018 10.807552009431486
Pb 13.106916844188119 20.328283899113096 15.293366533220677
Pb 10.56498089279425 16.411655534516207 18.143756360162385
Pb 11.906382030174834 13.723165266134805 14.129350443915822
Pb 11.398092186222428 8.655652575595798 13.607696227040659
Pb 13.222009677643323 17.77674083202204 19.478692026443
Pb 11.910366182599773 15.179583061083838 10.821816476082985
Pb 10.703037061243911 12.925834454304258 17.227919754940338
Pb 11.21295135854035 20.43111418645567 12.550143040555456
Pb 10.750032518562463 9.620613093262438 16.578870231959055
Pb 9.326049004980712 15.227092592519396 15.301063975170674
Pb 9.837540537520796 17.55214203562772 12.162202682423787
Pb 10.486000898250397 18.457377021686547 15.243833166817689
Pb 11.08619683356799 11.53510353693103 11.811333445715078
Pb 9.239138490384532 11.661759142931142 14.556181879064502
Pb 9.190215408946628 14.257856432607706 12.3086985868567
