47
Energy = -155.23485039 eV
Pb 8.449117500720973 18.607982487689597 11.545514920849456
Pb 9.374919441356777 15.744916561939329 9.854641837728808
Pb 7.2125209059512665 15.8552316960173 12.5196379393366
Pb 11.263945197265754 18.461554623655505 10.120982806634498
Pb 8.642305644412119 17.858159939839144 14.779275436225973
Pb 11.085868279644913 19.59828395842223 13.263723702808926
Pb 9.105592700400894 13.21211814608722 12.546628194332765
Pb 13.094827638220819 15.819075284629246 9.884050593214248
Pb 10.80174900249576 16.26021593365814 12.63569640691006
Pb 7.9043905063297215 14.487744198656012 15.494545536470106
Pb 11.898673305437919 12.859237173920558 10.608134420100233
Pb 13.958300368119376 18.13519073640159 12.25719644929549
Pb 10.02437204388603 16.25526118161651 17.293443158114428
Pb 9.180214146981344 11.391864934454583 15.412262195968365
Pb 11.304559618873283 14.058762734925134 15.230182995240162
Pb 16.415059351449678 16.016303481957415 11.171392742578613
Pb 15.382323794073203 13.040747672803008 9.964707938830907
Pb 12.724694814634855 17.30314581607903 15.257787082173166
Pb 13.85088451287284 14.374801499894494 12.749161779885451
Pb 17.34978645600697 18.889024722206475 12.996564666217548
Pb 11.781181387680617 11.18581016526087 13.39561503062773
Pb 9.684522444534467 13.10818259276947 18.062098083356616
Pb 15.390931176424974 19.346106662967326 15.41706797935487
Pb 12.352335785284902 11.390908859198191 16.85124685472279
Pb 12.726350497439935 14.409855911710654 18.407576482207514
Pb 15.943148230835662 16.25497873360037 14.487693697989982
Pb 14.494087344622326 10.131540871196668 11.301233327341663
Pb 18.429770991991003 18.001631650671737 16.080386650615388
Pb 15.391204927814973 16.951902978668922 17.744407439317854
Pb 19.569314828751477 16.529092618131436 13.223214488066912
Pb 18.749275209002413 13.61776451948154 11.434721923128292
Pb 15.513877252070186 13.46002917501584 16.9216261619403
Pb 17.52242873375548 10.644350463215162 10.346026312768437
Pb 14.341713118965332 9.585736781657861 14.60655365515154
Pb 15.76060608087863 14.60798603899603 20.15000107234193
Pb 16.352913425976826 12.055856644823148 13.341168341085615
Pb 18.35390840107296 14.049731723167717 15.164119674803535
Pb 14.412489900394021 11.826732205167787 19.67150871471438
Pb 18.425923615010063 15.409935293770303 18.357554397435145
Pb 21.06851273330368 16.001137535451512 16.163572024397663
Pb 17.01260154004915 8.797227319456711 12.96380372463531
Pb 21.227552397296716 13.70928056160022 13.83484753724714
Pb 19.555739048187107 10.782601731065148 12.895115246124503
Pb 15.949757821071378 10.09789054183216 17.44986365440616
Pb 17.794244085082255 12.199371677761519 19.140241690110663
Pb 18.803777605760846 10.694316763621257 16.046114864656325
Pb 20.674896085454307 13.02219814062434 17.23287407484952
