40
Energy = -132.18408436 eV
Pb 11.06648603796874 16.90471401006936 16.656936227046963
Pb 16.544378068456638 14.421562052666356 18.982253529033958
Pb 13.457215686024163 15.528230780031052 18.53937342853037
Pb 8.257012065899623 15.02074770311384 17.21292286227611
Pb 10.9648045595752 13.609721047158175 18.190290985529327
Pb 15.693747521647998 17.274281148035136 16.81899768537268
Pb 8.275956407272183 17.12639423681112 14.798135892076372
Pb 14.095499531460273 12.295906191098252 18.470914521445376
Pb 11.095796142384975 17.54839957684431 13.34652636459099
Pb 13.683070996006842 15.935809965480345 14.539968833216507
Pb 15.301619329712544 18.883198574146263 13.849061593419977
Pb 17.23824321788495 11.368409948613268 17.894272122945107
Pb 18.66368020612602 15.891234825671173 17.009598806513413
Pb 10.378652056065592 14.238669730471043 14.568301123670008
Pb 11.65689421226175 10.56169984390108 17.099616506765084
Pb 16.17889343455797 13.603010244950585 15.862548758950837
Pb 18.286081506647477 18.582747731981264 15.236476710789084
Pb 6.8341365863459975 14.268594385695437 14.333867719113883
Pb 8.487097046687522 11.872442340862825 16.002525936854656
Pb 13.190717577594745 12.515055569349697 14.781187834557011
Pb 19.58968375383116 13.564337504297264 15.1085077245324
Pb 20.140066175422906 16.043515776223725 12.915547608416858
Pb 18.061591674133723 18.50576462684987 12.002044247738286
Pb 17.082394236113775 15.905573363492099 13.735815172500986
Pb 14.905539617465996 9.969030710888854 16.099832148262006
Pb 8.877957701344505 15.434689849732672 11.96994084789293
Pb 10.786385677432119 10.303266966792034 14.076305493228631
Pb 8.532103937180231 12.125284493323546 12.637755429617567
Pb 15.064303630652232 17.314764569942977 11.050404499739063
Pb 11.98274328769496 12.014053912158113 11.694687027659265
Pb 12.419222970347251 15.12575715026627 11.412775718429007
Pb 15.739107594651216 13.33589621077581 12.046664833046112
Pb 17.710706886193847 10.917811228313486 14.452424255658716
Pb 18.139807735094973 15.790839971320251 10.128843493295777
Pb 19.281686182157625 13.01411400410725 11.863801223168844
Pb 14.499010128559416 10.072421798393108 12.85422263513022
Pb 14.971027069665528 14.767835543526997 9.082296602786183
Pb 17.268372107402147 10.391332911442712 11.159269271053212
Pb 14.59812022871525 11.548971600160057 9.608101339752519
Pb 17.546238702066635 12.784084896781078 9.036449808319825
