43
Energy = -141.16131061 eV
Pb 19.329759799359863 13.740276021564409 10.460097812619809
Pb 18.497677743893878 16.6906445065866 9.469681635915183
Pb 18.487040633062847 11.719692636993338 8.030051329755544
Pb 16.60491748530631 14.184186130105834 8.354271186140203
Pb 17.384943310665015 19.100030792098906 11.40683668395016
Pb 17.81147054972082 16.079458597814064 12.662087082245062
Pb 18.55283676630878 12.87317634887925 13.563818599528561
Pb 18.3512139566819 10.565674015521452 10.971546438339052
Pb 16.829076540793316 18.51053583219584 14.598322831586643
Pb 15.816430124625384 13.563999309781146 11.82046830733474
Pb 15.515681151705337 10.978414146329534 9.241247954468125
Pb 15.359714618197065 16.6498286347808 10.438949936406026
Pb 13.519571793744257 13.827083864824349 9.503174898187327
Pb 14.291736729542608 19.053011903631052 12.445206490144134
Pb 17.022945984517815 14.744512263922141 16.016031464447238
Pb 14.455195246412979 16.148935300710512 14.13476079306133
Pb 18.198249840645317 9.75516287517814 14.168062108023376
Pb 14.980585720940175 12.404147672397418 15.06652570296653
Pb 17.57206256978105 11.460980784304983 16.895251509500053
Pb 15.474052580388522 10.252656830772064 12.46009821134159
Pb 15.005359023004925 16.96498921781835 17.604483884921688
Pb 13.853054947319006 19.263594008756968 15.653396702086646
Pb 15.488400720312594 10.128318418717658 18.947256701938088
Pb 15.328464912930208 9.197216274621804 15.834568647842609
Pb 12.137143835945997 16.437484687193237 11.383864056623514
Pb 12.479551697635989 11.004737464282329 10.915958217643311
Pb 12.339638129383182 13.536961416724457 13.050352743394813
Pb 11.272604200236058 17.67986615190986 14.281424743102527
Pb 12.302694705784539 10.359130554047503 14.170421156240923
Pb 11.593163590461874 17.796515661212908 17.663327217298065
Pb 12.986540082148426 15.655783673506178 19.808199526405662
Pb 12.658464255400716 14.661416305991406 16.63701608268054
Pb 15.102928634239243 13.278502271244783 18.668106782856594
Pb 10.313378369534423 13.576783926931723 10.379422413396894
Pb 12.87766949450508 10.950180364698749 17.475156479605143
Pb 9.225527029126344 15.123789976206266 13.014741298853231
Pb 9.248084866941584 11.759693651944731 12.793925155212147
Pb 9.071794195592224 16.04511741765548 16.224842260672695
Pb 10.299390229200846 12.603925189368114 15.856436391962946
Pb 9.725038161527806 15.799623180771148 19.47258039449989
Pb 11.197493330202487 12.938284301973948 19.36405811319398
Pb 7.283973289700584 13.479178041503236 14.952348221587183
Pb 8.110201079451642 13.412221301406248 18.097343758899818
