41
Energy = -135.51687925 eV
Pb 11.818009843280477 8.139463598271638 17.723693163808246
Pb 14.729864859529354 9.622946341663788 17.711696624686404
Pb 12.085227744782504 10.818971538047258 19.378235748688756
Pb 13.712708435023542 7.910661171931315 15.035539864083699
Pb 14.353277247257086 13.032786654106001 18.52419010850131
Pb 9.632225414606301 10.70527447310079 17.222172434412137
Pb 10.419170884608256 8.35103750072304 14.879819732763188
Pb 12.504938547038206 10.979648816581156 15.785804435830594
Pb 16.79883434830952 12.639598384847087 15.443690455347609
Pb 13.247376666278244 16.15839263086309 18.60252769692132
Pb 16.567843838659567 9.579412969064073 14.803984114590293
Pb 11.028806167658828 13.814372517208186 18.23388758544339
Pb 13.121741134389431 14.326945657045812 15.636592349029765
Pb 16.026958554025732 15.4383993487673 16.99283939502538
Pb 12.130219554678526 9.733626108477338 12.389770486474394
Pb 9.115039454001886 11.073403989477004 13.750858480567576
Pb 15.340549780408352 9.188791028315999 11.909365392132585
Pb 15.82441614965807 15.35590464316372 13.518729296937158
Pb 9.26994484156633 14.082620688202887 14.913272477649473
Pb 17.909107244541367 11.27453863982679 12.20746864776712
Pb 18.993020559072082 13.968128017461439 13.563558525696655
Pb 14.590834287778636 12.17858553509254 12.985778746081074
Pb 9.655661318616938 11.17714072635204 10.50200590243302
Pb 10.915748267508354 16.635313079236795 16.373157469315373
Pb 12.524996217364265 12.340565492585496 9.565056003685722
Pb 7.7890157515701945 13.418785462270206 11.917905000837314
Pb 11.335851895965934 13.469071378350774 12.481101505101567
Pb 13.95643259462801 17.532899790192744 15.752593311501464
Pb 15.771849758314552 11.856655407562082 9.884777495040048
Pb 18.41598085715359 16.747903826233745 12.366809288302003
Pb 18.189434412097135 14.110229025475714 10.322115469871319
Pb 9.39174506254174 16.24281481098628 12.173732562694127
Pb 14.047209484024423 15.225348908384866 10.463207906512244
Pb 9.666867517832388 14.322491103345412 9.44850036413592
Pb 12.496696014472308 16.76184305308606 12.856468177307475
Pb 12.439957327972293 14.846656504497593 7.520328757711779
Pb 15.889075052528689 14.695044488176082 7.893913738144563
Pb 13.905527026643837 18.758628613068677 10.728735056607313
Pb 11.366314834331838 17.32272005731096 9.48261347131517
Pb 16.653694523836 17.25515402503464 9.752430728800976
Pb 14.208180641823397 17.54712541332074 7.724691810164368
