48
Energy = -158.90790259 eV
Pb 20.19288407283391 17.20193204205285 16.569133429715002
Pb 19.869515805334355 16.642818596628373 13.258297097722565
Pb 19.440103534251435 13.005274788036036 11.975899386664336
Pb 20.020482277748236 14.109695460824463 15.414282006256176
Pb 17.151999128397698 18.292468561386396 17.565248621186647
Pb 18.72552071138556 19.337481648301583 14.77909859212208
Pb 18.25489319717719 15.22063414734796 18.357120839442075
Pb 19.025830411326236 11.014781167762786 14.49643340242522
Pb 17.899915708107432 10.094992513041309 11.716435094654598
Pb 17.24845959688746 16.141945531012446 15.124597278449388
Pb 17.540841544154173 15.259844548140844 10.641464697977245
Pb 17.153307078913826 12.191553594035279 9.22855461102176
Pb 17.357810330783067 12.496643798154178 16.712630591290694
Pb 15.041855143820838 15.976455582138579 18.900890735635503
Pb 17.11913752107176 18.24402316905104 12.126321043616334
Pb 16.48497825407155 12.905878911559745 13.38961191337162
Pb 15.472715646625904 19.252879561039922 14.728014524518924
Pb 13.982012433673832 10.98979669196945 17.04353186992375
Pb 15.354968214433926 9.644877739327947 14.076734354347833
Pb 14.48568104843218 14.133850443775973 16.221536612504316
Pb 15.55440654562031 12.90701094378269 19.331277141024813
Pb 14.779108221667613 10.379399253239697 10.620372423296054
Pb 14.439901935277083 16.334271134267738 13.26262458064356
Pb 14.489839893610423 13.8480084467794 10.757667860759614
Pb 15.870117947390728 14.933324122535732 7.743249819876749
Pb 10.917470144086343 10.448859762196049 18.538855576797058
Pb 13.206157346668041 11.929053399167529 13.456998108123134
Pb 12.540604398820381 8.960710828913614 12.299751774014654
Pb 13.317444676522681 17.371719363400977 16.401690492234064
Pb 14.080425757875975 12.184605630497133 7.8606152615812555
Pb 11.727067443138155 8.94200931391916 15.614096001630674
Pb 11.716187401991643 15.936036715425542 11.298836595784344
Pb 12.377700460603178 13.397092358147127 18.85653606626443
Pb 11.9154130049359 18.602714151857853 13.31847681159578
Pb 11.278304513471303 15.499982737197502 14.6243763262646
Pb 10.912924524149144 12.292113155305028 15.753846548204915
Pb 14.6856036050204 17.203379871577553 9.755487172032868
Pb 11.601573044882596 12.038635618122303 10.713587582594027
Pb 12.687923986469487 15.0325557683144 8.287369496036792
Pb 9.931903649705168 18.357916509170767 15.814643148792012
Pb 8.709136945054555 9.70770158629935 16.386636391037367
Pb 9.725227384876098 10.296552687005851 13.304046474353456
Pb 8.712142578565425 12.998228884961204 17.884182748106713
Pb 9.171443357496695 14.04087916955353 12.54869642107339
Pb 10.484658126901703 15.919422924297557 17.86103350810313
Pb 8.945737426978102 17.301471435079225 12.864109151529563
Pb 8.038479733925083 15.614582456556612 15.624864211408559
Pb 7.557362893932156 12.371026421910127 14.889587990460152
