41
Energy = -134.80604711 eV
Pb 18.502851257277356 16.070390102223342 16.050370873414032
Pb 16.13804016716957 17.02409863772525 13.847718528806082
Pb 7.979827930856517 15.644558789303185 14.172191633111876
Pb 14.152811271480067 14.396017161918879 18.828254278994237
Pb 10.339258975836637 10.46654454692111 13.120635469750875
Pb 17.554882823155015 11.763727215767245 13.019511415148088
Pb 18.556833108616594 14.963384344601517 13.02686049523007
Pb 12.336901516403369 15.276351347100102 8.182405893579487
Pb 14.674782643225075 17.313520242491578 8.097581608626674
Pb 13.050543476413962 15.850063433135624 14.291178631500584
Pb 15.879775313717378 13.891155529055506 15.641611116987661
Pb 10.445672893716516 17.708044173236328 14.833927263700756
Pb 9.96470787273803 11.190030608938173 9.858110706234061
Pb 10.478362769956188 16.298931639659273 11.89419419731946
Pb 15.333051944570526 14.09294151932496 12.095446743408948
Pb 12.224861270350775 16.814411417107753 17.451476150362236
Pb 7.520238859400371 16.068812832132416 10.996318438512143
Pb 13.54493610384176 11.428243782646087 13.968257389669384
Pb 18.892430404530742 12.831834578939263 16.32553897664452
Pb 12.78405235813313 9.573395991560131 11.18817680008801
Pb 9.387473773485832 14.265665048449746 9.10737545525311
Pb 11.21626616894488 10.161209936037459 16.31416484595325
Pb 12.807925199280191 12.129813239379386 8.696865588079163
Pb 9.469068336323804 15.403503580396949 17.0200990921182
Pb 17.32769938335257 10.02143406782334 15.830909325999507
Pb 8.380474617243113 13.125468015728769 12.046175533745599
Pb 15.625687141185283 9.035073562057466 13.18780814255374
Pb 15.45627730546901 14.140866490889675 8.237588307543374
Pb 17.397800277309102 14.721782070135221 18.688657953087613
Pb 14.36739482025879 9.187933748193634 16.821550296925256
Pb 13.704268956390857 16.761576151321268 11.031080290064054
Pb 16.250144094635996 11.655674713416987 18.38105129487245
Pb 11.925465348060749 13.271318492698862 11.614009906359556
Pb 8.9341484413012 12.697551936732937 15.388586175059382
Pb 12.596401921203396 8.180896185534145 14.2011641339913
Pb 16.976541583712113 16.40019776347766 10.21690602212296
Pb 15.529228208003355 17.007160636410696 17.059560294527547
Pb 12.067174651067 13.498099600649558 16.292131755665146
Pb 12.917487919595581 11.452622076099805 18.703668912916875
Pb 18.006171472211392 13.389112289861398 10.143364805455118
Pb 15.542466296392815 11.066971377732983 10.367904133433168
