49
Energy = -162.34778536 eV
Pb 19.46989750602575 11.831004378370583 11.076367090356927
Pb 19.40453499548767 14.26322822508079 9.084275386086503
Pb 16.84591097023895 12.195405882928853 9.061933563232893
Pb 20.58304927931873 14.920910865749235 12.062362222500974
Pb 16.357799957799518 10.837557770308054 12.265915665945649
Pb 19.12422885993134 12.380689668578793 14.287616050099729
Pb 14.02499363525253 10.632729023837168 9.724686541766161
Pb 16.270579600019328 15.363215827118715 8.687156802309564
Pb 13.76620199909322 8.37513992030865 11.95933029810155
Pb 17.262514973155838 14.305944824186904 11.799760679705358
Pb 18.551444305357773 17.09728486684423 10.382249439521068
Pb 12.968225485544673 15.357535285679507 8.163892982620256
Pb 13.844722474875537 8.990605996294173 15.523432626334975
Pb 11.534026547415845 12.562879236280311 8.890969800295485
Pb 20.36656175845385 15.32471998662598 15.266295189597997
Pb 15.876531921050988 11.619430240801558 15.462910758460003
Pb 14.099806780776452 13.915776161998211 10.830948349091408
Pb 11.00623283014282 9.843450358282496 10.847910637997964
Pb 13.185859474907328 11.359946815825682 13.136648622187627
Pb 15.885404173112024 18.19507019115141 11.844511444752785
Pb 13.04686031011134 17.656460798855143 10.403287836859242
Pb 18.633972456898963 13.522750071744255 17.240463854027833
Pb 18.682330497513277 17.602907763712306 13.708699411965515
Pb 11.081272043307804 8.492721124623099 13.958592265206619
Pb 11.192798535324078 8.55116220881904 17.561610014107885
Pb 11.064098115796167 11.326400396812442 15.821123227233159
Pb 16.496455586561964 14.87038392106158 15.04925190708135
Pb 10.383501745399606 15.58241004340701 10.121937868033712
Pb 15.61324241222571 18.627596086927664 15.053748032647123
Pb 8.823367347843766 12.763494050103935 10.756775331414357
Pb 18.001868852703108 16.880327723038796 16.941944411151425
Pb 8.862203078141476 10.73821867019096 13.238430255589604
Pb 13.57156584500098 10.82339906192327 18.244164265001167
Pb 10.619736113974072 17.742020414374043 12.738469536362224
Pb 13.263960114808087 19.731006069527737 12.940739390924229
Pb 10.706723525918258 13.756722348811891 13.299700391913206
Pb 13.080448851002224 13.867404209811273 16.151874836291856
Pb 8.439787294500777 10.418065439370363 17.36776611333565
Pb 10.584802195148193 10.875022643998498 19.774065857109363
Pb 13.673219390205391 16.23017212257537 13.420732969229817
Pb 15.606505700226888 13.66508488126077 18.222034360412156
Pb 14.547413559643628 16.627097114099005 17.44983168005581
Pb 8.110664662531482 15.555528472596114 12.408344545602754
Pb 7.969946334991777 13.040383218602576 15.19864406424647
Pb 12.327887204016207 13.509998906261194 19.551290755846573
Pb 9.201589662793047 13.492531021591597 18.24125920737921
Pb 12.188197915344846 18.213868521638915 15.604947239032633
Pb 11.331927138280188 16.086714467636934 17.965291039566633
Pb 9.208208349787142 16.037644253509352 15.462822152700815
