45
Energy = -148.03317902 eV
Pb 15.405646372950212 15.739333175148703 13.083325010903511
Pb 17.623733161367827 15.7204692456788 10.492692418535627
Pb 11.604665491775357 16.188659453062705 17.617229836138815
Pb 16.950817488342906 15.435623220979183 18.46308326388271
Pb 18.111460194915658 9.817130095532995 16.265512991273877
Pb 12.303529174480563 9.063112513429564 12.579331673051314
Pb 19.22691693756466 15.06642389337224 16.021588534478855
Pb 14.946184287671453 17.816035548515234 10.465634597603222
Pb 11.217370551250369 19.609180618735124 16.267266619713645
Pb 9.034703801560836 16.425765318479918 12.549526061258055
Pb 10.55939350937377 11.743103863078671 12.075998184020062
Pb 14.48818569330921 14.528622021643677 9.957352574241735
Pb 12.149519058307074 17.349718391290057 13.890448663728357
Pb 15.664892235807272 7.751950058663112 16.873818095316057
Pb 12.50827945400863 16.791659094855405 8.766560926077949
Pb 16.790008585472325 12.858534427246118 15.314252357839749
Pb 18.41415820746133 17.148857515917896 13.536931785656577
Pb 11.030498131797446 18.463896801108127 10.996329349695818
Pb 13.872292842204692 18.416480515203755 18.07095735612128
Pb 11.577083986681966 14.847967868467713 11.26047777421828
Pb 12.951087131402828 9.312491584433788 17.595028138971536
Pb 16.2377582456021 12.93160354641487 20.512020418750858
Pb 13.477357364479369 12.622629017213141 16.579076086617935
Pb 18.56764355655698 12.449731072350653 18.209762023307132
Pb 9.3224420757997 19.531118804469507 13.549873809971723
Pb 14.765564431934216 10.002475209904718 14.87710449996487
Pb 18.02933265150713 18.88531969757956 10.953528770551843
Pb 13.941811879622101 14.876523066876407 19.505467545833014
Pb 16.646142435501478 18.11428942945659 16.184696327110373
Pb 16.66164575512068 12.328811390157755 10.730213733359863
Pb 9.196205040116322 16.98144057701657 15.611833183995776
Pb 13.049758286119417 11.163979343508428 10.075068172340009
Pb 16.070147736237434 10.07689674461484 18.966330796560293
Pb 15.31395086354828 9.542335290503706 11.675499744465222
Pb 11.13894774822981 14.165252457227243 14.645869993179556
Pb 13.69085370027513 12.548548275871905 12.922134034942955
Pb 15.684843328358744 19.202442921526245 13.155801947855492
Pb 12.359682816264318 20.60853800659341 13.082463606218058
Pb 13.30006007630586 11.718694588414774 19.657453986638373
Pb 14.338751461603223 20.47783585588355 15.691018055745815
Pb 14.466201840749855 15.682050470093568 16.27952421967785
Pb 11.171937830868197 10.746103780954039 15.120949799720899
Pb 20.24234659727394 12.120571188940556 15.35403632457444
Pb 19.13060083179707 13.873301606861585 12.865915697264182
Pb 18.213095458174063 10.70200074247603 13.09851931837829
