44
Energy = -145.12375394 eV
Pb 21.54701258074817 13.295734854214638 17.08947705511955
Pb 21.313092423282857 16.577144716445485 16.757643287192405
Pb 21.800758298229443 14.681677423704556 14.214534358053148
Pb 19.265694108521384 14.966240151763259 18.8095035721969
Pb 19.457415133889654 11.752213509120809 13.933932983770042
Pb 19.841709377681628 17.31345643034834 13.850890887155325
Pb 18.83076838771554 11.655341952716112 17.392042070774572
Pb 18.362480682407185 17.910833061392857 16.772712108750028
Pb 18.6614717700545 14.642999730388079 15.578576877978048
Pb 19.24555688276932 14.533092413020016 12.11847904823968
Pb 16.43616587294232 13.465011095650448 19.346721583312707
Pb 16.905530182350994 9.83868357011703 15.056706872360067
Pb 17.215976871380533 10.325678933496457 11.810272385986602
Pb 16.67314125863749 19.629784390770688 14.229273933982881
Pb 15.666810199421532 16.424972151628655 17.961366859368297
Pb 16.01141185776627 10.426712677742394 18.248403998171902
Pb 17.07495285787696 17.737889272367624 11.657190818438602
Pb 16.396822642868187 13.01032826042017 13.363431010818298
Pb 15.027557336994294 13.02783358247753 16.46047573738384
Pb 13.062052917882255 14.694104110663778 19.05560072032345
Pb 16.099856892733662 16.45580503863955 14.636374853812752
Pb 16.471029008565292 14.645852917069936 10.331509993522532
Pb 13.029251400207434 15.61431787487334 15.897968982786976
Pb 13.839225510517457 15.291903826110175 12.446845715703523
Pb 13.70324253340938 9.90656484609311 16.102290371571804
Pb 14.221421451438166 18.857786395345567 16.150992545149666
Pb 14.002548633282107 19.092376151334864 12.476017076802162
Pb 14.440569246935429 17.17834533147999 9.909815143853647
Pb 11.916477896637614 12.160632362558971 17.49925091521355
Pb 12.529915216366339 12.396828076747315 13.858661368184519
Pb 14.625668864380751 12.061161341897057 10.801754809397595
Pb 11.560013371046196 17.53481332530918 17.94633110909218
Pb 14.230345358622964 9.658795276070144 12.938592994773403
Pb 11.318500667085265 18.699204096277807 14.526268560289122
Pb 11.205911330862062 17.248454871410484 11.133472497010041
Pb 11.4311630752571 13.904748212401438 10.614604606234103
Pb 10.58692600683222 15.174237153068153 13.78717913172216
Pb 9.420870555062182 12.026162655821997 15.591691017193018
Pb 9.639466414334336 14.640273581740063 17.516131436849882
Pb 9.310314911758145 12.267236205070294 12.430625550072577
Pb 8.800076638412094 17.48157356609981 16.268094260428875
Pb 8.47540687410905 17.709253601138975 13.109615303614131
Pb 8.446918257277023 15.145829509844988 11.235381283897636
Pb 7.535722413126443 14.61314992622867 14.564393309242076
