45
Energy = -148.84806053 eV
Pb 19.03649833238291 14.216471678826535 12.736580099824094
Pb 19.621806854121797 11.132010313661544 13.825367538599448
Pb 19.000477150593554 10.30189480407166 16.77182565822798
Pb 18.346255404914128 17.13319466837815 11.43253010768296
Pb 19.43547427664164 13.62659691091271 16.198085735007147
Pb 18.585793270020805 16.685046168287016 14.882320955422758
Pb 16.89524746254538 9.062025667322168 14.416086035239054
Pb 17.33033200464616 19.357801534229356 13.654510518683885
Pb 17.43844722687733 11.643506427275069 11.50060972504757
Pb 16.79257131580327 15.432275015174744 17.41604592031454
Pb 15.441494211561293 17.83051634256131 15.746733793061
Pb 17.773833169252743 14.45909710990476 9.626756960486588
Pb 16.520350262640417 19.782567996289057 10.651083646218828
Pb 17.305673660815064 12.466166274999898 18.522463817459318
Pb 15.448576461586459 14.347940865837696 11.977638258778601
Pb 16.67265051718377 12.23998439777494 15.066738772749485
Pb 15.94012964978971 9.763222229162032 17.46163549831234
Pb 12.998874290744398 15.54050724440265 17.979268486363427
Pb 14.441995788478797 14.806598353418735 15.115918710087646
Pb 15.73010478760351 16.994506193802305 9.133699451347143
Pb 14.626629097088134 17.674299479257456 12.441975896492265
Pb 14.440059416132533 11.332349763959813 10.447998924409275
Pb 14.418063744022461 14.059565904180287 8.78036594800061
Pb 13.469818847797148 19.384196288331697 9.866029965679246
Pb 11.209914402727629 18.313025538915845 11.832975108905087
Pb 12.935550506051154 11.885842979796843 13.448092585389208
Pb 13.875325720495601 8.867635621603297 12.424978732527197
Pb 13.697879028519338 12.280371546032192 17.132586275703094
Pb 12.062581895549096 15.1261018648116 12.536156203320495
Pb 12.11462209148578 17.261941467817174 15.226817110209925
Pb 13.351626036671506 9.302418736797717 15.516994983706311
Pb 11.348339771328 10.26999240387779 10.890635211933729
Pb 11.233799887047244 13.297764012207152 9.617696465538934
Pb 12.097515491962005 16.619560952143704 9.045537672892495
Pb 10.739241832476361 13.766082549175046 15.819173656405322
Pb 9.300854642327218 16.389614524276396 13.813739005121048
Pb 11.359627986475894 13.035938610645935 19.369196149091486
Pb 9.759579701345512 12.684420726775489 12.546158277048624
Pb 10.574155725536603 10.582944723466108 17.184998210541366
Pb 10.502611042760453 9.552308055225028 13.881179420618675
Pb 9.381781116367804 15.851899573404387 10.668287580857577
Pb 9.742260386065318 15.709732610159952 18.27702575906653
Pb 8.102040429025786 11.567457563673567 15.31643665723511
Pb 7.600127310454577 14.728483059800732 16.06444107046794
Pb 8.338147190499765 12.691566667894394 18.38138803887615
