42
Energy = -138.99935776 eV
Pb 13.082018370835947 13.02952209210066 9.069891589751526
Pb 13.088510327811152 9.971408631364472 9.865953973682863
Pb 10.21040244440243 14.318377128466635 8.972334414695204
Pb 13.729911750498847 17.44901267749412 8.16540191618805
Pb 10.360584296521184 11.758259895201494 10.859041234560587
Pb 15.584353568037917 15.013159418050579 9.100085397433139
Pb 16.18264680949233 11.823872929678217 10.43486479474994
Pb 11.436381056390966 9.296433116051634 12.729354509826443
Pb 10.580785932484783 17.514084625348424 9.358279906063483
Pb 18.49855028863469 9.971660018880298 12.211898677115691
Pb 19.00947251999876 13.167427415548042 12.142021563949514
Pb 12.938155746654218 15.992058870398612 11.087860435950681
Pb 15.367698333555946 9.095919323409884 12.079303855911705
Pb 13.497482463051284 11.995158909818768 12.510228105861271
Pb 15.738837225911537 17.877407167345588 10.849885643490268
Pb 9.779289873408938 15.278191210832915 11.997114320342268
Pb 12.94812680064527 19.48807842199543 10.459259969449263
Pb 8.402589118366443 10.543945090364822 13.320782954600169
Pb 16.07196627442331 14.681982592984413 12.298969011935313
Pb 19.948978167108738 11.435340258738423 14.722696246286688
Pb 17.690200109171137 9.069944764247701 15.279343352131827
Pb 10.479771445607648 9.997792676882723 15.907745207075699
Pb 10.504974746269923 18.494432603024315 12.431507267591439
Pb 16.529460083194774 11.885390511335313 14.212166247584268
Pb 13.876632322576372 9.17519130349901 14.87690192994721
Pb 10.556489405460642 13.027799352741571 14.362849999735152
Pb 7.384151422515341 13.622648577376802 13.587003455059232
Pb 13.731836865792378 14.906913942898866 14.648156828789661
Pb 13.392227777579503 12.059274465670748 16.314013422257403
Pb 13.707016586029425 18.474045824196125 13.495462449481684
Pb 16.444591243852066 16.982949353004933 14.679710239880956
Pb 11.055614077636424 16.65852260615117 15.064401913921724
Pb 7.668845841367429 11.801277614225631 16.236634423919046
Pb 18.704866357446924 14.457919734047856 15.185608959461048
Pb 18.094051885240827 11.941642376728577 17.382344436307434
Pb 15.553285524080898 9.77181102558235 17.608829426863398
Pb 10.406360312270548 12.672658851123112 17.777784780301396
Pb 13.047771622453801 14.650169910245257 18.247224929813413
Pb 8.590631304196455 14.903176928889252 16.279544617857642
Pb 16.260882057467832 15.077140143713617 17.33086352073532
Pb 13.915957656947624 17.41736141245174 16.76090241107608
Pb 15.240862446097404 12.507136416934328 19.09221655939575
