49
Energy = -162.66693296 eV
Pb 21.332865913532334 11.065236058757648 17.33885435930401
Pb 18.25283271669364 10.001489825971511 16.625901753947794
Pb 19.105742549061265 11.401093217347558 19.491960218876688
Pb 20.378514248405235 11.217451514612046 14.237616443945441
Pb 15.988901211720627 11.686011749344143 18.60988151402848
Pb 14.98906342817744 11.637426679340477 15.315904914077837
Pb 21.996815305783848 13.791402386611322 15.669700347524918
Pb 17.272967433682933 10.225646768486582 12.977761515873286
Pb 20.83738374132744 14.047547063664355 18.73402171939095
Pb 12.749200216980489 12.470287063741152 17.89105750512042
Pb 18.63682961018017 13.23503309697399 16.549455595152423
Pb 17.527780933983777 14.458532881676524 19.64686216907003
Pb 19.722796882774222 11.844503003935742 11.181682041029548
Pb 13.985980061447913 14.370808958649222 20.37032444738243
Pb 15.417849565024119 14.569315788742378 17.05018147312572
Pb 20.704282873955385 14.628015416885503 12.693938849244764
Pb 11.757615372577568 12.057816594984983 14.616694200143778
Pb 10.72156460212645 14.548406105616227 19.69225042785075
Pb 16.82896197519699 11.71191835738863 10.029064257917934
Pb 14.254536688395467 11.651424731608351 12.087070833425576
Pb 20.473156034186363 16.615862168804394 15.430364040375123
Pb 9.781641489916252 13.05532421257231 16.884575933587016
Pb 17.36379578629823 13.40489936020432 13.13585828703816
Pb 18.51878710707179 17.28383461038113 17.94564115244486
Pb 8.946626958600733 16.223362326150518 17.126006689186024
Pb 14.997092185039815 14.396880634505202 10.465139243550713
Pb 12.469102825979181 16.12676860640638 17.46417504769487
Pb 19.24553487985685 19.536038908783905 15.328965259097796
Pb 12.331630534959793 17.226645961308623 20.504688317890352
Pb 16.338834376650965 19.614919636364252 17.060905128238268
Pb 17.01747667161008 16.867439074585636 15.041560726632548
Pb 15.368691956932695 17.190977236597902 19.443965217029636
Pb 18.29605212173439 14.735393243194604 10.355904950669586
Pb 14.146221962994165 14.647410418153902 13.703576978699648
Pb 13.216863919453811 19.35034359700188 18.136768981567794
Pb 13.888763126936114 18.27230927835751 14.932725252120605
Pb 8.663530478449164 14.345759678566685 14.096254097108751
Pb 11.47150686725047 13.8265837056608 11.82140871544189
Pb 11.225347437790647 16.202786719045445 14.354375571076789
Pb 19.11850790636832 17.76094005530798 12.652417624549646
Pb 10.431313236710915 19.043195182891676 16.201087874389017
Pb 16.47233004694643 20.107585106689648 13.735382886004352
Pb 15.91802798599944 17.268434630517405 11.861933150992167
Pb 12.498229415618335 21.079385389563793 14.606403088164395
Pb 12.584100022648162 16.917166892619072 11.201518211689214
Pb 8.028916612932234 17.60278760876619 14.269429634707018
Pb 9.293774567659595 16.383175064771034 11.593455655404647
Pb 13.78805749170583 19.89190108751308 11.930008877589467
Pb 10.500399891980091 19.259321571686183 12.762118051936824
