41
Energy = -135.89416295 eV
Pb 16.8630447266497 13.608305506343289 17.420130116077264
Pb 17.034101101076413 16.20828867277467 15.625105947240737
Pb 10.696860719907903 16.91396027197753 17.66536135222983
Pb 9.399397100881304 18.921764401569025 15.306396488658365
Pb 13.9004925134971 15.75826786601227 16.345552161285543
Pb 19.25462431472205 13.82147026751327 15.171465685219692
Pb 17.780643923740644 10.99510875863633 15.607179806241637
Pb 12.726919681854096 13.700603165509552 18.348347002600914
Pb 14.712617294731226 11.208752972954724 16.946911017748377
Pb 12.7037763730312 18.688642494373838 15.79306373746579
Pb 15.695595931376035 13.374494169855511 14.315286664679364
Pb 8.031440083915458 16.06721259054755 15.673105255004598
Pb 11.52222271511579 18.977366597737802 12.815234431472938
Pb 12.447938984837771 8.417471038941889 15.701137120763793
Pb 17.864469194537048 15.407746739125812 12.63148575872469
Pb 8.748366386119784 17.057186502860894 12.54165830214507
Pb 14.228875112648817 16.70530676365549 13.105892247532513
Pb 11.09332126876413 15.997194382983158 14.473184333547076
Pb 9.61563099888149 13.749947209914131 17.27890223726272
Pb 15.066776589049917 9.795702505152489 13.85278869171149
Pb 12.081451372889159 12.283358449353406 15.49700854657968
Pb 9.559376075539484 9.922524392766007 15.537445984789569
Pb 15.20287129071751 12.91706660488041 10.628365248603908
Pb 11.880517915345042 10.21854302809378 12.969505710910171
Pb 11.698934822072378 16.40132245640786 10.889101696180866
Pb 18.153722062058737 12.010486541455522 12.55870395276652
Pb 15.935572901770007 16.02976883074636 9.920452543155939
Pb 9.143574887455701 13.013926300536122 14.113917870852429
Pb 13.190444445781058 7.138628888378217 12.773223295022216
Pb 18.54436042318517 14.009646407168539 9.816068626740568
Pb 10.074274307450414 7.303451909978213 13.676555796704584
Pb 12.591091838641232 13.64436031820386 12.516320817928467
Pb 17.234823628658656 11.070420801088009 8.930866989553303
Pb 8.767926554753476 10.017633025439178 12.350487354383349
Pb 13.293831429653943 14.464208046720898 8.322455098537759
Pb 14.309845985879738 9.647632372346713 10.585064391212033
Pb 9.62094175971966 13.958116255590983 11.122388939164049
Pb 16.364966375733335 13.9257776768657 7.444812539684121
Pb 10.979369313520376 8.259215117986143 10.641159054694967
Pb 11.861198841374543 11.692372330161309 9.775190286083435
Pb 14.300021109912791 11.457988946994632 7.63015938894042
