47
Energy = -155.28417925 eV
Pb 8.029890315332741 14.346802352982632 14.69548790127191
Pb 8.791900346766923 14.471810397117798 11.511875591965127
Pb 8.140011709189798 11.417287557434252 13.08042636419833
Pb 10.21669103482271 14.884714548201329 17.051644210784133
Pb 11.963785464592712 18.5096158333957 15.796834356833008
Pb 10.280122265803662 16.681785846796746 13.74033740109863
Pb 10.667999150472092 17.194428546197642 10.462976524899881
Pb 10.015767342611655 9.72395350557559 15.215835724303036
Pb 12.338262943818668 19.67475423735678 12.713926996174372
Pb 10.404794105336487 11.733515538019269 17.53058511637918
Pb 9.424307269045881 11.675509809907075 9.9895424890148
Pb 13.042540970623309 16.670551489870594 18.151863849812337
Pb 10.848521848221235 12.870767795721834 14.19129429752013
Pb 13.226850743249233 13.482287653932302 18.425070481342527
Pb 10.127544748728374 14.557500779636008 8.463366695162568
Pb 10.540753091489186 9.254966012348648 12.064032553133519
Pb 12.972414308505405 15.232974353079415 15.243891943451747
Pb 14.526360290075665 20.37281779110975 14.948345791707606
Pb 13.52981730996436 18.96504384553147 9.826478716438649
Pb 13.236902931955177 15.983745832959917 8.594030560033426
Pb 13.016640362814018 10.322068561489381 19.02523265693616
Pb 15.700977880675627 19.045537517716653 12.279302997643248
Pb 13.430753756458143 16.53400006639123 12.288592157063277
Pb 13.23486094889606 11.289383725953003 15.81256657135408
Pb 12.893669325611619 12.91218975257229 7.910076936038585
Pb 15.335775997481901 17.338312609767062 15.466881902992448
Pb 12.131465463255742 13.650651357530846 10.975314598192222
Pb 12.908456404369563 8.20032874095377 14.412032779414808
Pb 16.242760492331538 14.968415267247368 18.894646213009352
Pb 15.878660352288104 13.49117518877674 15.996314276160138
Pb 16.07051741327174 16.33958605162099 10.197901538921165
Pb 13.452645097712935 7.643057704122743 11.25739621969068
Pb 12.371853266544594 10.108314243209627 9.426704652106357
Pb 13.929989355138861 10.90878352284157 12.341345178404895
Pb 16.071030659022043 11.543565988358994 18.806084099126867
Pb 15.598163121727604 14.012870719165557 12.633008341331333
Pb 18.281444899143967 15.820161307011267 16.500460333487702
Pb 15.006273062141014 8.8543142456978 16.978269179407
Pb 15.779659186426176 12.862912463356155 9.617478876949399
Pb 17.790220452128377 16.40175568726035 13.217568106088338
Pb 15.669113175554422 9.483212833446991 9.88773114121264
Pb 18.799855979885166 12.953449677247962 17.7686064369038
Pb 16.003685862283557 8.482926450870782 13.126308792644549
Pb 17.54483892679296 10.611362206056478 15.814940278229601
Pb 18.458887479846265 14.16149474936304 10.965127931424478
Pb 18.88540239193009 13.39709568215562 14.394000288044115
Pb 17.454055450818668 11.151635785897437 12.221330059133457
