44
Energy = -145.33711423 eV
Pb 14.45369970999731 14.735359004451917 18.75508072682694
Pb 16.765606599878012 12.394261737222275 18.676255330327475
Pb 13.631032802774737 11.44520024074827 18.001288714645604
Pb 16.24294776319104 10.091142238766581 16.320364359212157
Pb 11.31417001639582 13.70055819750684 17.665116153499703
Pb 10.573013300770928 10.358129266819335 16.84638018241382
Pb 18.750584566632792 12.835702071290685 16.133356064970275
Pb 12.184927069207038 16.881977597366923 17.818894396742788
Pb 13.233581837636772 8.931469771199003 15.630251097416481
Pb 17.48568055684131 15.400236958125948 17.4597629415451
Pb 15.232305689021455 17.61643391631906 16.893918650489876
Pb 13.249697584510805 15.636170695058077 15.086652527262212
Pb 18.073667580311152 10.588480448725953 13.648195561044563
Pb 15.605546940211106 13.276060855337084 15.515561801089797
Pb 8.775099417658426 11.791642682880138 14.656405963005056
Pb 16.50974722308316 8.130951453502336 12.052920152804994
Pb 9.903693653231876 14.910772604274758 14.987209541057272
Pb 10.24016428980093 8.73713317354526 13.919641964389088
Pb 12.116202328026548 12.316097441779503 14.802538420997992
Pb 13.237672360630548 7.851790912862177 12.550259269798076
Pb 14.814614043012154 10.762649118046255 13.057935679400673
Pb 18.058406227570806 13.83284120644081 12.847226777392967
Pb 8.124785473882712 10.347272461194366 11.912998472925121
Pb 10.910629757315121 18.24787537006834 15.008472009870696
Pb 16.51509756840269 16.374296270534142 14.166956474449794
Pb 8.777567824912811 17.0915883232276 12.724492811004165
Pb 17.317485573598184 11.08585639409622 10.611662840361697
Pb 9.262439444789985 13.691598571712987 11.7630187975451
Pb 12.034154403301413 16.209175957391043 12.13189883451081
Pb 11.609212372277591 11.214481630648848 11.639062669155525
Pb 14.80318237422522 14.113443216438322 12.071005459863509
Pb 10.511058989715654 8.340081332831742 10.55854331054709
Pb 13.806946457006525 18.868048587390092 13.420410756776006
Pb 14.5839524467888 9.077333754524245 9.77133153102441
Pb 15.902375094172681 17.2469314292233 11.144417240000617
Pb 10.781888582140585 19.56626202101133 12.098827008175284
Pb 17.08535270395381 14.413824407231482 9.788444651795915
Pb 9.244104332371545 11.159829936836235 9.181774744271737
Pb 14.771100564920498 12.316228247780462 8.913878486816046
Pb 10.228017913904445 17.318477093298874 9.786995659231792
Pb 11.417841821329914 13.674934645256286 9.312072857915984
Pb 13.182028899740988 18.800436214483945 10.151461659809986
Pb 12.135231065870823 10.462010792894333 8.26028546905288
Pb 14.003150418780239 15.661801262251162 9.065903567956173
