43
Energy = -141.58971032 eV
Pb 10.652508057224326 10.525425899791959 18.58944273882085
Pb 13.279743649825607 12.58163998632032 18.0580530263017
Pb 13.686123180851187 9.210087907749264 18.322997043895
Pb 9.985456551937258 13.522486654186801 17.444831000196203
Pb 12.270356993548514 10.294230548448546 15.725993387868735
Pb 8.901140883106915 10.702254778487106 15.999808169674463
Pb 16.292847303310047 14.402065029273995 18.062452143895026
Pb 13.208495697473813 15.926743342969463 17.43676274405754
Pb 15.51222947871082 8.930907468905517 15.614204972521353
Pb 16.439265901853545 11.002132209068893 18.29534196020192
Pb 19.04117038794423 16.133987616210593 17.425086045986415
Pb 12.187086562615724 13.776780192130659 14.890845373196996
Pb 16.17539870163934 17.78856733579854 17.465989583738494
Pb 10.428501375054138 16.541264491518692 15.776581071291957
Pb 19.15029402581545 12.884587284403905 17.977206635417136
Pb 17.282776690833636 9.06308497801452 12.108273115727462
Pb 8.881752237704978 13.581797944105842 14.342498661891378
Pb 15.28229382564277 12.290496040812547 15.400737632295929
Pb 10.501440466678547 10.911448872073185 13.165128102691027
Pb 14.272631045302326 10.182826240387042 12.81967662332014
Pb 18.374519467012963 10.742427520525828 15.569286772275909
Pb 10.72419134805008 13.751298664594442 11.38988906047796
Pb 15.218811549678787 15.712128319486071 14.937749635728206
Pb 18.16724337016651 14.028494350019942 15.10699771028759
Pb 13.032889115960812 19.024387215516054 16.170957127636953
Pb 12.34199297548421 11.017888369812212 10.289593983880605
Pb 17.119330695378395 12.22236058627848 12.439144591110155
Pb 12.851492583218128 17.2493133607497 13.061930625278492
Pb 15.97866557519901 20.078154364944144 15.105773232094739
Pb 10.54165915258794 19.415921291209113 14.174175116195075
Pb 14.088847510938688 13.552986367236299 12.010816803499363
Pb 17.973850296698146 17.539844375696966 14.615230662024805
Pb 15.375215778346284 10.357009636532696 9.679932304573587
Pb 9.535446624127506 16.647209753211015 12.729090911579407
Pb 18.366563441875215 11.059994947349036 9.735427026358662
Pb 13.361572239879338 20.65804746576257 13.301155214037824
Pb 16.80341925000073 15.688544366861183 12.07492446655268
Pb 15.943417350569039 18.90453938009064 11.951181709490164
Pb 11.380506089196823 16.643389485609244 9.937563555830502
Pb 16.294134702702216 13.553583152784741 9.300998052085244
Pb 12.95736667497747 13.959469663435405 8.800941821897124
Pb 13.02551269892443 19.33329189238214 10.435116394039811
Pb 14.719392514646856 16.627813259174875 9.727463357229208
