42
Energy = -138.74064834 eV
Pb 10.368968672638225 9.268181742063476 13.58438556265059
Pb 10.314993762707633 9.180980191186343 17.07803050671894
Pb 13.159582496035222 8.595824406433477 14.9335639626884
Pb 11.218404063983701 10.328106079869848 20.08390938106025
Pb 8.817752720841437 11.86912179743768 18.595388647604107
Pb 13.020428117686187 8.964070891614975 11.390969373581076
Pb 9.232339139924823 11.924852402226236 15.330458322924562
Pb 13.529107386018586 9.175968283041412 18.101275001619356
Pb 12.487641810883096 11.664059554523211 13.737751628867573
Pb 10.800112114003367 11.438107646398253 10.774806532586913
Pb 14.128547528366635 12.2442894927923 19.476011027008667
Pb 11.184109154168171 13.570264385369489 20.13201116104893
Pb 11.932214786795493 12.128434268706199 17.13153880636754
Pb 15.761461943401095 9.94023286219991 13.069010535528436
Pb 9.851775266238127 14.761877933500292 17.29338302465671
Pb 14.989792218192505 11.343033512633927 16.035460444697854
Pb 15.795989241110867 9.631377040942061 9.761866676590332
Pb 10.806175385756182 14.64126470203233 13.87939946731946
Pb 13.0098854669579 10.483883077183602 8.453746686379715
Pb 14.342244919131053 14.595537520063388 14.75642574238837
Pb 12.1742176579031 13.786533230849086 8.672792551249536
Pb 9.680332983349889 14.748200962529939 10.616160640708296
Pb 13.054761896069136 15.261251540590205 17.899327352504194
Pb 14.17039693865699 12.315556708451515 11.078957986043063
Pb 9.809210296066045 17.483119953738502 12.312311122948335
Pb 17.402325609249143 12.999464059814418 14.246439281997873
Pb 15.692452936058084 12.589493752024207 8.131717561727745
Pb 12.320408233305157 17.450134475475046 14.697186039895469
Pb 12.825687994123655 15.887810370663402 11.481705434417444
Pb 14.774389488085033 15.700693749345508 8.310973235189484
Pb 17.80381777916446 12.026938799543684 10.789920035305338
Pb 11.065873993887163 17.42974341289396 9.305242213041202
Pb 15.215793178068106 17.243973506162813 16.529353752626882
Pb 16.00316501437458 15.10698814726605 11.806851064334143
Pb 16.191164421541185 14.244070572411694 17.423107361754155
Pb 12.409038710180239 19.233244233916 11.721888972584843
Pb 17.923937348773016 15.091762715146736 9.21694477943169
Pb 14.998413097772401 18.335153560426367 10.045230651744161
Pb 15.36900884393263 18.33526668426402 13.311399198106457
Pb 19.274882830382282 14.70058482987743 12.164665284405062
Pb 17.737974830260658 16.29927844703687 14.667762220812433
Pb 18.063764321982156 17.647185127753062 11.489487824951867
