43
Energy = -142.40701617 eV
Pb 8.964158463782594 14.066175950615406 11.237553343365011
Pb 10.590364041084888 17.747398012109837 13.4491377690344
Pb 10.301132854314702 16.860844757589096 10.24881576053846
Pb 9.847182863373536 13.742850482003703 17.30966115001648
Pb 13.154390291780842 19.19519196391961 14.556397973380111
Pb 10.086839046151592 14.401931544209775 8.129359922943138
Pb 10.632451584246544 13.604620400613474 14.171579555723815
Pb 11.734527440510007 16.487629879757314 16.191357894444625
Pb 8.163680439013401 11.721331833071945 15.32437999356326
Pb 10.274480984388578 11.543670187579902 9.74200547528275
Pb 8.760315670492195 10.923935962963402 18.520180279064796
Pb 13.306833895927246 15.8919387594243 13.45958426225039
Pb 11.685828602763543 12.10036147666435 19.401133508632448
Pb 13.147465665351021 18.31232454766062 11.284283032957244
Pb 12.157635494872126 14.005191178790707 10.846669576199927
Pb 14.944229125333035 16.983560391911666 16.274933673876127
Pb 8.729229319684514 8.687383461545503 16.305696381302294
Pb 12.975013423397428 16.09872146976486 8.30424618997812
Pb 13.500925356022579 13.276462755889392 16.71451411447968
Pb 13.000393805237847 12.810608483809048 7.843965973218861
Pb 15.87874575233123 18.061220104683922 13.150142060489264
Pb 10.463101518422308 10.332589170774765 12.999182416023821
Pb 13.418347997983151 12.092522582303847 13.461444600230285
Pb 16.192189697352234 14.296110939861093 13.876936244413256
Pb 11.453312775431677 10.672445035831295 16.197085962832407
Pb 16.129593269827463 17.08489904123753 9.61007454555179
Pb 15.79349315815153 14.587122277164132 7.33728604901906
Pb 18.095279024773163 16.95063817556973 15.450405775449232
Pb 11.055192507321472 7.440501666680395 14.520036251368781
Pb 15.48919625114761 14.149913335918846 10.653362469069814
Pb 13.308192703640668 10.608876983939467 10.421343736412151
Pb 16.843013993652047 14.268454258009179 16.96846341293623
Pb 13.632545211612126 8.784770728106254 13.373721223425852
Pb 11.196819090578646 8.675871032781833 18.73762774952297
Pb 15.439916140874104 10.538328771318481 15.544388637837649
Pb 14.149624758978042 10.25626110785936 18.492404291358454
Pb 18.427352266811518 16.11039539613677 12.118445384744712
Pb 18.501181374897968 14.799489737278519 9.114323726867887
Pb 13.655706636202119 7.815626537272191 16.507444565997456
Pb 19.257475137311484 14.08928165299685 14.933152894876942
Pb 16.119638708243887 10.953786660222555 12.022699193651173
Pb 16.865727587569285 11.882274352068595 8.92240585677357
Pb 18.744323947835262 12.845816838085165 11.710758186641407
