43
Energy = -141.99262657 eV
Pb 18.343096850475057 12.265788201461634 15.914588500391945
Pb 17.149510490709012 9.287438980578688 15.773703355889525
Pb 18.277653645786305 10.616474769945262 12.95421463015316
Pb 18.97819396399571 14.071498849005836 13.13824130280691
Pb 18.73094801519043 12.45153670028675 10.336293375906696
Pb 15.581756156384705 11.717278052077843 17.605457487914432
Pb 13.743216883223283 14.047788871496964 18.954077881792944
Pb 15.319659451617383 8.42853571596039 13.258385609620198
Pb 17.13116334355429 15.204902691191139 15.804440487186248
Pb 15.42985721086959 11.772888958272706 14.226382114650088
Pb 13.874933580059922 9.363254263591282 16.13467811026626
Pb 11.063097294663859 12.308184910450276 18.783710024629872
Pb 16.187939284380178 10.13327594380965 10.395794958248104
Pb 17.842625216922723 15.598269399183948 10.272348180443016
Pb 15.745226016897949 13.304260606424418 11.09018510912839
Pb 17.15324614799481 16.926363831537685 13.185784214501346
Pb 14.206171680086717 16.199257374421897 16.56075917182817
Pb 12.79173656992767 12.951949342465424 16.0441873689909
Pb 10.802551561684512 10.259347694265644 16.301994983468735
Pb 11.00965066267302 15.545380577762685 17.90180955504139
Pb 12.110407520160338 11.081602353838074 12.86119076573741
Pb 12.059115656259161 7.771066095360552 13.781531582407103
Pb 14.151789637726596 18.297945601074233 13.948310304008341
Pb 14.803977964804037 17.26116424147092 10.86394470928829
Pb 14.25634077339085 11.929382854114326 8.401068725799373
Pb 14.994530339163507 15.055575646914372 8.259927299841497
Pb 8.734420805525382 13.204471446178385 16.827024848912373
Pb 10.560284495505616 14.362462142736534 13.745562115379029
Pb 11.263861745307748 17.4841319798601 15.13840743478041
Pb 13.135130746289459 8.455556870860402 10.751225795087256
Pb 14.309776694312562 15.049527667841142 13.515805235236005
Pb 12.45424214133044 13.864681766042008 10.745972935063289
Pb 8.374690133636395 16.403577449358263 16.175726262773587
Pb 11.378344130448674 10.777853696273493 9.274887662277898
Pb 10.032831136721962 8.874781979632019 11.617031552745908
Pb 8.867753579733565 11.116082336949772 13.969161240286146
Pb 12.264010949539973 16.935321891618695 8.738208888020582
Pb 9.309609468644947 12.341883006810134 11.033123728600675
Pb 11.552915932503902 17.913790949828602 11.778233859195357
Pb 11.718970725930108 14.066266850107777 7.631805397944196
Pb 7.3842305027141135 14.133049019174965 14.04593198731546
Pb 8.660235562236105 16.970631589687237 12.975308019376197
Pb 9.68189048734136 15.458438948514164 10.15970002622508
