44
Energy = -144.96139199 eV
Pb 10.121618902293086 14.088389580089185 8.696860797085805
Pb 9.55931575838947 14.81092227824262 14.24072479916212
Pb 12.596029926858165 12.124972344366364 9.84359164659355
Pb 10.00971375079529 12.821358293280896 11.67279927882527
Pb 10.120674849779421 17.60594925250252 17.068301933007934
Pb 12.792313404967496 13.968088250289242 7.137909797650281
Pb 9.779111668980272 16.211597774546696 11.129323775883163
Pb 11.669649745124932 15.041824530387794 18.336865257227313
Pb 12.567763842386702 11.214739826472911 13.354038885987164
Pb 12.71615036885797 14.635352943715349 12.18010205728848
Pb 9.742007514759626 17.996352098818356 13.913226108567901
Pb 11.62834208931474 12.995703166979228 15.910947308152648
Pb 15.429109549531091 12.42221929054772 12.095445025939624
Pb 12.79816258597354 18.210562487197695 18.767882976500296
Pb 13.86249642169888 15.567762652304362 20.602659571426052
Pb 15.00236707387625 14.347891841732112 9.249752061988097
Pb 12.45817087477039 16.566510164611326 9.17967666401441
Pb 13.264428184937579 10.15724496138605 16.823528889556734
Pb 12.570553250608306 16.252336956030266 15.13765741548334
Pb 12.348762520371215 19.51813504757003 15.38088431312093
Pb 14.869521879746737 12.739840073190383 15.54028343475681
Pb 14.860465589512762 12.543907807915543 18.951932769837807
Pb 12.335143566833379 18.357406846454616 11.985555406703494
Pb 15.42889293038699 17.2763296413953 10.84413491985847
Pb 14.919598077538243 15.67071492811539 17.488418899252324
Pb 15.216807009621487 9.651252961376645 14.356762895562984
Pb 16.548437447788526 9.918432352891392 17.359102357965043
Pb 16.161786430202778 17.7171170899529 19.710190845109466
Pb 16.00052853605201 15.48515584672224 13.820655340206248
Pb 15.291887653571617 19.093573927443284 16.966407155107895
Pb 19.666323682330415 11.125813733923161 17.380736387215833
Pb 17.18163716105818 14.64579804620563 20.393054770148066
Pb 15.235351696651012 18.803286194582874 13.736296156532058
Pb 17.63898052564406 14.84495551167562 11.01092211966398
Pb 17.880406355237422 13.8794250290919 17.139109348741815
Pb 18.532508251881243 17.691590535005364 12.630400850222287
Pb 17.806175696452712 11.62670894949347 14.670817293541146
Pb 17.791033140810526 11.49199457546672 19.97904153235882
Pb 19.36743788091337 16.589804076121144 18.89249828561581
Pb 20.394035290341396 13.564420920765203 19.389773661967528
Pb 21.01453147169316 17.518076317737926 14.48860310665245
Pb 18.026029064024744 17.09095629374907 15.884654115798197
Pb 21.06543477584 15.074741318315617 16.507786400660958
Pb 19.373149118610467 14.683628798355919 13.793528900077682
