42
Energy = -138.32579235 eV
Pb 16.20016418168918 16.051249035600403 19.369447660944488
Pb 16.819979564217093 13.550512784030348 17.388406079536967
Pb 17.40579852833864 16.814558377262482 16.506661816851324
Pb 14.130736905111668 13.420789265348827 19.257752116950684
Pb 14.777841094216384 18.638667676195826 17.517584041651318
Pb 19.240500202503945 10.785779460541125 16.408405838165088
Pb 19.258715747838544 13.784922830375677 15.233575226567023
Pb 18.673272909861357 17.20318451611083 13.496896778968695
Pb 13.114460536249698 16.72268619454529 19.553773358288986
Pb 11.626936853018629 11.507116766564048 18.993537452712708
Pb 12.994919059859539 20.496629085340196 15.117505691340474
Pb 14.073733169028579 15.442847887837589 16.62816503350193
Pb 18.952613807118134 14.260256362683664 12.058128442923971
Pb 19.48623220723616 11.089147576248314 13.133277086071166
Pb 10.973443683463183 14.54687559376473 18.269405465596762
Pb 19.455503812243737 8.209020014441096 14.520022975940002
Pb 16.14241022503459 14.822223753921682 13.814907669004649
Pb 12.88572418558403 16.658092718270577 13.553258888141695
Pb 16.352266134779068 11.478169760701462 14.795199154425516
Pb 15.565072509488552 18.406328175115593 14.041518772842078
Pb 16.786069857318672 8.627232886926297 16.23102576132293
Pb 17.58635014990885 19.41848283281178 11.490981468860372
Pb 16.780032449469722 16.362258107961384 10.778782554712711
Pb 11.642881404875322 17.861607299848956 16.61893459132687
Pb 14.555379017626292 18.71805812407701 10.696636855511969
Pb 16.540210332313023 12.193373013800652 11.618398109569144
Pb 10.046173134550223 11.825181068440122 16.308576966050303
Pb 12.297889633641722 20.746401790570847 11.873105843648656
Pb 16.95606886810273 8.836897932979872 12.642589571036575
Pb 10.057118235119978 15.153111442785917 15.152152365355306
Pb 12.42629186458286 13.151280845965049 14.030889139675455
Pb 15.249930647246426 21.351728033240775 12.763161406729337
Pb 13.393382965929968 11.080359630037687 16.367162363950385
Pb 10.446593797093849 18.84965468501949 13.667024055272558
Pb 11.482624985149792 17.768702300207323 10.78506417221361
Pb 13.745377202750124 14.448614331078327 11.248115132053464
Pb 14.008353123439342 10.216089285360155 11.680481164542128
Pb 9.004787975879264 12.356115766832517 13.390059118061366
Pb 14.17543104826743 8.530861763438319 14.381853397041745
Pb 10.290627248448924 14.938278978593491 11.901132393488718
Pb 11.329596002573373 11.975716294670606 11.120518232592284
Pb 11.26016579062688 9.892596802249873 13.787586838354807
