45
Energy = -149.4034393 eV
Pb 11.03170911831441 14.862107400862554 19.341584253644143
Pb 13.452154461258475 16.48952665468969 18.053069881786307
Pb 14.202583380414996 13.981136391074246 20.277094297296564
Pb 11.638227131974839 11.983006125270274 20.693273717260848
Pb 11.414542811824582 19.9258248397229 12.380941066545526
Pb 16.46276588003218 15.480328000603302 17.929661567812193
Pb 12.718523828668202 18.533022687298775 15.257361072072426
Pb 16.016423691679798 17.713026905737898 15.242996429960352
Pb 11.097002287064464 15.599591455152911 15.935838262957667
Pb 9.652250587353672 12.085194168682758 18.05083264194115
Pb 14.554087350479328 19.07472677528129 12.393617034682109
Pb 9.548881589865449 18.025363403723542 14.16779532056319
Pb 12.897159153537958 12.542556886172138 17.49014414467557
Pb 14.417595147999494 14.888114022693731 15.273084179830619
Pb 17.75385494155833 18.467232860915825 12.599958396005977
Pb 17.01960486605474 12.498784140819788 19.06739747626563
Pb 12.544192661974007 18.107557609225026 9.761234384083265
Pb 9.388900227816457 17.988672244349743 10.857074603995926
Pb 14.489198742928737 10.497550455171272 19.592404542064312
Pb 9.383067421327718 13.047040050737769 14.941369913424012
Pb 11.47637437799374 9.456536677005387 18.68485198985717
Pb 18.881934810111737 15.892729218693704 14.263816663033733
Pb 9.087566693532034 15.207353125778464 12.519562753590668
Pb 10.996461963106482 10.30048485356058 15.49109862330126
Pb 12.21709768063346 16.522635578915885 12.592272683928263
Pb 12.02159063498509 13.23117038826718 12.984551546807628
Pb 16.242409494287227 17.43815773319792 9.77778164762478
Pb 16.135485549844844 15.521832176771504 12.392563503305814
Pb 19.21738865539731 16.281100257274925 10.878756044857596
Pb 14.534649712781816 11.526790399815422 14.567746203198936
Pb 17.50054767488564 13.267236430075904 15.875334918921384
Pb 14.089078949613894 14.980243188927926 8.957809756694132
Pb 10.807127087303742 15.27548261922987 9.745688443897304
Pb 16.713140693381423 10.192977408308119 16.84446315933024
Pb 15.114724076879552 12.347320366151138 11.345502035179072
Pb 13.782392940332953 8.971981678155768 16.531250795716325
Pb 12.370484827019842 10.037207771737293 12.105526135097739
Pb 18.905098898542327 13.368288037890427 12.213316258784921
Pb 12.320554065996777 12.1968777094981 9.528228768137383
Pb 17.55073646178814 14.096150619551533 9.25034490188952
Pb 17.74774430371326 10.778425737398933 13.783208846776947
Pb 15.348730815622693 12.124466614643758 7.96320326569675
Pb 15.49556442636286 8.984638867181383 12.439108366817537
Pb 14.329742240748946 9.51216871573655 9.525536752326158
Pb 17.427125971439125 10.533166673333895 10.091025847338607
