46
Energy = -152.20936637 eV
Pb 18.4152798418502 16.01390256625296 9.365821578756474
Pb 17.166971761308954 16.844163902962244 12.587113426030937
Pb 19.087890640957816 14.139828280067494 11.930433174721923
Pb 15.393955607277054 17.366264546696144 9.785399458823912
Pb 18.182433367177907 12.745102105012489 8.67004130437447
Pb 19.187743017833952 10.92355595328726 11.70402721230045
Pb 14.919805665245566 19.372218001058595 12.54545749603493
Pb 16.68360228652085 14.583793442684726 15.447192842566993
Pb 15.995329779077496 14.970721157548963 7.490473292005551
Pb 18.970003697088398 12.071356968209853 15.01182486088745
Pb 13.923284933444693 16.068730165089654 12.720788946789936
Pb 15.356305953274212 17.729681435039833 15.317258403086567
Pb 16.708452732985073 9.930492505038227 9.888661254037999
Pb 15.999955519477625 14.086482964455126 10.86004818371186
Pb 17.963540289315933 12.82517644197261 18.109085919288713
Pb 14.830767948073703 12.09366630531833 8.398903650294509
Pb 12.013759554359568 18.32981541329977 11.405883837899811
Pb 18.054206690538653 8.991879932556792 14.090317481727077
Pb 14.91007581925133 13.804171006016185 18.284828149051528
Pb 12.523053227046717 18.877126469044686 14.81844023822745
Pb 15.751144399840173 11.407819912046977 15.920738586559677
Pb 13.221566073097982 14.867503658228125 9.367503374746372
Pb 16.112706615712526 11.366131175276635 12.738448404290518
Pb 13.355720974864056 13.790980292406852 15.310961950578827
Pb 9.704632425106773 19.360767371480723 13.520978845436376
Pb 18.147164812430855 9.613475067857467 17.329009395706834
Pb 12.705047245554455 12.87043221477858 11.963499775253084
Pb 15.640907331162719 10.678137624859376 19.189897387567086
Pb 10.740812944735838 16.11457805907048 13.873146134258981
Pb 8.874076200589766 16.912636679893428 11.247632561053319
Pb 15.0251364191108 8.296910034707492 13.609869313316743
Pb 9.587628629191942 17.74137327265898 16.458826485070436
Pb 9.704363647135994 13.831611939030465 11.369349312023813
Pb 13.686727002175541 9.863422028853963 11.081275078169849
Pb 12.711200506652247 11.389072395858141 17.661450794121865
Pb 14.606412650212997 8.595701861609026 16.886780604952424
Pb 12.635244836298542 10.489376635022303 14.480703537033799
Pb 7.416447671830441 17.17378522084712 14.131489150128587
Pb 10.811794869904878 14.774026453517646 17.18869611288243
Pb 9.9615490604504 12.867371422581147 14.62647695433434
Pb 6.874546674626701 14.02500270577489 13.203743804206308
Pb 8.173518703095475 11.079006702971942 12.558452294720713
Pb 7.451342201992257 14.707849635884479 16.39109784315308
Pb 9.42926384565036 9.822838583349757 15.334754860078949
Pb 9.010228809605422 12.072314293924371 17.72040908327409
Pb 6.7402038195144565 11.579986186738083 15.425671627073347
