43
Energy = -141.29805376 eV
Pb 15.768875507929623 16.35299568436025 13.701813142201765
Pb 19.843198158382208 16.27866814561576 12.28889341437846
Pb 18.409286061109302 14.782087620703145 15.170606601462346
Pb 20.44208848368924 16.480191969765855 17.027441354861327
Pb 17.54426645035099 20.910033306282667 17.401070717724
Pb 17.232847125457887 17.65323493767076 17.2575170115504
Pb 19.419686944362866 12.898756220834995 17.576396851300245
Pb 19.33177749010939 13.794929290698386 10.174493760465623
Pb 14.645358656366389 18.928013836777236 11.45290273681848
Pb 19.999868011697963 19.113753017265847 18.73199406551633
Pb 18.509252942662005 16.32361050310398 19.801493931781728
Pb 20.708455241278802 13.39283852928208 13.11970696162881
Pb 17.136338325756988 16.33483197694279 10.510635298233861
Pb 19.46647916312072 19.140639352693853 15.445157702839522
Pb 17.084683872688533 19.247622449428214 20.225489029207782
Pb 17.821185842156826 18.89254548839219 12.500951482529894
Pb 17.112565362027194 10.376913361918634 16.99358681908579
Pb 19.47617624861577 11.134354211688212 14.986685972197495
Pb 18.648055051057522 11.104080025589878 11.930242354781129
Pb 12.510321537455084 17.772163037196993 13.703437936155677
Pb 11.52485260065586 14.387912114014942 15.417641277042225
Pb 12.594084562496015 14.326311788619892 18.776989269943957
Pb 11.444089888094211 17.462223064696932 19.069818396422892
Pb 12.223345882078737 19.945628417555902 16.170408165516406
Pb 14.13007696573782 19.54612781378177 18.738518593647832
Pb 16.15251594973482 14.376561520229648 18.0542243989979
Pb 11.867825078159727 11.500011338151385 13.84546350255601
Pb 12.900236240570651 21.009041394879173 13.210853713418336
Pb 13.827963456045266 16.74486468822492 16.809805888387103
Pb 14.79025008335501 16.584508291690387 20.14152582711155
Pb 14.478802412833486 12.948033440254072 15.549318214527437
Pb 13.412635392617574 14.138205513560107 12.635908535366733
Pb 15.400213081227045 19.360838371689912 14.882183727110569
Pb 14.424374006386508 11.409207128476108 18.64452524159163
Pb 14.082296951320778 9.656821823823723 15.519322717573486
Pb 11.646136273427638 11.46337988968985 16.947158603321842
Pb 14.936788279745416 11.149951367224375 12.79527119138588
Pb 17.36961604722494 11.82194980358279 19.72414006752175
Pb 14.667110799266505 22.291745724858195 15.655418325216333
Pb 15.946654997990088 21.70687946696357 12.659783919981638
Pb 16.999845470928715 13.69179605433451 12.368734077487039
Pb 12.09702434643679 15.721877434390835 21.697686331551957
Pb 12.882143457925595 18.753509283629473 21.59443157013364
