49
Energy = -161.85342168 eV
Pb 11.523661828004526 19.14714677152566 13.121532945897414
Pb 10.480736659342984 16.351978580464262 14.553499489784826
Pb 11.808216400118658 18.793712634966443 16.510508198268468
Pb 10.866635058752644 15.480224303173854 17.64646754478915
Pb 9.571123858619828 13.216759236632223 15.43059799113628
Pb 10.553610550819615 13.534240450169587 12.336924879343027
Pb 14.078788128642437 13.785203710485485 12.362307979236734
Pb 14.211394706966383 19.635140212753004 10.381421720302061
Pb 12.429237636854701 16.827603806342857 11.223374877749514
Pb 14.37455298304438 20.14640553751188 13.862837596773785
Pb 10.72194326306472 15.210151806972366 20.77119612564033
Pb 13.69311208426505 16.717748758445786 14.25995595950651
Pb 11.556534940874652 18.20844462108713 19.65973614044494
Pb 11.055696875283568 11.302067848553088 17.39032821542896
Pb 17.06447991300843 19.026982036574516 8.840607646688103
Pb 12.908898444946567 13.597384141855601 15.84093123514823
Pb 12.50479572498751 11.237798483010787 11.007906528976505
Pb 13.300430930827567 13.900255942498372 19.25712602479457
Pb 14.25785932496117 16.925530911231046 17.666363912820316
Pb 13.526337797052662 16.374904887993747 21.512512138117895
Pb 14.519355573717108 16.899082144603504 8.40034975357223
Pb 12.226603852165164 14.237950367012655 9.50770208389679
Pb 10.97899368435283 10.634271059542979 13.906424490407877
Pb 17.098807399771932 19.971547218171196 11.957739962652909
Pb 15.259313102150458 13.514201426002385 9.173271493359591
Pb 14.75995712009354 20.241574516193378 17.116173860474948
Pb 12.640237190468758 8.581128457514271 16.08766791884932
Pb 13.597693708167963 8.793604202758257 12.828846645520846
Pb 14.648458230916985 19.092310668468826 20.337429576807114
Pb 16.222190112274998 15.775736213476224 19.9247648889636
Pb 14.179763444229422 10.873074039359732 17.9713491506911
Pb 15.218939178291466 11.17192855831879 14.851526061951283
Pb 17.616302795811553 15.854105121859671 8.653620019593005
Pb 15.858120395061729 16.92847416845416 11.446014288570924
Pb 16.577022608490854 14.509195732802532 14.778786188209416
Pb 15.92425858472906 10.877626927829185 11.620826689741882
Pb 19.019509645237964 17.489603708423196 11.044811721458935
Pb 16.704234976670907 18.007739578666744 14.951185938502267
Pb 14.73164748280597 6.495469697777475 14.648635568902575
Pb 17.169733120338364 18.667804802784776 18.33670525905483
Pb 18.371419320613867 15.882168275618861 17.068154816234763
Pb 16.730741167651487 13.079809981264715 17.82420714755225
Pb 15.821809101592557 8.264461435067263 16.966164349750834
Pb 17.455027756450512 14.000235141794192 11.52788846703335
Pb 18.77238011910594 11.637203969179051 13.438599528045643
Pb 17.064710119751105 8.529629236745283 13.740287670304415
Pb 19.553136555350818 15.108285948537247 13.805614382190809
Pb 19.692692115160803 13.086365509010585 16.24747203967657
Pb 18.242729215448612 10.265928965288833 16.37060696344629
