43
Energy = -141.93990749 eV
Pb 18.08243267704048 17.847624466953597 9.868504776255142
Pb 19.461170390739408 16.7510233766014 12.53648659849573
Pb 16.848171914935104 19.17328171398146 12.849908159198803
Pb 15.143932458917945 18.965091205511314 10.006758830458184
Pb 18.612131085213427 14.568597646049467 10.137178554027365
Pb 15.766141368280623 16.21459197116223 12.009199157000902
Pb 15.668305562377496 15.996405653604354 8.637048526124437
Pb 18.162670874963442 17.812231265354978 15.491399867000721
Pb 13.483522876229083 18.806873054614258 12.917952568198725
Pb 20.511773121911627 15.482112842034981 15.206115510587304
Pb 12.631314775220211 16.773968165753484 10.388797668920587
Pb 16.470928864482925 12.891385204330279 8.461528345751374
Pb 12.526348251196941 15.421528801851048 13.4837022531277
Pb 16.94638475660437 11.82265138120801 11.409415234591426
Pb 10.332630887112028 17.90391585276551 12.612748889607156
Pb 19.819979727824837 13.073632041288777 12.939520907379572
Pb 14.964750516570465 16.966815533445757 15.444238088596098
Pb 14.096683143529809 13.600986205397579 10.488599611245817
Pb 14.034690517038158 16.72802963617408 18.741193894756954
Pb 16.83356187822463 12.1206971363431 17.753992086959627
Pb 17.499523681176143 11.019007869394704 14.476367748278497
Pb 8.756020014709415 10.284180171151842 16.011276509478446
Pb 11.650598636278227 9.47793687052442 17.142154165765348
Pb 10.318885213316083 12.080101759029045 18.61738889535457
Pb 8.15560896124941 13.37222173043599 16.535777681317022
Pb 11.023270016300058 9.471039869090534 13.873589407714372
Pb 11.422148315409725 12.497961205150524 15.473245372591538
Pb 8.728411380461074 12.242041505878252 13.38717621112812
Pb 13.800362290584484 11.381966762782346 18.705834262349754
Pb 12.3858689774373 14.207747802371815 20.04354274714715
Pb 14.430182523488781 9.90616371562115 15.383668812925752
Pb 9.165715513342274 15.704843507343952 14.552082719374923
Pb 11.53677799734815 11.873945375793816 11.594039523045133
Pb 11.64785723949104 17.780973562957843 15.672745401452438
Pb 14.560353763594478 12.688873161273676 13.619841809961189
Pb 10.530383266147195 15.410125606635289 17.697407639672882
Pb 13.863456556495349 9.824926593354071 12.257422436727783
Pb 14.19401136774407 14.093459170669353 16.951095419916076
Pb 10.013263106302432 14.753423054776237 11.5149842850137
Pb 15.522834798957106 14.163999671178422 20.120897822280494
Pb 17.28777714107264 15.458024827466476 17.83201730152741
Pb 19.613847886750353 12.678276358905203 16.264275665690636
Pb 17.28203413350634 14.494035123363906 14.67559706257729
