42
Energy = -138.52231886 eV
Pb 14.763851123470946 19.22377762357505 13.513844238311613
Pb 17.890116065745612 16.43469512747931 11.61301619873671
Pb 17.67432774321793 17.73100552405733 14.560288001376254
Pb 12.162204882472558 17.745028161668444 11.877640766550142
Pb 15.106348579255997 17.94459357507379 16.551031491163208
Pb 15.18571015589114 17.666792722770275 10.62953590661379
Pb 11.98930982233611 18.2572240580144 15.294098441683486
Pb 12.461956562567893 17.728246947971954 18.492489647997587
Pb 19.06473001114143 14.494986869041538 13.98688501334464
Pb 15.139924527587702 15.955540505978934 13.51221988691175
Pb 18.316924988744546 12.999063900336973 10.991602990357434
Pb 12.88936478438007 15.599204921046493 9.301175471918764
Pb 11.993954762239438 14.35327207810092 12.567805110582265
Pb 14.822428107960343 15.49035803280416 18.973053522503758
Pb 9.572307017971502 16.358674331789484 13.54234756152083
Pb 16.261855223807093 14.772983987994795 9.018895541786387
Pb 9.903980128385907 16.23153100003463 16.92967723219922
Pb 17.191697292145534 15.187974426310557 16.735219438910132
Pb 13.102372150676459 15.049380575167667 16.23642758200416
Pb 9.827982532696428 15.803290934520556 10.330748957456702
Pb 14.646144758418739 12.82984080093235 11.1177215828128
Pb 13.875572298315198 12.796252047614814 7.781874680486539
Pb 16.573124734031218 11.36491477956121 8.727592869172481
Pb 8.824983831104635 13.337128572836901 12.223864006456598
Pb 16.2391219502237 12.712738394628165 14.130578806216732
Pb 15.356284125957806 12.271513056215353 17.29501013139253
Pb 11.75390390755015 14.747157085619346 19.268422450404085
Pb 19.341512243119936 11.21862739743471 13.572687779363834
Pb 11.094382375208268 12.755192312778542 9.70756407073855
Pb 9.571372188011757 12.970552731168825 17.780149139384868
Pb 12.502315525185312 11.815125243340754 15.041804822301621
Pb 16.769711030569436 10.030087041954133 11.77214179090908
Pb 7.98367456099896 14.048213534590266 15.281375292852061
Pb 13.665811454753166 10.20629174670747 9.626857417572186
Pb 18.65192417073303 12.323822844623498 16.555831929385455
Pb 13.799881729864422 9.448271969339247 13.108399770673708
Pb 13.961128446251237 9.19942846319973 16.36704468675175
Pb 10.898147773138168 10.601646101826995 12.25938493696136
Pb 17.071459338356906 9.824021076758665 15.436079347160836
Pb 11.1811723517022 10.205578983071607 17.594213515544055
Pb 9.090783224254496 11.000562457431716 15.046408350605306
Pb 11.083911608491876 8.523078143564401 14.9046597098608
