43
Energy = -142.64219425 eV
Pb 18.698374298364268 16.779936460301457 16.409490719362015
Pb 18.249028100082977 16.849718138964043 13.249021570249207
Pb 19.564847765390496 14.018849344931521 14.594766936686943
Pb 18.46885481054644 13.978986331429276 17.87565026787432
Pb 15.89250284719956 17.904576143102688 15.24352545980398
Pb 15.783368631554643 15.950899526311982 17.982609577703265
Pb 17.56324134639399 14.103807196376236 11.713143153643
Pb 16.440235992949166 14.541613442632777 15.082098413260745
Pb 14.984150219611369 16.189895794812013 12.362469575260295
Pb 17.828579989713454 11.111120115972897 13.087047279183205
Pb 18.41051898575257 11.070375344211907 16.45548252552896
Pb 15.518797395478183 12.644904878011124 18.632333480971962
Pb 13.29634510205333 15.847732604134109 15.202066140192954
Pb 14.344432439515124 14.08506073344989 9.154430618426892
Pb 11.069100940836577 18.077590819208375 14.84727698454052
Pb 14.620922528013663 10.83914917350741 9.658445832495783
Pb 14.577304024325397 12.83496771789403 12.279605451016193
Pb 16.987545226954147 8.579718123340268 15.076207534615577
Pb 15.218294668971902 11.421568709359171 15.336998743911542
Pb 12.623317112735524 16.873254833472632 9.70050919922099
Pb 11.18708029888328 18.835658405026976 11.764887036624346
Pb 15.736078731878518 9.36386501227846 17.89511996725834
Pb 11.764577495459914 9.905233382326687 12.451793995725104
Pb 12.985566166625528 11.875652403978547 7.089539057066441
Pb 11.518791895350926 12.590333314455071 10.355668720352948
Pb 15.063362143158752 9.29297056226254 12.541878768272973
Pb 11.18633274213787 15.555475985262753 12.468721219179354
Pb 12.197905832580872 12.602652472880687 14.701617334359918
Pb 11.185817557260366 14.626477825680023 7.693700032538156
Pb 8.438293466029899 17.778327799573166 13.02503561679027
Pb 13.587484418707845 8.526765233797233 15.463576768479088
Pb 12.666348579429464 14.04751306844154 17.807831824759656
Pb 9.231189463346396 16.778199732654993 9.991628580415084
Pb 9.378835553212237 15.298351704640455 15.23199432747181
Pb 11.771537198615233 9.373048508548605 9.050807662137789
Pb 12.620496124965143 10.764842959388378 17.756834934202192
Pb 9.86817179310092 11.417189218369955 7.438949985864179
Pb 8.989827466493097 10.440351469716642 10.415099751699668
Pb 9.198392879367955 11.975441948540743 13.53190523045236
Pb 8.401601098818892 13.552665499393115 9.26051993535921
Pb 7.858929779585785 14.77116518214835 12.30620446187881
Pb 10.395485604681618 9.626822475711982 15.52973566768565
Pb 9.773298353758133 12.474943660760447 16.90783925517296
