48
Energy = -158.99665416 eV
Pb 18.806351736961016 10.015842496216118 14.993156020881433
Pb 18.9793647368972 10.530396779634744 11.786085156322645
Pb 17.19101514813684 8.090848190859111 13.031968463157687
Pb 17.209913073947952 11.644421104461788 17.29831156806565
Pb 19.742408214111077 14.444820834125219 11.483768889485388
Pb 19.73690474529569 15.242074964761201 14.631854930176532
Pb 15.875444683822884 8.92363636103734 15.970420394023934
Pb 17.084263938914024 14.973754319903513 16.811689018419504
Pb 17.616723877357884 12.819253712721524 13.696468285224437
Pb 14.244728639707478 12.079488822365246 18.647766627670222
Pb 19.951804592807655 17.63118006443964 12.374066863393288
Pb 16.08784463125665 9.617954498633082 10.35530815613522
Pb 17.35517331837617 12.687217312773353 9.883919832150356
Pb 18.1429525627786 16.846668538496964 9.740627605951051
Pb 14.044703998381816 9.205471531359857 13.353656753726137
Pb 16.830675018958 15.872479587758786 12.517962335227935
Pb 17.832751988267603 17.910508690703487 14.945174448228645
Pb 14.76942643097462 12.010089411653905 15.259887963694924
Pb 12.467668317235985 10.110520872335616 16.7431880512218
Pb 14.41864623077346 15.444088633594138 15.202802029570666
Pb 14.109679234939266 15.32226644528173 18.772126482796427
Pb 14.740657447381405 12.433386267948915 11.790874105184994
Pb 14.38785036248502 11.654181487791393 8.428070321510157
Pb 17.225945366428842 19.22983791632224 11.967283745675598
Pb 15.356545852616428 17.913254085887903 17.211897162938392
Pb 14.83970741590205 14.734835256845633 9.17228772934757
Pb 10.92823064782208 12.023462509884173 19.127877263595117
Pb 10.601504617558177 9.256883083249765 13.948463432875165
Pb 14.563039718588026 18.395932846146223 13.922975167420606
Pb 11.892063975553274 13.665086194364639 16.484557363918864
Pb 14.944751843611904 17.735761127893632 10.219670356175882
Pb 13.25849533456082 15.632290620701305 12.180497702290635
Pb 11.738426923814474 13.186033779276785 10.102641790923448
Pb 11.835981870504147 12.111003846910737 13.347054359887249
Pb 9.29476500455388 10.633606699591361 16.72801083013521
Pb 12.564427211823928 9.88807196730968 10.522514093874346
Pb 12.162497008067312 17.31258963046983 16.843643955658194
Pb 10.817174018141474 15.36521678465129 19.059541440857934
Pb 8.482311314867976 13.862633871277254 17.10502328276715
Pb 10.225257682516933 14.966250279164862 13.748011421019978
Pb 8.27198550753883 12.022069170255037 14.005910639633598
Pb 10.982428557802965 18.226547746874015 13.590973207511011
Pb 9.589394003440532 10.966393696549398 11.190446420602893
Pb 10.402541151650823 16.481089620303916 10.721420302396853
Pb 8.921999226572735 17.023085008716553 15.877536886521183
Pb 6.825168237496081 15.000966557714406 14.328674271841617
Pb 8.12465923277579 14.235060517734297 11.367686387688105
Pb 7.990030304101302 17.434988472469453 12.585433444669848
