47
Energy = -155.60439467 eV
Pb 18.834233674158938 11.944416636713097 10.232993851033177
Pb 16.88063579298702 9.421196338526912 9.821675019301527
Pb 15.797746133933238 12.364436493869214 9.142156746428375
Pb 18.78427567431694 9.733783387093895 12.680304702396407
Pb 19.00254395448607 13.130200579456869 13.33967198606795
Pb 15.580327635678893 17.053975505290015 9.040414242031108
Pb 17.114501803224712 14.863717667294248 11.054384185221906
Pb 15.697166564972495 8.401834811654533 12.671695997501242
Pb 13.836626604578344 10.374465913682204 10.783562601479769
Pb 14.9075438704091 20.065957993991695 9.420579243257885
Pb 13.46603167524757 14.833890562521415 9.69380661024918
Pb 16.946306095447035 18.948958290574904 11.604030075465399
Pb 16.17248973925955 11.71083691319617 12.440858226193077
Pb 18.930718072845504 11.21008450410652 16.001301382906394
Pb 17.18618122782644 8.637899655114065 15.675757936138805
Pb 17.924821576839996 16.704925025518303 13.777626100842895
Pb 12.386480220114843 18.00592103350348 9.730638465567615
Pb 13.016590683485827 13.243794751003728 12.56797886565742
Pb 17.30576891279324 17.629948012466766 17.06192556272275
Pb 16.001695875767386 19.55869677661417 14.670085378209272
Pb 14.05647129454075 8.50972339777959 15.695122703576496
Pb 13.652027325268378 20.162650478845748 12.32435941067662
Pb 15.515007681821276 9.424958061993394 18.601948002095178
Pb 11.876586035507838 10.696098760316431 14.536544555492938
Pb 10.56609047280533 15.514687188635262 11.327440192966392
Pb 15.59200647744201 14.542410193997759 14.282642415606917
Pb 14.423133656344543 16.90137220577776 12.233305141843502
Pb 11.798846785586898 16.12184827662235 14.424259047972232
Pb 15.466336425419632 11.54373376107624 16.066793577118283
Pb 9.820887433857838 13.338250603197617 13.776813132775825
Pb 18.16391237764204 14.38504711538174 16.41413546004653
Pb 17.364528956338383 12.220077614752935 18.752849281539955
Pb 14.313146664548594 16.529470667826743 16.67031366820932
Pb 10.607469184351864 18.712584527360516 12.598041778418317
Pb 12.270578520159784 10.048091349582498 17.93359662350757
Pb 8.504996090843546 16.395348442827753 13.695885127716474
Pb 12.507341278724226 13.399284358304557 16.395627644432206
Pb 14.82129393834666 19.588281462605217 17.73734618230482
Pb 9.639090862275767 11.629293068035052 16.621351550972044
Pb 16.150066257289428 15.266072261902295 19.106885054744918
Pb 12.597302353886151 20.035672154162576 15.363699299549047
Pb 9.762125915253753 18.414773101595163 15.858121626306772
Pb 14.198537474511125 12.233072871529444 19.6288527268469
Pb 9.596417981429202 15.077934968794564 16.631704400974773
Pb 11.999376418716786 18.218979249768243 18.19845531225941
Pb 11.038916965768998 12.850132779117637 19.302414309993978
Pb 12.969799744531478 15.446190587604937 19.455024954966447
