41
Energy = -135.7932659 eV
Pb 19.788370405039036 10.864722715920292 12.334549618253126
Pb 19.58092105812898 14.01123697469208 11.880541659122034
Pb 18.12306663837925 12.117866777277525 9.6274645904699
Pb 19.10252186815381 12.586375238026832 14.966015819871178
Pb 17.47433155844087 9.82941378564093 14.49944883671333
Pb 15.62895673498102 13.240488524235621 7.73871010177166
Pb 16.99042135919357 9.539078100175933 11.265148021246267
Pb 16.766068297819032 15.176301551960298 10.101789150389452
Pb 17.300542650773234 15.482223145448637 13.771057223187473
Pb 14.563852923290842 10.189769973285031 8.381285608981408
Pb 16.639741863394356 12.457231669730229 12.637300878020408
Pb 16.431160484120753 11.689153677182519 17.089030469015555
Pb 17.60904660722759 14.625581968678045 17.071229010119893
Pb 13.829593448328003 12.290870699157274 10.719341724911244
Pb 12.448198898526947 12.643812024338109 7.501616475810837
Pb 13.973455699746056 10.857134032985249 14.599668549320693
Pb 13.506921097777685 15.379264547398359 9.06670437885843
Pb 13.801897817917686 18.815792710166818 12.95337594812485
Pb 14.851015445923277 14.003570764777653 15.338407480235814
Pb 15.08812835726879 17.05678185539578 16.587201482025037
Pb 14.283738056628023 15.459675071874253 12.29840018855471
Pb 11.393690778528837 10.190421402689848 9.22913229187296
Pb 14.819500406690548 14.717816126064085 18.924009742752276
Pb 12.899992227098783 19.63245410664579 16.084103163882464
Pb 10.734344506853349 13.28545219600647 10.22603226705463
Pb 13.230408026093084 11.710076257661385 18.574191704024095
Pb 10.993064649680678 11.111710157891507 15.98973326024139
Pb 11.653371389123834 13.615385013759592 13.612254946339828
Pb 11.394345460267987 17.091846162360714 11.506140513488015
Pb 13.6565737226993 8.986019082096115 11.362589335363475
Pb 12.01683650585376 14.272077235420097 17.046313963718116
Pb 10.716103868605336 19.50548051936435 13.698650249093777
Pb 12.254398289075898 16.70323383892563 14.798168850926192
Pb 12.46710616832525 17.267484916201997 18.674710616922773
Pb 11.156565603370211 10.670138387182352 12.400375885558589
Pb 9.194694072704428 16.48592296835939 13.867889748917463
Pb 11.963777681937666 14.241557617327434 20.457779587715354
Pb 8.991145687556884 13.74662600253106 15.867954732512414
Pb 10.021113823072398 12.309952962341896 18.828709735771753
Pb 9.875569369672217 18.21698452953039 16.59128041188639
Pb 9.492740114486317 15.605200185403854 18.678393172871605
