47
Energy = -155.00829875 eV
Pb 19.97252853733027 14.902621409562132 13.917709641302228
Pb 17.436093355809017 16.698077282563666 11.357670380628104
Pb 17.838969424755494 17.379002918574436 14.431921187645754
Pb 18.585456549542982 13.623018464411171 11.145276491230293
Pb 20.307412500080353 12.860017726553952 16.466687907983594
Pb 17.961703281171115 15.23409425608967 16.760436784725247
Pb 18.998879471148808 11.773945160881516 13.665604222486683
Pb 14.546930141171321 17.47751410899745 12.631234573544731
Pb 16.491859233748055 14.444946314721927 13.598973304342994
Pb 14.005899625671605 18.11200266727983 9.380160505850036
Pb 15.162653912831493 14.833811257919693 10.170100962673313
Pb 17.984658898113757 12.562862113510718 18.585649195438947
Pb 15.83972652861981 11.71812381337134 11.651172913029585
Pb 14.821759051263438 16.49495693049439 15.814111178358127
Pb 15.907731825624023 11.904627751910311 15.7875664790099
Pb 18.487417963695094 10.015298402655045 16.480484652839547
Pb 11.759370805213603 19.094931152083827 11.512877177496966
Pb 14.118856420258036 11.19083899613021 8.73970486782217
Pb 14.973510212318752 13.917937704488576 18.22459958789199
Pb 13.178823744536174 15.650152840126557 7.597415274009274
Pb 12.042077256317096 15.717604876198367 10.936432281149939
Pb 16.625944713012885 9.193267898508095 13.79378381446493
Pb 12.370769284838932 19.0200956003246 16.147241473660518
Pb 9.603991624230371 19.374927230790156 14.349462313752941
Pb 11.48831461753644 12.984979185624502 8.20466345385705
Pb 14.213512350101658 8.67099520957656 10.739862739597761
Pb 12.231453494098062 16.209032258570847 17.94520298163861
Pb 10.842264550495127 17.662552682368414 8.692405095603997
Pb 11.424595450036056 16.628379464800233 14.334328337261796
Pb 12.540964063618206 12.496333497863994 11.307000103960839
Pb 15.711356308401324 10.507155361840205 18.927972539262424
Pb 9.569103850005911 17.992689688847946 17.374005569573637
Pb 9.043537862362333 17.1130056816326 11.838516179824682
Pb 13.941357195739132 7.161808164275575 13.720317196499172
Pb 12.751004089925104 13.783204645223552 15.53760768318206
Pb 14.795489080244208 8.524967195078448 16.55332668895207
Pb 13.25831496756074 10.502028305901787 13.877647956821509
Pb 11.28577265504451 9.848395864208758 9.539998649958834
Pb 9.393285821238573 13.581565002231132 10.478584926680199
Pb 9.365507044252269 14.191164577945088 13.64200309570271
Pb 7.792130085868944 16.777642770685773 14.964921103055998
Pb 9.584552653549677 14.713943470709356 16.930656429504438
Pb 11.266509716117548 8.076433744564449 12.2585038329937
Pb 12.876739448817345 11.040563682688195 17.50226695729556
Pb 9.83226501850262 10.960930018720163 12.46074202019837
Pb 10.219101497701786 11.515809078463752 15.647684376288138
Pb 11.531949595644756 8.317736159034174 15.600204821199291
