43
Energy = -141.77842427 eV
Pb 14.868231446865652 19.170629144300438 14.44726016541805
Pb 13.233920909383277 19.333473485968476 11.510573787526807
Pb 16.847637932868203 17.748380748799242 16.808944092230966
Pb 12.869929063273265 18.92533555730503 17.04371283811215
Pb 16.239392375593944 17.607368117084924 12.086412835369035
Pb 11.630069976245416 19.905824800168695 14.201058159951815
Pb 19.18793173147848 16.824285694581494 14.706334376985605
Pb 9.62851018360291 18.065106593554493 12.589047066420212
Pb 13.609483732156464 16.529681114832744 9.980272569258425
Pb 12.644973289751027 16.638992320145093 13.327708435657634
Pb 19.198909251525116 15.584714327656632 17.638585372097094
Pb 16.101366687910446 15.327502256830131 18.801477324914107
Pb 16.757604267267443 14.73522792770487 15.378284131418265
Pb 10.15147023534716 15.88623900106137 10.349656292494496
Pb 16.649479658111982 15.636410454555248 9.647106062339752
Pb 12.112939050181424 16.560699748017075 18.99442360367234
Pb 15.412444294274064 14.303118306308498 12.358223600032263
Pb 10.302526548984872 17.216825496273692 15.920195954396497
Pb 13.779946162186997 15.804516695363567 16.321645286735333
Pb 18.627718250007863 14.674447469315105 12.165252453535008
Pb 19.800702328998558 13.56909914648307 15.219929808995323
Pb 9.476017622346792 14.910640421305978 13.467027763837443
Pb 14.690973603612777 13.062250841651409 9.421961551129524
Pb 12.661517116824026 12.746248825100077 15.401749481809974
Pb 17.70531504271443 12.670147042718517 17.65108045057318
Pb 17.897658442812435 11.491301935935207 12.12805684063077
Pb 12.233614915230936 13.505537073602182 12.024240460583915
Pb 9.250808235877491 12.786646149770046 10.792208643881843
Pb 10.356425686424563 14.286235002176758 17.380736507874744
Pb 14.9335952960555 11.005266796324717 13.541666942472784
Pb 15.667408930648499 10.058655237738977 10.209428805216273
Pb 11.593928006509902 13.67195425733433 8.597683343446011
Pb 13.315980316997502 13.56091961482542 18.917448205762096
Pb 14.589428298990322 10.786585355507878 17.159722243453658
Pb 16.990641367640674 8.347628455544198 12.582847057183294
Pb 9.510293492889407 11.83572478887358 15.498860328721664
Pb 12.066947381534177 9.344903624476581 15.588521996364797
Pb 12.187844725936046 10.813634603396844 10.046295516784221
Pb 17.727731660035296 10.314492737500114 15.17051156792376
Pb 11.284447044374815 11.167744917120068 18.122732617817846
Pb 10.725740393046102 10.518391835538086 12.805157658367149
Pb 13.699509721260888 8.375027101284514 12.231326502398774
Pb 15.222924109105232 8.136123762846324 15.208570083086878
