48
Energy = -158.59857653 eV
Pb 16.560389115921176 14.517225618792988 19.88529668436824
Pb 16.8317291963262 11.573806537234107 18.486245136855278
Pb 13.310827441588254 13.781232672885517 19.826386660530353
Pb 17.427669969104585 9.140631075998984 16.490822465160438
Pb 14.42161509287352 16.756128246706734 20.71374715934951
Pb 14.401669153838233 9.745887561958464 17.437922382203215
Pb 11.59941894306652 11.26756200550417 18.43910252015968
Pb 17.13450902040717 17.560145511727033 19.156172895152125
Pb 18.92757556399364 11.92973418343125 16.10352513390948
Pb 14.886252498306376 15.80009404571019 17.405571958818204
Pb 9.940132124022 13.906826422064889 19.115152528694356
Pb 20.169647093711976 14.90708037238575 15.4515100748646
Pb 15.72730504166902 12.008289575593674 15.434048191806655
Pb 11.769874647229491 16.591490977493816 18.788078767934838
Pb 19.43499968055994 17.855856904275285 16.429297716574467
Pb 12.293412742500477 13.75825031527269 16.474815481049795
Pb 14.995957780521245 8.84627856282236 14.350587580342644
Pb 14.085415803760533 18.875785662902953 18.27739619841805
Pb 11.702976340823765 10.273068763566886 15.199224169564042
Pb 17.324831035229966 16.15269657695879 14.45965230509737
Pb 17.818269837430442 10.316263959757295 13.534048881570392
Pb 16.847887459558486 19.712924318707003 16.805342949107054
Pb 11.415218002895633 18.427031183166914 15.723073042146064
Pb 12.966501121066127 12.465721128751639 13.07394517600059
Pb 20.39898723609458 17.38801856240181 13.407000257387534
Pb 9.525799512433109 15.59913670368154 16.38257262547796
Pb 13.222743051736037 16.585114561258173 13.627521868231195
Pb 19.512047128518777 14.445068861628686 12.219931379816767
Pb 9.242804023129835 12.293840321712246 16.380450044882405
Pb 14.307861020241626 19.62098967412493 14.727443838428123
Pb 18.03124427320129 11.949453328414542 10.62151900314643
Pb 12.329809982543935 9.14857057804922 12.246980825483922
Pb 11.805581496312744 19.65884197368336 12.728877271483675
Pb 15.005786702657463 10.616398030798727 11.246411814760137
Pb 14.74203274855609 18.751539921142037 11.605752770463482
Pb 9.936574039968535 17.041289886585062 13.147901083792657
Pb 16.050917500779004 14.209032629165769 11.902444020768291
Pb 17.835670790415666 19.322905415185147 13.757497434593933
Pb 17.958423558228965 17.26194552202009 11.196246891594841
Pb 8.548820573066084 14.00270935790496 13.70133122043606
Pb 12.0246050144986 17.252588846392964 10.568920916741426
Pb 18.147805481269792 14.76009618895349 9.110055733512766
Pb 9.836902931118757 11.162380965273018 12.541189418986328
Pb 11.98217895671727 11.397382229971699 9.961690502451049
Pb 15.4668456631854 12.951167006755817 8.820121777874641
Pb 15.253656115383473 16.208658537286684 9.345189538442536
Pb 10.612769157669366 14.116598024245697 11.271070512090319
Pb 12.575750213758552 14.435962567584541 8.770615067365473
