46
Energy = -151.59400803 eV
Pb 13.473217070876203 9.188737912036068 10.65541253282939
Pb 12.17738070447347 8.478465192337042 13.72388030762381
Pb 15.794115016073608 8.872872024493446 13.163873419093811
Pb 9.508645287325285 9.387028965158729 10.866127040800698
Pb 16.520530745096337 10.269378812291299 10.297810105987573
Pb 14.317327851903707 8.778166155380827 16.29403173114872
Pb 11.57991595831881 10.749088051967732 8.684521502660564
Pb 11.118988850521735 8.321741575900154 16.872804323950916
Pb 18.281081682968544 11.026484060570912 13.015043444207382
Pb 9.319171088988082 9.800648287286531 14.453657112251886
Pb 17.467570991397462 9.734211209987242 15.89483898034683
Pb 15.183201106473804 11.815079201340998 14.417142619478184
Pb 8.872822953148138 12.237305897892375 9.323660349180605
Pb 11.216099801355154 11.852151563008727 11.95515255944339
Pb 14.250295791080122 12.446581274408885 10.962445750914538
Pb 7.900984380205592 11.909405463091426 12.314348400641439
Pb 9.583158429482848 11.020898834337832 17.60942933914458
Pb 17.670639459591964 13.482224745681133 10.29973704769962
Pb 14.877593589832124 14.4687011577857 8.460718910046028
Pb 12.63073601415305 10.550853478072591 18.679839850677542
Pb 15.53314394937295 11.752020435896064 17.654598081716642
Pb 12.086754638920633 11.45325366918487 15.55996742441003
Pb 17.961331893269953 13.107582192568303 15.821958573087937
Pb 13.81020797163309 13.96462145549287 19.310908042339832
Pb 11.57107126620759 14.096455308885893 8.904600228881991
Pb 19.46463277036213 14.067267304568603 13.06625096067489
Pb 16.161473073393736 14.777151172163085 12.788331888185748
Pb 11.780427754759026 14.578087380324563 14.06203572123996
Pb 16.27354840632434 17.167934679215033 9.807473085668486
Pb 13.508393482433625 17.431431066412966 8.334419995747618
Pb 8.943718324751686 13.156500174404272 15.226777931410055
Pb 16.505208093931195 15.56204933327981 18.306801321552673
Pb 14.408356834527655 14.994080430688804 16.020027718630484
Pb 18.728917157432765 16.83444781479712 11.726112099804993
Pb 13.20611136247287 15.899654479556515 11.345395832495432
Pb 17.943158775556928 16.42035038981929 15.030313492911043
Pb 11.284483966255813 14.985126400027132 17.44544882842353
Pb 9.470712433762815 14.930180836471097 11.462852639117134
Pb 10.683829616298507 17.405310870606165 9.727637879425586
Pb 13.55306437495718 17.04635697181403 18.724897132496555
Pb 16.01485927656452 18.12461727661836 12.946859258182792
Pb 13.38205452186272 19.123991395319983 11.248245913804611
Pb 9.392926714194735 16.4845918311157 15.134884076292213
Pb 15.43661028766745 18.216668353523954 16.466983162387976
Pb 12.378305988465433 17.723447649188852 15.649897334085741
Pb 10.72268239265955 18.21260549868654 12.78035946947379
