43
Energy = -141.14884998 eV
Pb 16.067232234852927 14.9627891598124 9.053405476212438
Pb 18.271549751432556 14.261266965604706 11.327711187705049
Pb 19.780479486684747 12.822566926720253 14.301609630903542
Pb 16.93553441595038 17.31564018696138 11.170221756358105
Pb 18.742760192401594 11.113577673079106 11.556684069028037
Pb 14.099430483574197 17.627544639709292 9.21130065086815
Pb 18.577692336191227 9.854790029138789 14.378678633120888
Pb 13.016338723419565 14.300879990765948 8.781723377018015
Pb 17.88216011137284 15.8045136092073 14.116626787969746
Pb 15.829492576270535 11.964426882465485 10.390965424486879
Pb 16.389380504143787 18.69101731516456 14.122032447726367
Pb 16.12585043811027 10.488425279046675 16.377816411072807
Pb 12.274413006507865 15.76971844089519 11.628404850403706
Pb 14.827305652653271 19.777564045037128 11.554067594159946
Pb 16.463153341888926 12.684387832574117 13.713973091644945
Pb 14.368494747063895 15.705810838568198 14.501072007790864
Pb 11.56315450302645 18.966624073048973 11.184832402090398
Pb 14.605559049239563 9.968161918810813 12.77903607642575
Pb 17.55940016203491 13.787730599472019 16.838006560979263
Pb 19.33392793137141 11.107108795042583 17.22194781794495
Pb 15.997080156208737 16.868922570507994 16.977073183110612
Pb 13.272389481431015 18.949117547302603 14.35263270927119
Pb 10.96024209098231 16.994126874869792 8.575583807993853
Pb 12.747096402598805 10.196996192283189 15.484577593213112
Pb 12.50923727379716 11.225622905172989 10.329791167967729
Pb 8.984007167913843 16.92421098700183 11.094585450866807
Pb 14.3828304261136 17.64763856908167 19.635570232761037
Pb 12.587860208955947 17.20532485695671 16.991817156798863
Pb 10.484798384024154 17.38249658860209 13.944000362490497
Pb 12.447401887172235 12.598204645956177 13.258599431279295
Pb 14.357767561707844 13.313930116954909 17.325842856488645
Pb 16.01401740592486 14.811748149498232 19.892162768229465
Pb 16.86747117847851 11.647631842386254 19.43139186612635
Pb 9.921201805421644 14.123457377356813 9.715889578149284
Pb 11.40024833832869 9.286992968267777 12.640609476671797
Pb 9.31494796793353 14.392644721942489 13.223416207903158
Pb 13.97530263627822 10.12018708324406 18.693594287924302
Pb 11.44683724607745 14.253944891137023 16.083065471600694
Pb 9.40408629605755 11.515435320539058 11.609404944494148
Pb 12.608748732862713 15.077223159555228 19.624353761543173
Pb 13.880591717651967 12.449678221097278 20.91606501472569
Pb 9.813961411756525 11.35324107143288 14.830330424765442
Pb 11.441147824388866 12.219261387984165 18.692109241971956
