48
Energy = -159.01821764 eV
Pb 16.95100494738351 18.826338564581068 9.839725344356596
Pb 16.548928963664274 16.845616091144187 7.276778996316106
Pb 17.79885665267492 15.300074271851972 9.828394698518363
Pb 17.770125647204647 16.448171989898185 12.825922799925836
Pb 14.428809310861345 19.171177868084577 7.737477040397566
Pb 18.165144464960672 18.3207134315702 15.457111506773748
Pb 19.286230807780772 15.210757109413791 15.396800700655431
Pb 15.331308846620866 18.434075281290664 13.693566742883382
Pb 18.27732547734095 12.699705041514603 13.27190629841858
Pb 13.821334927770998 19.825921438971715 10.887700718326583
Pb 13.307905651969913 16.0977109006881 7.123021435788273
Pb 14.584859525596464 16.678695426970215 10.228246838758542
Pb 15.413558156665282 13.821367694319107 8.202384339525919
Pb 17.69372812961406 16.395927664338906 17.96730996590714
Pb 15.349633198544504 13.700724767410117 11.659323453644618
Pb 15.32423934120999 18.482936418859246 17.027945795065605
Pb 15.886887281968932 15.477454578378211 15.362301865002777
Pb 11.690249840963046 18.05084426446429 9.156224992533257
Pb 18.01759481957093 12.258397786760618 16.606524437244182
Pb 12.450132057374828 18.053128050321597 15.416008124926876
Pb 16.18396987745911 10.369598871304275 11.858494098819735
Pb 17.847900740087976 9.746041193226862 14.609440678858222
Pb 12.886069722918144 15.133471936217793 13.448796010735888
Pb 14.701009594904953 15.56147831861172 18.875110273386547
Pb 15.551000720146424 12.418723275457841 18.985738119393673
Pb 13.773198713562705 11.356282230829974 9.771638710029572
Pb 12.169483888646848 14.429513231876202 10.25832596131527
Pb 15.301420750216076 12.023313821119379 14.83058594216638
Pb 11.477100628276704 17.75094199376263 12.376702846813544
Pb 12.925300117763937 13.915367661248604 16.62151724936146
Pb 14.586461867307143 8.869469706693488 14.243324423244566
Pb 11.730931425187945 16.542594609082073 18.22462642133879
Pb 15.774862448950696 9.630244823212344 17.19680836842872
Pb 12.28384911732774 11.619377762263012 12.90259153664141
Pb 10.435032529419402 11.639496717518915 9.866672352180341
Pb 10.173792364851197 15.488841512751206 15.360821661683001
Pb 13.495913543956188 9.95717829377548 19.746275255982226
Pb 12.480101089357278 13.140350069949921 19.95525686418843
Pb 12.415866137940125 10.660561112945336 16.503180602301867
Pb 9.677215713873418 13.647988548085841 12.499678070248805
Pb 11.828481339982062 8.957828449942674 11.053035613405056
Pb 9.3352043010696 12.088246677378311 15.352345729267205
Pb 11.719349311306868 7.953741307990998 18.036586466660925
Pb 9.931214271873035 13.822532401697874 18.14397346259893
Pb 11.236951760328475 8.386343561472756 14.16655048457188
Pb 9.16911523900504 10.256657944183573 12.478428719025763
Pb 10.315206652999075 10.589609004743856 19.322979142667943
Pb 9.180064769673326 9.14003641176301 16.51228820336961
