45
Energy = -148.59892056 eV
Pb 19.705948420416828 13.624514449381246 11.091068415537572
Pb 18.785563442093192 14.738936341289946 14.1359691754155
Pb 18.748492679034133 11.307971077328723 13.117976242253519
Pb 18.450290362859953 12.344676586760343 16.297667136975324
Pb 17.782107340515623 11.377913683058022 9.367480109883752
Pb 17.086852538358364 16.00183074648224 16.814631771871706
Pb 18.20115689105352 14.492316164713575 8.456091100533065
Pb 17.938824089700557 16.428417394336694 11.256862867210618
Pb 17.01254124937946 9.55280944631375 15.298093221450497
Pb 16.521383095427968 17.42521320398613 13.99071477737758
Pb 15.786132115724563 12.648307456136372 14.608166067671421
Pb 16.340980441211276 13.438386886452474 11.27802548048376
Pb 15.635786127175326 9.974012947738442 12.403702160880284
Pb 14.682727355406737 10.461054237786554 17.152535352519124
Pb 15.69423412206095 13.315091908352178 18.130367874004634
Pb 14.954583352558627 18.44338433289618 16.62713950791914
Pb 14.446434862201961 10.72888496688641 9.569334318731585
Pb 13.125568089345368 18.437423891757454 10.339390988780632
Pb 13.348073207981404 8.219812977739219 14.834325644975374
Pb 15.633471224678733 16.552876462358405 8.944918369228704
Pb 15.165670177303854 13.48803089660597 7.891639337641964
Pb 14.078434235573082 15.524690778669356 15.305653043312336
Pb 14.14866335656181 16.11774618038119 18.95393737825766
Pb 14.189155407003016 15.887043701525757 11.950132565763054
Pb 12.99862022872109 13.281415372027206 20.236529475849988
Pb 12.24261743510961 13.544895339791564 17.108676803876072
Pb 12.551950508359923 11.359636765804192 14.475080813829235
Pb 12.711234787052424 18.283668329802886 13.733620825644168
Pb 12.169852482352237 9.28105923438625 11.95827679196678
Pb 11.524673223283672 9.7523703169453 17.302330018943497
Pb 12.805183980527408 12.873142319554692 11.443720209912446
Pb 11.72735269382095 17.3879798180851 17.059175893830027
Pb 12.36417059099522 15.72966634432051 8.730468136488765
Pb 10.159366475553286 8.75878417830049 14.48876499705305
Pb 10.876272310585442 14.479482845829477 13.830238315425381
Pb 12.020869932841546 12.593704982817448 8.328868195945848
Pb 10.839678865895156 15.617065688113291 19.640679913571176
Pb 10.397682938109803 17.21412501026884 11.28167111394433
Pb 10.013104793040604 12.512729919189391 19.165734870983552
Pb 9.725145866603434 11.445001569523992 12.515749160106466
Pb 9.353047810993221 11.72186587249097 15.76725410544815
Pb 9.583027817152507 17.51547120212159 14.50553413004139
Pb 9.180050032255364 14.954901997088042 16.89571487223711
Pb 9.81681702351916 14.002023503636584 10.314643314329746
Pb 8.088673487087075 15.481275397676692 12.568296809954395
