48
Energy = -159.09056342 eV
Pb 16.902151591895116 12.814331777659664 7.948158150864109
Pb 14.556506075640153 15.071911209029606 7.4792004304170465
Pb 14.066786525234155 12.033384843304125 9.340013819453128
Pb 17.796205373797054 15.962154080903757 7.793853438887173
Pb 16.86316266315101 11.68669394137311 11.274281548273454
Pb 13.334910007921374 10.335667060307072 12.228763819237871
Pb 11.68705654760667 14.091647830671334 9.497886689925851
Pb 19.210633640965153 13.87395699036979 9.923123568332398
Pb 16.00443809079877 14.84167460429832 10.569428678527478
Pb 15.617848763643547 17.823685206858574 9.371289520520921
Pb 12.45663003627589 17.09031583798761 8.964947388993092
Pb 11.47245516588333 11.205792959594135 15.150274846388657
Pb 16.316092444006717 9.145440574116797 13.373808081467653
Pb 18.386193187515563 10.925214125421043 15.159200972751535
Pb 10.518252205708317 12.119017902108784 12.024705159826153
Pb 11.774222115870074 9.54075897276634 17.941075040430515
Pb 18.573055635318475 16.959130218614874 10.811938253066533
Pb 15.207295090939459 11.95199609189317 14.630737459224838
Pb 13.424553225768774 13.669633172512215 12.309370783578963
Pb 13.444853320871095 17.254978471070935 11.981751715978957
Pb 12.39411031787117 14.424442901249027 15.596033127273873
Pb 18.2794321124778 13.865925882005728 13.164866775797094
Pb 10.557900429030523 15.390731772230762 12.594357621407344
Pb 13.435097890763808 8.711319647742833 15.101222395930028
Pb 10.952408075066291 12.75154007201008 18.277171326967974
Pb 14.776562192901466 9.068614385639771 19.355322754282717
Pb 15.417791726771611 15.681196666011548 14.399935309254833
Pb 14.291135779678067 12.030280091995168 17.936359166589217
Pb 18.36597766970896 16.9318887946165 14.150671169053384
Pb 16.398215442420636 8.703285712510231 16.497917701275544
Pb 10.50240320867424 18.743322083737787 13.313859894043981
Pb 17.47718374354999 13.799455655496576 16.44486546321478
Pb 9.779656262981417 16.490155725783033 15.637995733807582
Pb 9.181199916380166 13.392171028800119 14.796002703803056
Pb 13.016005527698272 17.88614787837322 15.291244261982682
Pb 12.44307629823781 11.051134223416174 20.7300742270943
Pb 16.02488555923462 19.0949612111891 13.140132701272355
Pb 13.126820774012597 20.55004544924464 12.883192455840359
Pb 14.771425103760963 15.965433084476372 17.751187385089146
Pb 17.593960293990143 11.027839066465035 18.539217056936312
Pb 16.45081364531963 18.39498623925672 16.476622772481374
Pb 15.518423916011523 11.606597422920574 21.28098495230908
Pb 11.69181313937283 16.480387039431765 18.298872305307825
Pb 14.743836579496007 21.025329950233118 15.678220130666132
Pb 11.527597654377908 20.710929088359126 15.810291413936575
Pb 16.646320535267073 14.057636439568356 19.561900226863745
Pb 13.379862813850481 14.098031604099333 20.421275197942098
Pb 13.488340176429945 19.282956511527992 18.143276165548734
