44
Energy = -144.41008406 eV
Pb 17.500129724071957 12.011289811597337 17.95732333995109
Pb 18.480512853932385 10.68224730042721 12.422163092134435
Pb 17.01247716367297 9.79058986285858 15.22371563241676
Pb 19.30487084789629 12.024189146773683 15.32459872900015
Pb 16.775412009977202 11.477041495596186 21.038631419347205
Pb 16.75145886030455 11.051664603757171 9.69905711843602
Pb 14.867693954713353 10.415921560659196 18.497299945816458
Pb 15.302426450464495 9.83015620625163 12.317713162695968
Pb 17.940027754998642 14.96840995079568 16.79169100724344
Pb 13.903093046730849 10.914238148917056 15.31310919192673
Pb 18.10758390949186 13.643889835019325 11.228690765041668
Pb 16.416698086688037 12.910971475522041 14.142549583981522
Pb 13.892686489760942 12.590912104609968 20.83072300164778
Pb 18.176889957887628 16.263180263640653 13.52682653433759
Pb 16.801595904277477 14.57367505055541 20.22031687336738
Pb 13.626216221194008 11.942357800581773 9.693199754479105
Pb 11.901710314799402 11.812648481860911 18.103571559688998
Pb 15.967870285278648 14.068482033201892 8.63706130720749
Pb 12.234315641221048 11.025834347031216 12.5666873664259
Pb 14.73350505221957 13.973420231357675 17.55090178240103
Pb 10.601256649110072 12.337927255767823 15.043788343335416
Pb 15.057386053032856 15.131390027298957 11.643081577708795
Pb 17.76696179672911 16.901539750313354 10.32412181920172
Pb 18.125820348349887 19.426618211311144 12.415438578584
Pb 18.390291406912777 18.588583259642117 15.715474137357301
Pb 13.887409931336371 15.936967075327342 20.294209913194766
Pb 11.02444442452949 13.86687323491421 20.45020579476628
Pb 15.149494284642337 17.3102297263744 8.512785165371328
Pb 16.36098468653832 17.479094830041262 18.42620323250441
Pb 11.279565365045485 13.785548193285885 11.447410491105334
Pb 12.835207163696724 15.144287703967196 8.980573717419388
Pb 9.948345178414987 14.545510855735104 17.461106266115966
Pb 10.571202731023762 17.61278645391515 16.51921169994995
Pb 15.566641393391105 16.777511186461908 15.361071257194702
Pb 15.050454720175416 18.49640751003543 11.371403320142097
Pb 13.157705004375092 14.186631462943584 14.304330317115722
Pb 17.825554646767863 21.549926343072013 14.707323394494052
Pb 12.243975523334536 16.908615205996426 11.878396399220915
Pb 10.868406010108703 16.904194911298514 19.630256581553372
Pb 15.54538335809854 20.1762343286675 16.507930698331386
Pb 13.2672476263084 18.496201298618004 18.21855913495002
Pb 10.141111201719994 15.465538537352495 14.196619051666792
Pb 15.081198488816453 20.928631878589044 13.372796803051294
Pb 13.08149198846022 18.59634555855648 14.656585648617748
