47
Energy = -155.75188104 eV
Pb 8.465048735324862 11.789911578279478 9.36598596312187
Pb 8.405126107997717 14.970363174757214 10.447146532716511
Pb 7.943981984392899 12.091633871354238 12.595917242013579
Pb 10.80995550762443 13.8897211243125 8.169703961559136
Pb 8.556185163182931 18.025691914232745 11.928026405540313
Pb 10.746622467468361 17.319470607976502 9.65890789113655
Pb 7.746144199321745 15.337946023684731 13.73773526805337
Pb 11.222764565098458 10.551780695391587 8.379507031563945
Pb 10.037362276239222 9.601035102132768 11.302927299089234
Pb 8.444854884437246 11.793892146884305 17.186453345842747
Pb 11.213184244762553 12.67914600468642 11.144468224852472
Pb 11.044909216279926 15.746937708057953 12.521617718411651
Pb 9.482037510867034 10.012061777003396 14.639434554416107
Pb 10.327190638412565 13.149231410688643 14.849835323284434
Pb 11.570287597898613 18.95743442122174 12.357965855021066
Pb 13.592931074235196 15.624308130642873 9.76669056350468
Pb 9.871654100195748 17.676123043508046 14.863142540746438
Pb 13.833803121876832 12.544333627548172 8.894538604431293
Pb 8.646680118508062 15.03279625726906 16.890977179440604
Pb 13.291985354186531 9.940186280512606 10.860468441325757
Pb 16.510090992802464 17.212757675771936 10.761296879901982
Pb 12.994919723150792 11.043841207107386 14.127254563382865
Pb 11.469749437417741 10.349438956524112 17.103512088950765
Pb 11.0993441896673 13.313598998098582 18.259390914544767
Pb 14.417882020939945 13.615205176847482 12.164984767240066
Pb 11.552053581392117 16.40873098519017 17.476836858684933
Pb 16.481419388045563 11.134431651964347 11.07212859944318
Pb 13.334193279540054 14.916834729422634 15.317673021428885
Pb 15.533888922863861 8.520855769573949 13.316777511923723
Pb 17.160599891670195 14.105678010645864 10.192647900365285
Pb 14.617547458713688 9.054386102500391 16.408548295677587
Pb 14.25544212428336 17.08660906524905 13.029722192852232
Pb 16.46251381380796 11.48658793693609 14.572083302912572
Pb 14.23990112173295 12.3549416433993 17.25367156867751
Pb 15.187028462477917 17.867034692808954 16.06118088384678
Pb 16.677816078395725 14.9863844627328 14.681484399559237
Pb 15.491966864919878 15.345173610288603 17.9622575660642
Pb 18.703204564354397 9.565759162904842 12.93388173214097
Pb 17.723581294465877 8.312045712760076 15.727201669475544
Pb 19.31248139271273 12.861623920139008 12.508559151954596
Pb 19.272293701389483 16.04914225393638 11.71434664735881
Pb 17.178967610618653 10.653590625166114 17.838788582601275
Pb 17.70171257752414 18.02545357970995 13.867507330674341
Pb 18.302526704987383 13.856128233598232 17.41432233581391
Pb 18.182870313015712 17.075745210692265 16.991721414145903
Pb 19.56732510939052 11.132667406294907 15.628340423679992
Pb 19.95203226760359 15.270277839685104 14.86070266762383
