46
Energy = -151.9885628 eV
Pb 13.426055494282053 17.17953713562391 7.3039588846504815
Pb 13.808341931450006 18.864962133153764 10.110226088163452
Pb 16.31159548750209 16.921732845833905 8.989416892222764
Pb 11.03236176442128 16.980095589972443 9.644705469306826
Pb 14.115610727394989 19.89823994515967 13.258483729727873
Pb 16.46191062194947 17.88229427628357 12.154186597484246
Pb 14.982608593292847 14.290300775188202 7.594364190886797
Pb 11.735767895166976 14.43023740687193 7.6692017866815
Pb 11.157009259562388 19.026875081019114 12.251868784576958
Pb 13.729095527406301 15.352089027864352 10.39875195924237
Pb 16.720121220719733 14.083657821106424 10.9702152876387
Pb 18.7961423790912 15.427413830981513 13.303334371924056
Pb 17.518197592874476 17.102580184271122 15.866765218812537
Pb 14.605874274334283 18.34089419293236 16.1422990031708
Pb 10.850297155105881 13.545925635979682 10.846643322904912
Pb 11.502180970193557 16.899885042307595 16.324581557191696
Pb 13.144400439913785 16.86051488320496 13.413594230887565
Pb 13.278165590139652 11.831216501025693 9.180242178884761
Pb 10.034435546922856 15.883048970774993 13.189382191319456
Pb 15.715062605164453 15.001125046575574 13.91837815326794
Pb 16.08384964163195 10.865669546897664 10.832726491003523
Pb 13.798710617820783 12.577209857094324 12.326581190712101
Pb 13.422365754463282 17.35287544402715 19.096701942347828
Pb 18.36073954660593 12.095493804554247 13.345996929178101
Pb 8.974691594408212 14.598823755427798 16.181407207726114
Pb 11.988165052209792 13.75267104620285 15.086368709370491
Pb 18.405392570585228 13.884014659872742 16.25289773449959
Pb 10.774371724184206 10.129888647699747 11.416169439773565
Pb 15.393098794053442 12.105560438792239 15.484408984999305
Pb 16.68489472976881 16.135645886076375 18.996269369653398
Pb 9.111024165970239 12.568379100915932 13.639578569247748
Pb 14.236008438814684 14.482941157801045 20.30933935038035
Pb 12.516931568509413 10.215487979990215 14.361424822979401
Pb 14.467782185884863 14.96830960261912 17.005497037164876
Pb 13.776252034874883 8.652714733378751 11.591414957153852
Pb 9.034304220773357 9.399631325768269 14.186178593124696
Pb 11.3282897846193 14.53872693478739 18.560101097349694
Pb 16.608357043919316 9.122018761923792 13.724144420747411
Pb 16.458934718872417 12.623772367866515 18.683655910071394
Pb 18.19584892636058 10.56032522645253 16.237553924102787
Pb 10.0332690462045 11.44041274106561 16.65468013349171
Pb 11.15995223470361 7.302924778077006 13.083290772741567
Pb 15.370457349635238 9.20547852091621 16.840038770024968
Pb 13.287569819018355 11.88371621818535 18.211962943075324
Pb 11.164842956495082 8.085375038924578 16.27622778329818
Pb 13.976297053075134 7.189244516288327 14.592444809257671
