40
Energy = -131.80437569 eV
Pb 12.363021414290596 14.870440192033657 18.233243449782787
Pb 9.371356868167265 13.924661140342188 17.218401008122942
Pb 10.21630101228736 16.985887671590284 16.758758245199143
Pb 14.653402497039881 12.227534880588138 18.225610793083128
Pb 15.528801600921375 15.2982119840075 17.288293897260118
Pb 11.499304964767823 11.400676913069992 17.608038086765355
Pb 13.213086079017698 17.35024909308303 15.89141686867575
Pb 8.665902982252186 14.562494782751621 14.089736451541436
Pb 11.771596105349934 14.443255981975012 15.000741501579839
Pb 14.124269460237139 9.600142380930528 16.181022344225532
Pb 8.783272633563094 11.176267366292347 15.335339984598088
Pb 17.444298663835564 12.6515583953916 16.815640184098466
Pb 12.86619806974597 19.192452498814188 12.742656827430388
Pb 15.759155281877618 18.24104086796067 13.671169844410851
Pb 14.814502040274181 12.513286092136303 14.836052933618136
Pb 10.396081243581268 17.197996953995997 13.566352479163195
Pb 16.94509176614162 14.937236271682986 14.417364199189452
Pb 11.013068272987752 8.620029291422377 15.934151041355447
Pb 13.975458159314998 15.683119510053116 12.690472955490542
Pb 11.670809718642804 11.140357574018243 13.82414043620693
Pb 9.370334532039761 8.604604337889509 13.256795063679881
Pb 8.547395631586262 11.571022908442288 12.017969658716082
Pb 11.958479710215563 13.23588500961516 11.219174275758064
Pb 14.896870163888766 18.28493505607365 10.472160400412232
Pb 9.168657054182695 14.669400155016438 10.720223527787288
Pb 11.873196582647722 16.97476564891898 10.349499775938263
Pb 17.033989575687222 16.137425008605636 11.419713083943494
Pb 18.19357785141762 11.737850432577511 13.75569829163713
Pb 9.573499841726965 11.9737159061982 8.926716231665102
Pb 16.070077779359455 9.278789612301201 13.451102441000252
Pb 12.7150092961097 8.218711645430547 13.137965728538024
Pb 11.039534302870798 9.66302027718895 10.612215367552311
Pb 14.563333147300265 15.023712775250047 9.427113654907046
Pb 15.467194342050657 12.19917881754493 11.627900292722401
Pb 11.454514796567931 14.4899647178093 8.236492409555243
Pb 13.008501941106802 11.561228751345338 8.66285279189382
Pb 18.448959602998254 13.140685611431678 10.78529633590507
Pb 18.11376602622034 9.923744184152786 10.949076373642697
Pb 15.02934843232726 9.190479732004535 10.375701567068495
Pb 16.521068213839982 11.531528856214587 8.685325305246003
