46
Energy = -152.0233344 eV
Pb 13.590424254768891 8.403872917881769 12.465909039547672
Pb 15.821260914307288 9.794618418171497 10.598471159953862
Pb 12.52400208780746 10.597233768339615 10.387380292544368
Pb 15.477255014985262 12.061833152726084 15.621810783537953
Pb 11.152184316149997 10.205081352897105 13.525263554504667
Pb 14.866820606103012 12.371121246933415 8.902234673999375
Pb 13.642162962986845 9.080338785984864 15.611219460588163
Pb 9.780313226029547 12.124170898872983 11.202934637063409
Pb 16.370684169807117 9.4189046131169 13.716935759038083
Pb 17.39063633173161 14.22310704397979 9.573393610530383
Pb 11.134512965036405 10.924582517976459 16.97812391871559
Pb 20.748298456427097 13.872122713528578 15.112314015535548
Pb 18.678688377612346 11.572654698280717 14.516620422840683
Pb 18.146649736837645 16.741401744486094 19.741215931992347
Pb 15.899932191455134 12.654133814207704 12.310835541886332
Pb 11.884003257338655 13.795471964150595 9.363068319324976
Pb 12.474422686293323 13.373169466152609 12.821051775137636
Pb 9.535598921467892 12.895498517421474 14.489233430150875
Pb 14.221476930638516 10.794376458850852 18.314598669931407
Pb 12.081726836346627 12.760352925441195 19.529572100379966
Pb 18.418049074721374 13.165190243157909 17.424723115037136
Pb 19.21139230451507 13.899102954005425 12.242032197777325
Pb 14.622916619478469 15.74608061386691 9.087312337731774
Pb 16.919305656412465 16.57204370253955 11.646247821708341
Pb 19.748277899070533 16.79964297353298 13.768750993890654
Pb 17.327934741002363 14.89255381907911 14.902798502198616
Pb 9.944577149920034 13.979611160623895 17.546579834981276
Pb 15.805761983614172 17.256055793268608 17.48306536391759
Pb 14.357033989817854 16.41474991145504 13.847131103862493
Pb 19.82346440250207 16.218484380665622 16.98161760018186
Pb 15.309803678471672 13.960587582137808 18.821303249874834
Pb 15.132576235682722 16.821848684789526 20.772788014043936
Pb 9.95302903420842 15.321464680559249 11.744576209203677
Pb 11.838586124189295 17.11139781674102 9.659389854280175
Pb 12.981824484943525 14.0844298536075 16.361019676454173
Pb 16.9559593697736 18.569575459787277 14.477695665051893
Pb 12.51238033840721 15.989136057534212 18.969437219516863
Pb 16.650060141947492 19.656438091717256 20.032880350199918
Pb 13.94469606526027 19.73981755039673 14.18482844169141
Pb 18.62813757752138 19.215074155338606 17.541854668269057
Pb 14.398581821441589 18.513127781332635 11.089053402820523
Pb 9.933114458147987 16.051244562617345 14.88166265437572
Pb 13.587994095372505 19.202697498412952 19.02549728053163
Pb 11.555621248158243 18.118292770566004 12.724311042990122
Pb 12.461049877457217 17.650667104481464 16.162888053288622
Pb 15.739832245767234 20.569652640319855 17.02138311085091
