45
Energy = -148.43565303 eV
Pb 17.40021560765308 14.724331234629602 8.667556255381335
Pb 16.991155184582723 17.35402792957606 10.381564558778049
Pb 14.378313445536534 15.65858495402414 9.464889635200716
Pb 15.181774608354344 12.461623164030762 8.466312901657224
Pb 18.122263497160684 11.912180830225493 10.038164657520465
Pb 14.14650284066979 18.61074806778967 11.483350066926732
Pb 20.50819663895187 15.964871039103912 13.937493992544809
Pb 16.87822791875308 18.695157088775407 13.561703861169255
Pb 15.037306735417468 12.90709313630765 11.650135697342439
Pb 12.276750411511795 15.824751041422337 12.043840060179235
Pb 14.089944779873948 20.51598618880167 14.132240426307181
Pb 20.19186620718502 18.05774349272919 16.81360910501178
Pb 18.103127275034733 14.603203547128265 11.932697949876736
Pb 17.406645718454474 10.65495055142645 13.120839084939117
Pb 19.36326138387269 13.062102210530554 14.742337850107502
Pb 15.305207013161619 15.891202276888311 13.195765902235994
Pb 11.482389615209875 18.73607460854159 13.320025404266346
Pb 15.6268853266416 9.93315634616182 10.443889062093131
Pb 14.386678536628928 21.089595210810394 17.552892076625675
Pb 17.88747282940743 15.902715746167768 15.817824210396964
Pb 17.300755141381874 20.04771807339876 16.67447422987363
Pb 12.499532570460538 12.953572462004635 14.034365931726054
Pb 14.06423320254371 10.037562920482754 13.276822677437643
Pb 18.85854061056033 19.398757041134985 19.553030721065145
Pb 14.939179815988068 17.901999108312946 16.10159481685176
Pb 15.778281889934327 18.05980459573173 19.314725430030467
Pb 12.342041682996006 16.135323862974943 15.354599678094628
Pb 18.92882295513452 16.02313995628357 19.062150878232888
Pb 15.712452972129425 12.817369760025748 15.222728885307525
Pb 21.07369290712398 14.930949767514214 16.864809323488576
Pb 16.18564943236415 21.043465414664727 20.489335193104043
Pb 11.968545334579368 19.252060238295496 16.53205525694764
Pb 18.27086992448707 13.039901654637006 17.739619879763055
Pb 16.073886006933225 9.666521547110886 15.935381246485417
Pb 13.054433916047088 19.870414423168416 20.3634882875795
Pb 12.463132351575227 13.509811716744546 17.49526314483238
Pb 13.007551201547939 10.556765602499809 16.272273854442467
Pb 16.43818101013895 15.216344004486677 21.23728152062508
Pb 15.433879708392684 15.005270940926716 18.06536504550016
Pb 17.27372766877398 18.275263291970337 22.30092048120222
Pb 12.590790825350435 16.863204566536023 19.00199586311198
Pb 15.16794999533988 11.72692252578143 18.43060852413248
Pb 14.71005612739231 19.97267413044656 23.16960578522583
Pb 13.849396868165284 17.119399991836577 22.19579066514411
Pb 13.473682746679662 14.23913617804191 20.768032361316422
