5
Energy = -14.36186536 eV
Pb 8.652249122339823 7.220192154159948 7.02598063401427
Pb 8.691650322424932 10.958664566321016 8.288460059895971
Pb 10.637008663320186 8.734727931355959 8.629457947131272
Pb 6.815076006509694 8.721587341748865 8.814013772529469
Pb 8.83362240852459 7.9944345295334385 10.871694109548255
