5
Energy = -12.94845653 eV
Pb 13.218293991572667 12.164847274913052 11.713159305979968
Pb 11.238580990526552 10.023958953741767 10.993682505690424
Pb 10.669355665664806 7.288651991006634 10.289445351125819
Pb 11.992574317796176 14.805673576035304 12.363544543803254
Pb 10.020372543085946 12.703425853602548 11.606542959520517
