53
Energy = -175.62888385 eV
Pb 18.36783555750807 9.779976427829972 11.763745529504204
Pb 19.980449332285367 11.483867737913494 14.096612047450435
Pb 19.099075369139214 13.050597339747723 11.423075333151727
Pb 18.840561753743977 14.830653194515843 14.138751791835789
Pb 16.350074631457865 8.24534601580658 9.646495504361347
Pb 16.147006922240095 7.460605922153482 12.87458506682465
Pb 18.566576468453896 12.826667347218377 16.74180721200134
Pb 17.667995867300895 9.369487008304576 15.14102583233294
Pb 17.40360982257137 17.394299948022436 12.18955066284769
Pb 16.781710153641583 12.348328041091225 13.9001888542375
Pb 16.852179360136915 11.5541988090635 9.391630593902251
Pb 17.285137345763104 16.58820542986412 9.16791822272543
Pb 16.096029054192158 10.641154216312987 17.798558938879083
Pb 14.798388757816195 10.404097024640187 11.767866732125054
Pb 13.425307540334112 7.533851820381864 10.8453255002505
Pb 17.419714176772487 16.012088428847576 17.106566318344886
Pb 13.95500763393907 10.195930715428112 8.567857555439437
Pb 14.812787476437574 19.055022092432907 13.328273961665943
Pb 13.302118713405475 6.882983461242673 14.455039451432611
Pb 14.251480634398034 15.746571264805208 8.386283599065147
Pb 16.86861407903911 13.691506200268803 19.29573974727629
Pb 15.473784317965142 15.845016604272125 14.312962282071469
Pb 14.199520728092905 10.15006345813864 15.089233762930785
Pb 13.844297033598364 7.8505609156769225 17.45804812623565
Pb 14.932151353469191 18.74829494713937 9.900171914934091
Pb 16.006321202103585 14.463612053934575 11.175140584450705
Pb 14.684130352937627 13.58681556499629 16.891132804088304
Pb 12.078402250791934 19.5881906346427 11.554013935110907
Pb 12.880188390703374 12.874660975779623 10.382956583212613
Pb 13.360309390812207 13.302642162053539 13.619458917226595
Pb 15.016358300252408 18.272369228579542 16.592747358346863
Pb 12.910158592885718 10.782314464544422 18.2658676495983
Pb 11.129415111412406 9.896746479908133 10.082612383841369
Pb 14.783011709614039 16.138357946850846 19.176560007334064
Pb 10.79864750020178 11.226949133595948 13.118617500447973
Pb 11.035904134969657 15.050460841163833 8.62451142198722
Pb 13.02360890935855 16.41955694264965 11.471347868087681
Pb 12.17166534751594 19.591704757919015 15.311398271122385
Pb 12.01274804505155 18.160775049072264 8.587038839491964
Pb 10.749439553257304 7.9993060525067525 12.750602368974885
Pb 12.264858699055091 16.303923124999525 15.69481385716603
Pb 11.217173050666792 9.011581728101957 15.954641712737095
Pb 11.327491648580915 12.78034132716124 16.190439952204947
Pb 10.33953694595368 14.624529579679043 13.040655376575232
Pb 9.847054866564124 17.19882003596858 10.806021519640193
Pb 11.624123771944442 15.062442729029453 18.755815726231557
Pb 12.341367213009658 18.32379549251976 18.431012268665494
Pb 9.587483592897948 12.765313101079514 10.419805326447205
Pb 8.336693700509395 12.58443909486192 14.870594235490907
Pb 9.800060629524786 17.902897748698756 13.985078960694326
Pb 8.729858323955376 14.024360622381662 17.79194830275689
Pb 9.470077779704697 17.271457421250307 17.412918839214264
Pb 7.807261338561357 15.685004478795582 15.138663321307344
