53
Energy = -175.80540309 eV
Pb 19.39832003944241 16.81439621039898 9.76142275521407
Pb 19.629218612360802 13.42170373445908 9.553435014858541
Pb 16.80170402300672 11.81870624773662 8.924686649832925
Pb 20.56550256859399 16.777954726999784 12.878082258467009
Pb 16.953654536880645 15.047204500598399 8.48861328939899
Pb 18.16872740015906 11.575458428456482 11.899328132094238
Pb 17.75816178435983 18.371684503842612 12.147700800683658
Pb 14.94721832044726 17.15981603255066 10.477160526809303
Pb 20.690048038340763 13.52374743648669 12.645775285497967
Pb 13.343928166339191 12.044774622170308 8.588977536430647
Pb 17.779222508366363 15.02123854281256 11.895178623299495
Pb 15.895733580709463 16.43710471517293 14.447165712258949
Pb 14.703408120594757 10.541345290574647 11.67468585987741
Pb 18.643758494548475 18.036825817796526 15.21314971282685
Pb 12.312509224615912 15.287496322769123 8.95070608601995
Pb 15.775946426437363 13.137820485990522 13.869390875181606
Pb 13.502813944181579 18.688634383248036 13.117402910672112
Pb 18.92714685866907 14.7764830971978 15.159332603325714
Pb 11.754853695089288 18.237490728948405 10.436663306079236
Pb 12.032111621071389 9.42588959697438 9.980669657779446
Pb 12.528158973345088 15.562336952259763 12.419190338285125
Pb 18.37105582739668 11.57987263993292 15.46811015619622
Pb 14.993308592962109 18.623558887866817 16.792281715307702
Pb 10.063577784673475 12.028804496207423 9.046828018911004
Pb 14.84498382462244 13.856407560409815 10.729978254980475
Pb 17.208649596480743 16.123382916864767 17.802213770788974
Pb 15.546174814345905 9.868222657649609 14.98677706391867
Pb 12.501025493163658 16.241297080941564 15.615713277006181
Pb 15.345637878586002 12.678959768063917 17.124506195430758
Pb 9.584921430964618 15.792269152188242 10.76185298200936
Pb 11.628776422769452 12.300186552234235 11.852768789290316
Pb 11.843816002203294 19.413590445224724 16.009902385819228
Pb 10.22791284490371 17.991510004496103 13.370528312938562
Pb 17.041806059056317 9.795118505307734 17.898040046404475
Pb 11.859861159390837 9.260971713657195 13.305291750281485
Pb 18.05471334278937 12.835255195461162 18.716384242293543
Pb 15.749539475109119 18.17043428912496 19.9499996638102
Pb 9.216726632996764 9.733961673469663 11.434651148415547
Pb 12.696860342915617 11.974714435692846 15.201122131588225
Pb 9.33974191210586 14.877546792941304 14.001856169835536
Pb 8.240033405388466 12.811442405825069 11.617331654776297
Pb 16.104378625405467 14.94872808914645 20.838265921260078
Pb 13.822412434436025 9.550321463227712 17.673858896071312
Pb 12.466433492138313 18.57007076649587 19.104211090936342
Pb 13.943936656281627 15.568400248271606 18.536122370760907
Pb 15.26001749526166 11.376514831172589 20.13576896043307
Pb 9.72476171529472 17.188452043100217 16.950321235647035
Pb 9.473618699670054 11.308908267503904 14.328240705855784
Pb 13.383279471933324 16.883056262242366 21.71035254472204
Pb 10.263789894205637 13.98949571639028 16.98274972257988
Pb 12.174674882601513 12.08048845902562 18.696584316967595
Pb 13.119891468001192 13.699290855728535 21.35007962476568
Pb 10.886534774251608 15.743547891457995 19.845485757078148
