54
Energy = -178.39691666 eV
Pb 8.196103523809324 14.85675206496797 11.069765589975033
Pb 8.956104456090005 11.922415191404237 12.297568444716411
Pb 9.30375497121054 17.273505822845674 12.795871181796478
Pb 10.476850854005143 16.859373321364032 9.548519556437206
Pb 10.407686023484784 13.386692623255696 9.173562235334378
Pb 8.836730769979981 14.448998571801035 14.478867554885072
Pb 10.015707932022861 9.172770148668993 13.917052967833595
Pb 8.475003494216267 11.257678049377025 15.931216634722274
Pb 13.04542193604434 11.849838099412786 8.326894792633704
Pb 11.564171203111764 10.576327559497885 10.883764742168184
Pb 10.934800306253242 19.729412435158224 14.42838797853404
Pb 11.37465168796261 14.404698796809967 12.122106860212744
Pb 8.849939633195012 8.29759670560613 16.911722470093387
Pb 10.954384550957103 19.630262780231252 11.188659350394236
Pb 13.228513902231727 15.159494423089685 8.500927316506168
Pb 13.64096826468871 18.185506545380623 9.912572869860597
Pb 10.366265250720904 16.99001319476625 16.16139774059976
Pb 11.577254746870054 12.069735915789538 14.605404913587085
Pb 13.372274323977921 9.328561278208847 13.431992054822137
Pb 14.76936322428193 14.605236884787258 11.582513262465044
Pb 10.114004933409827 13.670988287492767 17.41104816422665
Pb 12.814313814695199 17.190171172989555 13.454817258908509
Pb 14.876726460569584 10.723354379127969 10.826536535975832
Pb 16.011673711212307 13.18742448258425 8.858743695632786
Pb 11.823478506238388 9.115528708257203 16.73485857278918
Pb 9.85484344289466 10.679533490743657 18.874079086461904
Pb 13.70522449271724 20.216744843110437 12.597371214515091
Pb 13.086072917409199 15.024671334491229 16.385487724914416
Pb 17.017938950130098 9.604745951594815 13.410636591215493
Pb 16.061868056982654 15.53224930719449 14.776075777056501
Pb 12.8158809509685 11.909387034304833 18.02042727646713
Pb 16.00760329484329 17.90487815944838 12.381483507008234
Pb 17.901384876525942 12.148692147809184 11.514523391306831
Pb 14.996705369793942 12.230468854787233 13.912851974265841
Pb 15.167139124860585 9.903418741195066 16.18537041073781
Pb 16.35741877750558 16.392490049920067 9.374400261149114
Pb 16.010236408843948 18.681645471248206 15.915009242184077
Pb 13.022274108412127 19.237195467277882 16.88140654340117
Pb 12.117476993186806 17.006439668789824 18.938827466139216
Pb 18.55392621192919 13.178576103738775 14.71536817265258
Pb 18.10811194543212 15.346395688502792 12.086540375557577
Pb 14.458163269970704 15.02615687681593 19.366585851640732
Pb 20.15040602801891 10.324865623725863 13.355752736971661
Pb 18.67385664436792 10.278862331176565 16.356643252832612
Pb 17.159753638497737 16.002914557262187 18.05132794770101
Pb 18.936436309187002 17.302498550743326 15.322690590595922
Pb 16.14493563878123 12.87286776735803 17.153368441830736
Pb 21.14579551604043 13.315432679692702 12.837276523559503
Pb 18.298390108102943 19.069334291615153 18.14016471589986
Pb 15.22543345492812 18.35208222879081 19.220607178364194
Pb 19.515022818538007 13.141675720180418 17.909379359607687
Pb 21.65847670691786 11.811541659171676 15.813701336613706
Pb 21.31084797309769 14.97794209960554 15.686842431294373
Pb 20.216775530973187 16.519025727062132 18.369535615041546
