53
Energy = -175.35449627 eV
Pb 18.706099223295492 9.87090671566893 15.552167743065256
Pb 16.178431031615627 10.529450857251163 17.613613036468006
Pb 15.732048982963335 8.642090608151584 14.921578865926877
Pb 18.676060224025274 12.957273933169791 16.95693920276937
Pb 17.458082056330458 13.92857541848406 19.971455850668242
Pb 17.628838431996297 16.763402958426276 21.496479313573595
Pb 17.810827102410165 9.923640114358244 12.380840775458383
Pb 19.586629155560292 12.437148081648722 13.860982172288836
Pb 19.826081364548177 16.102639969105308 19.089084779859604
Pb 16.271506526667604 12.119315314886396 14.548247887860208
Pb 18.92640879252652 19.13878009095864 19.73314889262171
Pb 12.967169143185558 9.582701885551893 16.60838974458472
Pb 13.359025194641369 11.677960667835313 19.11523392183734
Pb 17.867363809289845 15.332121701995518 14.731817925300625
Pb 14.710703313802227 15.829895450427005 20.106619687511383
Pb 19.200315322950434 18.30373282970904 16.55025098260952
Pb 15.608909137770613 19.039142412649756 20.366097153079647
Pb 15.085565169611177 8.11432844498149 11.864673681900959
Pb 15.401804254849896 13.769697519418536 17.418254778902963
Pb 15.436446522327971 11.102390859995523 10.312535039239618
Pb 17.659757930457232 13.55754937061721 11.600702485628648
Pb 16.83973185264978 16.847492280511815 17.978980972416576
Pb 18.29401010740851 16.87318362127537 11.642030428596733
Pb 10.33212031354737 11.198700989340287 18.152739367856654
Pb 11.472034626392519 14.280348390224292 18.667847351889876
Pb 18.80007464455458 14.988508837511278 9.078612891996107
Pb 12.513059985940792 12.80226867237138 15.97068439454238
Pb 12.721476911078774 9.269301432637935 10.190906592283902
Pb 16.780101698673477 20.436527405442845 17.645990353336074
Pb 13.324594852821035 10.691493935141649 13.142149516765445
Pb 16.11544540962965 18.682597980876707 14.932725922198928
Pb 9.146149979219306 13.461188274860078 16.284468340148525
Pb 15.139675830023924 17.499449157861466 11.842240113654283
Pb 16.549402664364962 17.13359564547768 8.86482266952097
Pb 13.832666869651874 18.34906565441635 17.47794289543887
Pb 14.431002011997753 13.992553965638221 11.89549423861172
Pb 14.474514801225128 15.861906829427483 14.926497988502476
Pb 11.23164457552752 13.616247418540345 12.913607810099933
Pb 11.307249471285802 16.08313723548237 15.902776292394936
Pb 15.72913438459425 13.91928049791545 8.601031866591573
Pb 7.985948944165373 12.611749996933042 13.291788004890424
Pb 14.148866212486475 21.20549663965057 15.699220622019814
Pb 12.320357673069225 12.568893724918958 9.766192380739504
Pb 10.143885063043374 10.50497452184891 14.895787677172867
Pb 13.771516617639941 20.304761159221176 12.708794285041087
Pb 12.490774073247264 18.928866414502057 10.162159626393596
Pb 13.462905913746054 16.00191687040184 9.301279971021373
Pb 11.674697089002938 19.330454731576083 15.153764285887977
Pb 8.81422206717121 15.746432340991078 12.950058637695411
Pb 9.055422014023554 13.557523108558103 10.340583866939882
Pb 10.136142800913118 10.637740726547399 11.601133720829418
Pb 12.00274837098537 17.089852811603514 12.78959004601869
Pb 10.200589695488363 16.457664209300418 10.056853003876343
