50
Energy = -165.981533 eV
Pb 9.946667312687364 20.258953553242147 14.944041348224685
Pb 8.469112067250862 17.01858600951383 15.540127759805676
Pb 13.06228339367331 21.374819779197814 14.242029019341647
Pb 10.87549349253039 17.174519221694304 17.837682391952033
Pb 12.756016955186347 19.772504842177298 17.056020011590867
Pb 11.225344244477176 20.291442055799994 11.800758734932883
Pb 9.213427131021081 17.91554108352052 12.502177903817978
Pb 8.97199788909685 14.480723450290482 17.650100018889155
Pb 7.994365803290665 13.690439418326186 14.733447213521757
Pb 12.096730260788961 18.057173136694704 14.359082186887019
Pb 15.38285666472207 19.17490597470333 15.089448220443314
Pb 11.05386790722148 14.98388936981997 15.002064422729669
Pb 12.130542087614531 17.03127078500577 11.179262574787783
Pb 14.11278268197029 16.48799133501099 16.801401591065463
Pb 14.398668794768378 19.32729548061063 11.995170676099292
Pb 12.119834312820833 14.075429715832563 18.247960137075562
Pb 9.400129992595762 14.684105022194721 11.95570526205989
Pb 16.7784611000127 15.844923354929827 10.614970426789851
Pb 10.513895597307233 11.976707683865499 16.203058189246594
Pb 17.686686202158366 16.218334498077336 16.2742224322762
Pb 14.723636457966954 16.317636715048515 13.53282257114194
Pb 18.195870468791806 17.211283980385872 13.140792828716993
Pb 11.690582349627087 13.87605367234443 9.775735911811466
Pb 13.75481604321776 12.942550950579529 15.484843856452317
Pb 8.949732001645424 11.905652498538497 10.078847736702178
Pb 11.626719734514689 11.506738522218042 12.149839922021993
Pb 8.65722131068237 10.807701605027697 13.145207636582835
Pb 13.969010683682555 9.175579962259642 15.521593744494208
Pb 15.988059900254301 13.905721415943873 18.054329142008577
Pb 14.373429553467275 12.78760876277295 8.286747949618004
Pb 14.544324296873215 13.591733681686925 11.456723472758979
Pb 17.322441549559926 13.992334452027654 13.581966595308781
Pb 14.41565592611212 10.959194069190696 18.262633202815966
Pb 19.752251556561216 14.58972646830833 11.502018042572653
Pb 20.38080463826409 15.4038948148381 14.637185967085172
Pb 14.908455333877304 10.734470342437294 12.920557964775535
Pb 16.73755863141124 11.514591739093698 15.772979609361684
Pb 11.881685432328332 10.557392457616677 8.881681082033676
Pb 10.957523912565145 8.652040383588544 13.73143616250612
Pb 9.767254099509858 8.857660571730497 10.727384427390886
Pb 17.435587826266076 12.948178734904129 9.549491319250343
Pb 19.32798772798169 13.378515698846599 17.091480016880226
Pb 17.588628005529788 11.177517298880275 19.03897705603798
Pb 15.480363668020933 10.218752697218044 9.780171814608035
Pb 16.593095116221054 8.573525501972286 17.425809177943375
Pb 12.998625624603639 8.53542059236798 11.239488036671638
Pb 18.14120727555417 10.783513094489395 11.89744970289227
Pb 20.218430582646146 12.229276274400311 14.002835844740224
Pb 17.257956766086192 8.658417587332353 14.20848217077147
Pb 19.461865844970404 9.960961666606373 16.534249630368276
