51
Energy = -169.36496374 eV
Pb 17.165040108245815 18.8431590330491 11.20324783698548
Pb 15.921000515827862 16.837830085845678 8.91479469421286
Pb 13.00140207867018 20.30106900161306 11.872531318629465
Pb 20.026184596622414 17.558456442487273 12.29663601723184
Pb 10.10834074532451 19.56078966650939 13.062563442149857
Pb 19.11844399135176 17.040690607161824 9.181243601540933
Pb 14.171146662545471 17.101488286833643 11.778637341570082
Pb 11.264482486967163 18.001708832681917 10.496977725365761
Pb 15.523036573106824 20.066406829132458 13.905343599741657
Pb 14.413333634517501 14.136270278001913 10.152360820708182
Pb 17.318989186595108 15.630512277826863 11.965673847380904
Pb 11.165013829686751 14.748487871039863 10.380523473111925
Pb 18.385738367474474 18.868747914162046 18.24257017828792
Pb 12.536383971193196 20.101788333161412 15.169081702367436
Pb 17.6989729861096 13.99841259750476 9.095329976553066
Pb 17.96106312236337 17.895030934195958 15.096852862754035
Pb 20.44595447927079 14.65114690049566 10.826905083941229
Pb 12.27471906846796 11.65508598525393 11.616619544932298
Pb 10.792299819921189 17.334216805131017 15.420693177407435
Pb 12.171192041404867 14.720713516034708 13.54232423506717
Pb 15.209623338735266 13.190258069402425 13.283398027069639
Pb 9.342801117254915 16.38827570350289 12.636203296834418
Pb 15.368792626463048 11.104445036059746 10.743226572246435
Pb 14.302995461313143 17.187345423747647 15.10228973789902
Pb 15.429284773688588 19.628520350610074 17.167980116369208
Pb 18.46945361396348 12.410306488185517 12.147472685992685
Pb 12.686848180307539 18.031943062145597 18.019390199585086
Pb 20.07731699639492 14.717564018084907 14.154192119700854
Pb 9.414279782901795 13.035401106420784 12.535343178010148
Pb 13.045851828317357 8.561907034582969 12.676186232710782
Pb 13.29360132264754 14.356874920994603 16.806551665692087
Pb 16.018522599515062 16.497474937322313 18.321892352431057
Pb 16.976825233055653 14.868328591254825 15.63316418882224
Pb 19.70953703149375 16.014040392121082 17.31220593042374
Pb 10.372277168194588 15.469583751417531 18.25783996861586
Pb 18.728691564716705 16.3800588104791 20.3390031576331
Pb 9.992032426577284 9.70941480597713 13.284878972969794
Pb 10.046909288906253 13.514769383178455 15.75506030929382
Pb 12.604253230767117 11.116707123484053 14.879129488299808
Pb 16.559990059875965 10.147934174356257 13.567705087977926
Pb 13.13853561007752 15.361793268160623 20.047549686635286
Pb 17.931611557935526 13.567393996775195 18.647477274914582
Pb 18.692733425943256 12.061144186767079 15.441044493721797
Pb 14.695392693008527 12.42184510812401 19.538406350531066
Pb 9.84327028265027 10.35991729957483 16.564199915682075
Pb 11.489795501290349 12.539252629885965 19.067621965673542
Pb 14.64332453365716 8.395949289106284 15.499531048152884
Pb 16.14092967890367 14.805464438180918 21.19010642056884
Pb 15.568102739296068 11.716054909912467 16.420309534312274
Pb 11.44639867541415 7.816495177435772 15.473707901438878
Pb 12.830904026930913 9.72089937080749 17.881237115904327
