5
Energy = -13.94883584 eV
Pb 10.164314680738125 10.223859526195094 12.589119371014952
Pb 10.518528248125362 8.683783046039373 9.36454637754031
Pb 7.977957727906863 9.09169732734811 10.833016822656104
Pb 10.251105513176073 11.835676733044876 10.097815971417146
Pb 11.833396689023983 10.826516897376628 7.7927601112160225
