5
Energy = -13.9304541 eV
Pb 9.763937973877754 11.912550360588966 9.247282395186325
Pb 11.889114451786888 9.88041263863196 9.82080711242187
Pb 8.571161899528894 11.159309764027338 11.968019884943859
Pb 10.485613094168412 7.679260782925751 8.221831486299545
Pb 8.773947619010103 8.85224149219806 10.22583415952073
