51
Energy = -168.48783859 eV
Pb 19.565359333526132 11.46539299156056 11.771409136844186
Pb 17.332195868180076 9.112902738773844 12.545398445108356
Pb 18.933772075942805 14.478441508521986 10.686448314172674
Pb 20.49191852080798 14.053291467675384 13.821717216955799
Pb 14.4589537411652 7.768209908826398 11.985932151574799
Pb 19.80175324305658 17.093401341303366 12.465470242417513
Pb 16.68394005161247 8.300481670402291 15.650506725829464
Pb 16.48450713939887 12.61529310014414 11.982509758689257
Pb 18.603539023012996 11.25709228648506 14.79503123274548
Pb 12.286686744523735 8.663476394545446 9.669572607988927
Pb 15.890029167719705 14.914554253000963 9.556639833774502
Pb 17.357383096760103 15.180455440813553 13.930251303995131
Pb 13.440128087429143 7.754189773423355 15.19463540922955
Pb 18.9346687326454 13.877599981353663 16.71155659232379
Pb 14.429307221996343 10.671423583830695 10.43287878572433
Pb 17.131966194906543 17.64872242009159 10.634871898938245
Pb 17.394792691880415 10.764847422596489 17.680839386771268
Pb 19.431823325966825 16.962688511715356 15.69757935632141
Pb 17.010505166333072 18.44187867451711 13.842118010410141
Pb 14.854362859931962 10.602085831445024 14.205592849731895
Pb 14.074605062300671 9.810426953580558 17.54453778632892
Pb 13.059678061428572 12.892926290926992 12.704556659206803
Pb 15.53229630380305 13.407634512100486 16.284995274575888
Pb 11.021746985873822 11.582617798467325 10.462182749766633
Pb 12.762715275674797 14.378599578998422 9.711588191387015
Pb 14.480597053472968 16.15103082787135 12.250111258218073
Pb 15.078096486283249 12.274303984199703 19.348286040787652
Pb 11.754417007467277 9.379258177167486 12.815868910261706
Pb 17.074123507538967 16.114063224532472 18.177746039068385
Pb 14.694243938775301 16.938677703353786 16.060443224111992
Pb 16.832575737936068 19.27318521596685 17.182377380232612
Pb 14.465419441696916 19.447953607326433 11.638476055106477
Pb 12.020882064174955 17.67986425024806 10.532381570427058
Pb 10.501654047342072 15.045810547033339 12.149051566725888
Pb 9.934157087922062 12.028197207163654 13.689255267470287
Pb 10.974856026447478 9.985069963435715 16.2336904358147
Pb 14.728139502598806 18.08459330911418 19.372866652257198
Pb 12.056341419713188 14.201777951483264 15.56374479122738
Pb 14.283194541809198 20.23182965584789 14.842199631980517
Pb 11.997107233755496 17.508096809874534 14.05928358091771
Pb 11.762559244686578 11.992281042651312 18.721967172076386
Pb 13.664697944264727 15.03863547396464 18.648369143291635
Pb 13.99528373763313 20.872103867607454 18.021969257669124
Pb 11.901426089237452 18.15064852918289 17.51635037950634
Pb 11.379952217078028 20.636707226836965 12.945113055330594
Pb 9.318624351591044 18.165120747217546 12.124427131344621
Pb 9.182098512326515 15.749910029702665 15.139754505369366
Pb 9.213367545886191 12.728506299518765 16.775880108086078
Pb 11.469416051507677 21.18418740983779 16.17352198053387
Pb 10.39127347075467 15.16447831493389 18.314743098641358
Pb 9.283775085968973 19.048655660081234 15.212533361587898
