5
Energy = -13.94132899 eV
Pb 9.414247424507563 9.214680263413284 12.36724558796153
Pb 9.828269202762803 7.635456384982109 9.808508206003594
Pb 8.609312009175266 10.92441107517182 10.12414383546478
Pb 11.6569900607173 9.961194071658838 9.501447833429001
Pb 10.289675477264945 12.227539126670631 8.086944772975478
