54
Energy = -178.99542035 eV
Pb 19.971424716682375 15.892769371163594 12.538926754153163
Pb 18.352459608511452 18.733096209252796 11.975961394004608
Pb 19.50888089817194 16.974209282665097 9.471251048933901
Pb 19.91136621133223 14.5071927692318 15.563385568115915
Pb 19.614060011327446 10.895413743203921 11.820860154373896
Pb 17.6610139418535 16.827684670902467 14.783432462957226
Pb 19.95463851473644 11.42105115391794 14.864240404610266
Pb 18.761976301367945 12.776598672132012 18.876113858404413
Pb 18.446376906331373 15.813489087226408 18.08932801160936
Pb 16.53867296117504 18.49054960334943 9.158767935069482
Pb 17.666572280505818 13.326767304768262 13.22353025906812
Pb 18.782868600508504 13.631312411985109 10.037515099052
Pb 16.722232633171018 15.88849974611352 11.236507050296979
Pb 17.13012007317613 9.97736142026146 13.783505453582691
Pb 17.137903195963172 15.501609633081374 7.868151398269919
Pb 15.101350195137869 18.540332743506383 12.651825531030191
Pb 16.612259630392543 10.735363497329336 10.527527119212495
Pb 13.742274739503342 18.6569001991445 15.634778283802937
Pb 17.904987687219755 10.244609597184159 17.079172066298113
Pb 16.633103662313115 13.399404182369741 16.48293469300234
Pb 15.96459835758985 14.323000015938803 19.88229400175879
Pb 14.709364388640836 15.671263774226 14.430194387423239
Pb 15.5702969131856 11.104640028485678 19.441839619940623
Pb 14.78643656085628 10.206015662790424 16.265219482485975
Pb 14.066351975448061 16.4361939006476 8.314973153782415
Pb 15.272253142174604 16.787146118365506 17.810198937932284
Pb 14.883004588584308 13.210565893589534 9.252165323272518
Pb 13.369129082911483 15.395256752744476 11.374874671031431
Pb 13.414300090978731 13.185489591300442 17.67941763445128
Pb 12.054988699429234 18.18338090222221 18.356477485355395
Pb 12.662099279659794 15.54150218758091 19.995268387331166
Pb 13.18536514805054 12.58535675936343 21.134633009642325
Pb 13.385156433110325 10.222327370684726 9.918563200198083
Pb 12.868251834222109 18.62756110292761 10.283909179853037
Pb 14.325532007354532 8.845909701147919 12.628924735908218
Pb 14.363522561967203 12.210494767522004 12.48274672903548
Pb 12.481659477443978 10.164326926341532 18.96857965163993
Pb 11.857199622376633 15.930237820595814 16.05651961315025
Pb 11.41994697321364 18.43236167896565 13.41120936575387
Pb 10.718440130205634 16.146966218941866 9.59651666500149
Pb 11.278016731824138 12.849340633184637 10.500962785414636
Pb 11.972839211519915 9.089206742126034 15.282516228808557
Pb 11.73378116930377 12.397729120556772 14.699864259858279
Pb 10.445289526389324 15.118796005452799 13.036098249761439
Pb 10.468303771860752 12.984996877662295 19.465724227517182
Pb 11.205058528396219 10.025634645730385 12.339451374340642
Pb 9.618773099570685 16.123232072441855 18.466268620414745
Pb 8.57217398518375 17.527282576114448 11.72471282415655
Pb 8.925595203145086 17.378501727716976 15.128461914197105
Pb 9.988967188489449 10.857167125883239 17.056080689257502
Pb 8.130609503703992 14.4044082451497 10.670317215144273
Pb 8.947116349519026 13.803869451587937 16.117503248497805
Pb 8.753165622387241 12.218264162061446 13.006275706433122
Pb 7.095457297244717 15.226470892475605 13.647322622669991
