51
Energy = -169.20343134 eV
Pb 10.142705836677447 17.837300425192545 10.21574402624107
Pb 11.053282801388999 15.745910370275173 7.936503104728872
Pb 9.181000089031414 14.713198698490597 10.389379159323813
Pb 7.668550550909094 14.128269021623112 14.865317412647116
Pb 11.469944551162527 12.767318173120763 9.264674175516827
Pb 14.035116635534964 14.591611019240538 8.286660538494486
Pb 9.790038255468403 16.555785083887343 13.56805179816541
Pb 10.102051290510389 12.904292827022834 13.059751355720776
Pb 13.408420436414596 17.739068101010055 9.1620220070904
Pb 8.065418480365699 16.800008638788917 16.58120233321746
Pb 12.462107646259982 18.702127830197433 12.250590160335442
Pb 14.825654375958282 10.669919521532789 9.283650510196283
Pb 7.840460344099287 13.962881122318791 18.19746276405326
Pb 9.052082306945726 11.50455606115346 16.355483539131516
Pb 10.95929215077952 18.05971687518301 16.305899961053896
Pb 10.891385294760445 9.786537272574039 14.318825133533448
Pb 14.979463523948144 13.305883126816923 11.24553102420841
Pb 10.683866634253153 14.469798158415985 16.213825587019116
Pb 12.29297430605766 15.376183824027029 11.263441122673337
Pb 14.690197952759728 7.923234334845862 11.121802423635124
Pb 14.779796429682566 19.15803689901234 14.281038965854924
Pb 17.61289796757908 12.185740106664054 9.44709405879589
Pb 12.571818911997765 10.441899079700308 11.610209914072025
Pb 16.747538058230806 16.05390841822665 9.55845658530953
Pb 10.29007193332476 16.1642100784601 19.10915305970851
Pb 15.995618385868509 16.425632146719604 12.729966563061966
Pb 17.704148188937367 8.96586809961022 10.089334528096149
Pb 10.693257465449127 12.755189185202713 19.17816896671729
Pb 14.178604523425571 8.854749986778847 14.324675363214826
Pb 16.343942802613096 10.589255415014973 12.662081243270078
Pb 13.228037261855933 16.197605666476385 14.789537270060277
Pb 17.365955859315186 7.2184509675456505 12.80098983123732
Pb 16.160299120025513 19.087261108854754 10.980833948381216
Pb 12.300477314410026 10.82780916305917 17.03105194595534
Pb 13.173510698630473 12.352028605739683 14.207157254864338
Pb 16.182922002812166 13.807385182574617 14.687716841680597
Pb 18.426478587488706 13.866716439634283 12.06220664346305
Pb 13.945227520245501 14.071592799424108 17.489731452019864
Pb 19.062574526493353 17.23686394311707 11.449273798007889
Pb 17.91385825518406 18.998213996961432 13.821851459262751
Pb 17.548848069940895 8.869902725841657 15.489411588255958
Pb 12.980858831483065 14.755146885145065 20.584443249433004
Pb 13.478761578531534 17.30944782845225 18.32689091131865
Pb 19.4687190415105 9.700071741151532 12.832366763947372
Pb 15.37386088230435 12.502730124933148 19.97701298984692
Pb 15.602535324510885 11.111294654678662 16.80212038417731
Pb 18.780463679625836 11.845615540615189 15.182666042503152
Pb 16.34033276302799 16.656220895321667 16.577789336226818
Pb 18.89357334179551 15.943309268596073 14.51475748321563
Pb 17.541253283213862 13.710829851198385 17.867072243122145
Pb 15.965307511694697 15.687960547506218 19.819952257916498
