51
Energy = -169.03075959 eV
Pb 10.771378437592878 18.220311346128618 17.850688896901115
Pb 13.138486109782479 16.188768751298507 18.651039707457777
Pb 16.774498252703435 17.282658163475432 16.939571397318648
Pb 16.725266602659214 14.113358921754417 17.979787162731846
Pb 16.414140017570773 20.07733603835096 14.703947457396739
Pb 13.66374226523748 18.269815985930922 16.025607460734033
Pb 9.962146140205839 14.930732469857835 18.555147940589237
Pb 19.159598164451353 18.42450233227327 15.127958863197586
Pb 8.083589147873802 16.95542518519582 16.80532836824932
Pb 15.825344695576897 11.138778086112787 18.833186585302286
Pb 13.115229326660122 12.96327410533007 18.213883132557342
Pb 10.742084389921457 18.95311789872751 14.703215678449691
Pb 18.574176902748125 11.571022118916993 16.728060594145507
Pb 19.14120664481747 15.122651060419992 15.7994189173656
Pb 14.456915238408191 15.014326370836635 15.71060472819071
Pb 11.13350120509024 15.768653978928333 15.558018362818698
Pb 13.732164633286368 19.316611277771962 12.836557349485043
Pb 18.276780451122146 19.19133210760319 12.124092934792039
Pb 16.087809611888655 17.073781986399382 13.557366089221244
Pb 16.663406943055225 8.780294677609039 16.8917457650417
Pb 8.180151285093952 13.952008060987152 15.659956939507866
Pb 8.32934260189013 16.488419338562146 13.537037023925565
Pb 10.053804799830738 11.829158621468805 17.419645087349195
Pb 15.56540272296908 11.796824125836741 15.563509212966958
Pb 19.838984099505783 16.290918301970695 12.70168346309975
Pb 8.810752846532019 15.99722866761451 10.419253458637241
Pb 16.92064107432903 13.889977497610683 12.89391943705874
Pb 11.511480275115472 16.82794682464048 12.2263614578944
Pb 12.229946024760064 12.403980888706414 15.072082176300922
Pb 17.285733329061827 16.518869844038075 10.538053846364908
Pb 14.147958385585882 17.154419983393254 10.357300668255203
Pb 19.777787168126093 12.801045390585404 13.599270143638531
Pb 10.435326495472498 13.60823751230622 12.410113037049266
Pb 13.442049862211412 9.726774063339802 16.89317224094276
Pb 13.621242816702628 14.218531270164249 11.99391323576758
Pb 15.055933056040807 10.8812473725348 12.299539743116519
Pb 8.919368148224763 10.873284716957183 14.488761237814902
Pb 11.825931152920969 9.935777125085771 13.145450106251246
Pb 19.173006378463082 13.94594906996258 10.439450884483081
Pb 18.04761473789236 9.603462166875731 14.01699049670088
Pb 7.300622968965437 13.109669240886259 12.255280808351047
Pb 11.717208565069711 14.99802347852643 9.27833686162108
Pb 15.86731923637277 13.076212877661288 9.73222479775234
Pb 9.014393822115398 12.996649792242506 9.347670913093642
Pb 14.872686973769078 8.05610605788387 14.203838818531139
Pb 12.276079431764211 11.64163269736317 10.162801224279793
Pb 13.619249567897414 8.14369773940543 11.005160658689984
Pb 18.19904017886826 10.907545191517386 10.977185960107755
Pb 9.18103716032146 10.52573245544903 11.255688312243638
Pb 15.51073967946341 9.892672005200366 9.17523105134424
Pb 16.758283731106037 7.887132053725935 11.498248109427909
