53
Energy = -175.37465394 eV
Pb 9.204353734563151 16.60199079202469 18.20762417028937
Pb 7.971832372182063 13.651185366131736 17.767943690932082
Pb 9.301404106291193 18.318220928034474 15.258330795958745
Pb 7.371172877193904 15.680745290530067 15.34755674152223
Pb 11.219243231111639 19.12867484972399 17.63871970894969
Pb 11.022037688603413 13.928188518212071 19.23120451773731
Pb 12.29099951248399 17.129596158401508 20.052230227160983
Pb 7.07419501484263 12.459117507399604 14.789666897735854
Pb 8.526845387202524 14.105997671585376 12.467781755749341
Pb 10.261539400414103 14.070343419876156 15.241470107012168
Pb 13.64566736956975 14.378757757820054 21.123328024260587
Pb 10.511517942708307 17.588441842783727 12.231690303461592
Pb 12.24549599187664 17.087080131373114 15.347288863527464
Pb 13.006831500196363 19.52787214068167 13.245191982094664
Pb 9.20040620566668 10.862618248105155 16.57018967772852
Pb 12.486076099308043 19.310683091006293 10.068706768828012
Pb 14.445490375499073 18.408910361171525 17.764334342341826
Pb 13.826075869641679 15.076921094144417 17.83826198960184
Pb 12.378217759782817 12.061699682620464 16.78983129526676
Pb 15.665123709228498 16.760665134175913 20.28262211102709
Pb 11.654108646182374 13.601797107902652 11.638060706107742
Pb 11.38896550052876 16.34009504098039 9.27449241191301
Pb 9.75119825075655 11.107947201503436 13.273678042652312
Pb 11.680130356527773 9.233790501157417 15.380128255300068
Pb 15.569384577532219 19.051140914091857 11.353737354733084
Pb 13.591956296259852 16.48419708480662 11.79869473810709
Pb 13.755529050627727 14.313691876660082 14.412038205684446
Pb 15.550126230688049 17.285315798754603 14.514614878972303
Pb 17.03366965364469 16.081754288584467 17.294700796490545
Pb 14.516248867477005 17.11129662566638 8.692315977319145
Pb 16.138986096666542 12.871530044128649 16.233716670393104
Pb 13.319990429309547 11.361384008634868 13.375591069661967
Pb 14.975177712168446 9.765334639174515 15.772777705667858
Pb 16.298054666508865 13.674437793218623 19.45042465574837
Pb 17.016518277571453 14.328814814688494 13.24208794954357
Pb 17.513770619523893 16.386692534475912 10.693517478654176
Pb 15.035486998865784 13.386086575371463 10.879352509011202
Pb 13.110276809943048 13.738923212100216 8.299716023230035
Pb 13.830053642913082 8.286274477789462 12.692176492172326
Pb 18.750703163186074 16.984841259817696 13.945749078482628
Pb 13.231690463257909 10.651331984519441 10.198547946419009
Pb 16.66044219649533 7.515217733672533 14.156583290205647
Pb 16.295167031432133 14.406247598772827 7.994585455432432
Pb 16.75805468037714 10.735001762291752 12.620934283066102
Pb 19.306402916813063 13.927044081311006 15.35938920032906
Pb 18.404966648667916 10.160473089525185 15.438897376930903
Pb 16.548075369399672 8.059384310386799 10.829555884911136
Pb 20.31421711256064 14.842132905188219 12.307885534777183
Pb 16.099639971926134 11.109459195391917 8.812710247445418
Pb 18.51936807757208 13.196453876141446 10.090399553030549
Pb 19.368062069071506 8.425246334739168 12.839835779232024
Pb 20.19042747086746 11.623229285747547 13.002816639296864
Pb 19.00089437049983 9.980258150112693 10.068274958385382
