53
Energy = -176.24566337 eV
Pb 16.08629763431732 17.79530000251927 18.981741044846476
Pb 11.144565054382838 13.108860276788079 20.077175984003638
Pb 10.53564379143887 16.063018522262237 18.48212501129109
Pb 18.370211098213666 15.621082256423412 17.23132061872343
Pb 13.010045207313626 18.51279332939013 18.204928038762365
Pb 16.679454952578677 14.63286722403099 19.83586919892492
Pb 13.553823020003112 15.285489119716773 19.537372605043466
Pb 10.096857701893104 18.841806141681303 16.71897512874732
Pb 15.485718032645456 20.535610329842715 17.218706916332103
Pb 18.129132619075747 18.879109349583803 16.363102355198002
Pb 13.883230550957242 11.512022466580394 19.034672604524445
Pb 17.86476075300212 12.19109866051047 18.030116455705556
Pb 8.943798919287909 13.018516065476003 17.684595747421973
Pb 8.672708625682159 16.03962788225337 15.413033660228844
Pb 20.224591645593378 15.578713095059722 14.24074019389582
Pb 10.73274938100927 10.28762189409033 18.72533781538925
Pb 12.862525885053714 20.093585593564487 15.269630476261659
Pb 20.577611275930334 13.218119537802378 16.657431943720766
Pb 15.344161744847543 17.408977683738303 15.630168807092568
Pb 17.859253356061185 13.351382352063613 14.591929835413403
Pb 12.0761437551152 13.065040910893106 16.85729729969293
Pb 12.160196723313222 16.486067643369655 15.60722213286859
Pb 16.29283201189274 20.230283887468197 14.023616833822684
Pb 15.315252320851295 14.226110122538499 16.801016804373035
Pb 10.416213159783688 18.350778275889624 13.501479569454016
Pb 19.163226812001557 18.68897685821459 12.969960425891982
Pb 15.691147898666582 11.051901573329538 15.969733420309288
Pb 19.098077734553843 10.451002013946933 15.342346584104082
Pb 16.546844553028762 18.891472406249317 10.992394669652581
Pb 13.107415052775504 11.698671877152938 13.814568979474467
Pb 17.168304973182103 16.183603237356245 12.857079277931854
Pb 21.091837984099712 12.440335185264674 13.625179054371372
Pb 12.763663975112319 9.55339728882877 16.43109845287741
Pb 18.88904624147367 17.048125159531267 10.097349423172249
Pb 10.793156466558935 14.377992798939454 13.395086038725639
Pb 13.766108838222408 18.35818661207101 12.596154500922077
Pb 14.000890857423531 15.037741026944957 12.685794039008943
Pb 8.225670872840515 16.406461035491503 12.069877642413134
Pb 11.344515852914475 16.32183660720979 10.804800457645428
Pb 16.50893615617856 9.267019736540005 13.174369150517277
Pb 16.003621290569555 12.202404150433903 11.763864154631145
Pb 9.99891901513531 10.863343168493149 15.4701090114058
Pb 19.48885727291082 14.098554865875736 11.131371471825567
Pb 7.761552519639878 13.458620593599958 13.417367927070528
Pb 19.080835001563088 10.691351131786432 11.667593024283043
Pb 13.791469882877989 9.691994633731214 11.237990896393622
Pb 16.168462615050398 15.152489520975934 9.930673843841419
Pb 12.454744379633437 13.09029442075853 10.541666465580086
Pb 9.186985461048113 13.855051331335822 10.388882477105653
Pb 10.087405644723354 11.322926682832183 12.221572678004465
Pb 14.72077116035451 11.588025514544883 8.73144369601024
Pb 16.71983967978734 9.371454946256655 9.87456097587663
Pb 17.878929511990545 12.31292038065416 8.918511570063405
