51
Energy = -169.22708958 eV
Pb 11.28618114002457 10.67990240013332 18.38557241801451
Pb 9.520985904486825 10.001134066514382 15.810359711775185
Pb 9.10440377948973 12.994983550527008 17.306460112106027
Pb 11.002391777527636 13.733435181935986 20.269294189442363
Pb 12.723263427718054 9.286418118496778 15.51502867071115
Pb 13.51345215101633 11.316608032705254 20.586637840330262
Pb 8.468957137596355 12.426596214393179 13.905523005740157
Pb 14.054968294610601 14.210362915585408 21.68774161345002
Pb 14.649991419752677 10.338707625167048 17.786816615830723
Pb 11.786474961603021 12.58497629580893 15.525450278314084
Pb 10.688052923108897 16.19095516676145 17.965612085691504
Pb 11.118283805509874 10.612708590983871 12.856250877901191
Pb 12.49771904274633 16.764703600937796 20.578174143230417
Pb 8.853823297775632 12.037364017345261 10.624056755249121
Pb 9.532850887257394 15.41194777769063 15.018622719820673
Pb 13.445599450316456 14.336816471490803 18.209496844856407
Pb 19.122047182982044 12.697713884981113 16.23772407815128
Pb 14.71263118655752 10.21360061593848 12.891141510754354
Pb 17.255576637671766 10.083324392558998 14.933354709437676
Pb 16.21688179553722 12.883502514226336 19.11237803186066
Pb 15.42776119792421 12.723920126609551 15.610634018614213
Pb 8.332104584732749 14.992284525032577 11.827254337598976
Pb 12.794019813633923 15.989675271479829 15.102010068726893
Pb 15.666798309400601 16.250489103008356 19.7733335186267
Pb 11.898059282938277 11.671767947770391 9.667177457570643
Pb 20.288338668506174 10.42508322968019 13.93355882998348
Pb 17.139799657251338 15.438616419048365 16.88551147931938
Pb 14.762056620612414 13.403835649344572 11.916145486366597
Pb 18.03365525844596 12.949510746183861 13.131731367402153
Pb 11.40077725792303 13.904576753742834 12.34110616170102
Pb 15.092804456685709 10.932487044235476 9.721347009563074
Pb 10.402290186348745 14.59044116174662 9.191444058255886
Pb 16.17641708959624 15.735344376421075 13.778636982492818
Pb 13.714675470416319 17.733357183394197 17.685595000783874
Pb 17.912407853198363 9.97859998486734 11.5823275913493
Pb 10.23084614811768 17.68033237303719 11.206364459120707
Pb 11.582808234141671 18.801715410971198 13.924191133727005
Pb 19.522832538663515 15.914967342613359 14.727229538355276
Pb 21.379696649348283 13.442456958714759 13.788267429368538
Pb 13.33961808777583 16.841110774135778 11.804902422487668
Pb 16.828448110755115 18.382459086891053 15.303856430071084
Pb 13.741387725621728 14.189050094653297 8.996834039817081
Pb 20.57778124752535 11.963459807728714 11.028936064517753
Pb 17.72809169723496 12.848889168770405 9.70895008608287
Pb 19.825798935084052 15.294229030013332 11.43265668562073
Pb 16.61823720703821 15.840048199330585 10.33498748765062
Pb 12.40240845771843 17.567172912069736 8.80824104536903
Pb 12.382064939478237 20.105341738440544 11.03038087496078
Pb 14.690450889624463 19.540296559130994 13.1793772100297
Pb 17.987424605750377 18.044765733263933 12.298559013300084
Pb 15.210313288547935 18.823743629164255 10.022076146925427
