53
Energy = -175.6287752 eV
Pb 21.0022044703035 17.96303001917937 16.272703825187346
Pb 21.62859562239033 17.838315587083287 13.07332662982529
Pb 22.66736406953147 15.46779827549589 15.069795733855385
Pb 20.269988314701553 15.015769092169165 17.26937161895942
Pb 18.754062560990324 19.287342922210982 14.260143845284182
Pb 21.648448036747066 14.636509500024918 12.05821973640753
Pb 20.1709929406741 11.809424419702646 17.649760002717688
Pb 19.196696223020542 15.82020486521695 13.864642234406725
Pb 17.505043383867147 17.082863181670366 16.457980494250517
Pb 18.964730418074687 15.333657625350215 10.213771151614422
Pb 17.619934251466443 12.3309571454546 19.58725983441556
Pb 20.82235744440349 12.822254565711283 14.65166150527933
Pb 16.005255948437792 18.459359475395594 19.181732144993276
Pb 16.254146070262554 20.27996546481949 16.525606125688622
Pb 18.428278692320472 12.765375988067028 12.232542440047911
Pb 16.626819879475704 13.525416494651415 9.256799933960227
Pb 17.595289001227094 13.408093575981754 16.06068188348277
Pb 18.203627046905794 18.24167489310561 11.223258979557995
Pb 15.145191204454111 9.614999344886263 19.687376370179198
Pb 16.041684415952602 15.024816924461817 18.727815828486104
Pb 16.089780359799246 15.07505790521041 12.20841618715089
Pb 15.495926944937983 18.107066111903425 13.736375488849923
Pb 17.691025248685744 9.936847040607729 17.291184545827953
Pb 13.636690667260822 20.66090025960931 18.44918128640617
Pb 13.979905477355816 17.72221917087499 16.7300987866189
Pb 15.150426714663908 17.70398688443126 10.158429136572105
Pb 16.115002962030704 20.538525411716613 11.777768534875154
Pb 16.37253129648668 10.848650657575142 14.379633208658749
Pb 15.113061958262254 8.390005704257579 16.386801328182848
Pb 12.895385427829362 14.509586284249092 18.736430067289916
Pb 14.641550217754858 11.860287839022135 17.35397724273079
Pb 14.819823999446212 12.742575817917448 20.995528743441753
Pb 12.782221198034266 16.49123507418008 12.56071013372395
Pb 12.213179686842016 11.44520456811889 19.841002302749523
Pb 10.86323911111212 19.37452646144411 17.31540865248839
Pb 12.328186862882722 9.200021246775451 17.650501315773763
Pb 13.69666251847012 14.541782701671929 9.83094284094785
Pb 13.634208325902947 13.434353029595572 14.266982810093456
Pb 13.285761590769019 20.573935827349352 15.065690576621739
Pb 12.69142341869553 17.890394240888895 19.782835878662762
Pb 15.17751363649791 11.779688186822934 11.46729800052557
Pb 13.060952344251117 10.201385618441648 14.552731369318932
Pb 11.313683808370493 15.94310132093378 15.655523562129876
Pb 13.047545755983837 19.634722129320206 11.74070274927646
Pb 9.876849880066635 16.467523185683298 18.590296289049608
Pb 11.23624455663207 12.253932751804784 16.721943034959907
Pb 10.577209917124366 18.833662029022154 13.94272345992597
Pb 10.576082957641725 14.883513003046005 10.864315935702786
Pb 8.213804875925646 17.809024842849297 16.11355994656174
Pb 12.103189115246535 12.005114707311364 11.377394124313648
Pb 10.266233864178764 13.175580644082734 13.711889507272875
Pb 8.482612274492269 14.597481131037839 16.308280917288233
Pb 8.818218433760544 16.13879163186613 13.382782322103898
