53
Energy = -175.52355569 eV
Pb 14.684083926134983 12.624976673154139 7.8439126389036335
Pb 16.646495516542227 10.441202047166472 9.862585430694237
Pb 15.234671239402442 8.197247277776365 11.721081098066053
Pb 13.378992402429057 9.895461514397937 9.390684052732478
Pb 18.493326351017043 12.538171542641647 11.381623146061681
Pb 16.233857829572205 15.441271991889348 8.486071739782298
Pb 17.482352613176865 8.092968637431648 13.94604481075798
Pb 19.259617625905264 10.810205484952304 14.031461186602469
Pb 13.049315302888465 15.764089775653263 7.298429092947625
Pb 11.384786819953018 12.584182380676497 8.187790205588101
Pb 15.220884530826122 13.208722109959012 10.955092855597126
Pb 14.754788960789325 18.360467661972326 8.59143844876892
Pb 18.540322653144663 14.058433473314624 14.50119159675189
Pb 12.708915955170912 11.23520718032021 12.4043431978041
Pb 17.397229045570427 15.676587162342365 11.533435275394426
Pb 9.969769453628363 15.529222061151808 8.646611552829397
Pb 12.002270992523172 8.051783870959337 11.960095989571146
Pb 14.442612378839097 8.24726977232939 15.224308800219164
Pb 16.114986940705137 11.043321743635262 13.394997266023465
Pb 10.230009866675395 10.097315951504491 10.110635473570724
Pb 11.57775859137968 18.32949413648042 8.771446831506026
Pb 15.272682758396225 14.780456371147038 13.956923589865237
Pb 13.779021648001065 16.173713089382247 10.678135954837106
Pb 17.312830140765577 9.181602807501752 17.017032870779097
Pb 11.301869782136297 14.093370875953205 11.446647452853892
Pb 19.32971619016732 11.860147299905933 17.101512062139978
Pb 18.750395279209492 14.882721781418342 18.028276639205618
Pb 16.21598033068593 13.222362833506986 16.723635545417356
Pb 8.574571040781962 12.849597183272596 10.056776261192418
Pb 15.485131093235198 17.98593981874382 13.238954527976519
Pb 12.964318902599578 19.207210529820838 11.579679752862349
Pb 9.985977665978918 17.35094764749106 11.576261108684056
Pb 11.125020621706108 13.655314468412392 14.859822072341517
Pb 16.894837460191713 11.391475295672846 19.338051883971946
Pb 14.386618796033853 9.562009034387868 18.20948024873227
Pb 12.38242334483533 16.634253088763636 13.796571065160876
Pb 16.65918528298314 16.71177111761768 16.385375866719947
Pb 13.582480259716617 11.531919092378665 15.718286758736895
Pb 11.25647085803785 9.472645642687748 14.772707414700603
Pb 9.230465871398652 11.501842111318588 13.06180792893734
Pb 13.393238986898709 15.51663991924483 16.91233595664122
Pb 10.487671994767956 19.058556822962323 14.728657644042553
Pb 15.907788381129546 15.205708151246403 19.519932583975013
Pb 8.357587334256142 14.673335228814674 12.939866563993288
Pb 10.632337478356055 11.677984844056656 17.338161448370933
Pb 13.549563850195025 19.00236548758003 15.76492477916957
Pb 8.98194625756589 16.477171462840083 15.778817152696991
Pb 14.62140350228269 18.14713655577576 18.662961589746693
Pb 13.681040311750706 12.734759063761631 18.97261976207474
Pb 8.148504969195148 13.348367403465621 16.020439590830087
Pb 10.22970769936184 14.87452591222735 18.34213082052305
Pb 11.153975998546478 18.017944877910697 17.92180146102051
Pb 12.766194581453691 15.964150591789677 20.145037092417514
