51
Energy = -168.68321473 eV
Pb 20.401197738310128 13.522907441935066 12.02119431984503
Pb 19.394407655169637 16.585823296319642 12.200030727302527
Pb 18.921958723267984 14.010352723753922 14.911893709035189
Pb 19.10793779526293 11.414965494300096 17.098846756905683
Pb 16.658081506662306 9.770912612022627 18.58249950451257
Pb 18.52198029848314 11.90321791331856 20.266501437989998
Pb 18.709718775588485 17.225442162240984 15.37515877878388
Pb 18.818276447760624 11.888999271453818 9.73215634897681
Pb 19.323150826572853 14.993326472655616 9.246167741673444
Pb 18.09141721863214 10.964252842322791 12.988469826998962
Pb 15.823992764107368 10.950575449689827 10.27060433737617
Pb 17.132703453300724 14.100534271771627 11.867682599318634
Pb 19.384629117925844 14.433229688207934 18.489107462973344
Pb 16.368914954931764 9.123749455016865 15.481186315918894
Pb 15.867072496720139 8.551361713010557 12.322726002021838
Pb 16.34071830490015 13.044732533657143 17.759025939452425
Pb 15.239320505399995 11.884032945817744 20.624034801023598
Pb 16.911136879743474 16.722282487664533 18.042916198567312
Pb 16.16238686176207 14.045917303019309 8.695416462273883
Pb 13.478110686576958 13.409616752327382 11.10083251772663
Pb 16.11807045633586 18.706587124718393 14.188810657531853
Pb 16.927365099679243 14.678454670053863 20.61912765974815
Pb 17.09298311800058 17.110869947046623 9.966710691348036
Pb 14.816342513960063 11.633703207072928 13.831133129359259
Pb 15.988991519441594 15.378219706805558 15.264872337684102
Pb 14.541191024922254 16.25099781202602 12.487875213052066
Pb 12.940420264133314 10.06813914170388 11.56191396362306
Pb 12.684424379384122 13.359684889182947 19.196099085696474
Pb 13.344319022966943 8.567162234628974 14.433478024041557
Pb 11.373565668475033 14.749343497302691 13.395623694627409
Pb 14.507321252184132 19.30757562420298 17.025483847324704
Pb 13.721011337147234 10.539620153809746 17.0523115388483
Pb 14.92961126058502 19.23358644701543 11.25109540863816
Pb 13.868445603994747 16.507206637391942 9.351334578100209
Pb 13.752161807109049 16.37383103274843 18.638175907017448
Pb 11.32172695237169 11.402667823158296 14.584371987431377
Pb 13.120638772006433 13.778872974113158 16.088476654942138
Pb 10.773928143799347 15.375841715799208 10.133843976271075
Pb 10.266926350589864 12.214638416401867 11.480147050724081
Pb 12.749355330543866 17.19364761102884 15.261399006189084
Pb 10.398284430395142 15.61905770133952 19.033226141024887
Pb 12.032650688919396 21.31979446481345 16.778505444295707
Pb 13.183765776453368 20.45782495822181 13.988257094655046
Pb 9.964339526143936 13.134473806608868 17.064076682249617
Pb 11.80237496246846 18.078641128174638 12.021071434414328
Pb 8.835023882570296 16.842718704339948 12.76401859378224
Pb 8.413706056085237 13.46282889553187 14.099359424570777
Pb 11.208898452745792 18.564607587835038 18.021710992094008
Pb 9.224900441428176 16.262392745277214 16.054561119424918
Pb 7.901584964952412 14.30823259369775 11.070591279485974
Pb 10.153570869468341 19.284892939131133 14.829488886509802
