50
Energy = -165.7161589 eV
Pb 14.630430968624328 15.377957205068807 22.864817559254643
Pb 14.273055664850316 19.048838470304503 20.062389890328248
Pb 14.969741003815535 12.137253856562374 22.213958716450108
Pb 11.96076071134024 16.720274419014334 19.507653460610783
Pb 12.221179995749297 13.708465203946952 21.23404795211004
Pb 17.485082476170202 14.107325502862851 21.79639093518558
Pb 16.753636458706413 17.227083963596506 21.19501649361859
Pb 11.77108495048971 19.543493085928784 17.937519243904134
Pb 14.720130426152158 20.538553416012835 16.852082720726425
Pb 14.774992010661755 14.704063346167379 19.699736525066424
Pb 13.553363133414408 11.386735961147643 19.35522139061243
Pb 14.308100563757542 17.231357835848055 17.245729937297774
Pb 17.606517776448364 15.319182216657154 18.564481045331654
Pb 11.783858041607528 13.742663835175643 17.450083384095663
Pb 16.8035209617979 11.93220159357565 19.450313567016664
Pb 10.849265366974626 16.721297199639924 16.46309716121335
Pb 17.136702469487922 18.847389856186425 18.300796441499404
Pb 17.73719439890931 11.42513926295525 15.898613150909013
Pb 12.49719796046891 19.03805846773146 14.79700903116265
Pb 12.269251195241393 10.852334155204776 15.346271743665236
Pb 14.855642317533222 12.885605372381095 16.699585990528043
Pb 15.189847792044944 9.561772374540196 15.890187507316021
Pb 18.84399286297964 17.251053654577124 15.897780209845012
Pb 13.450273748457532 15.69778575106697 14.419071590626444
Pb 17.781598224732413 20.26591680007888 15.159974591081186
Pb 16.525956837636556 17.677708888990107 13.377099258493306
Pb 15.064814950029016 20.624313578852973 13.41700393027666
Pb 14.852446583212561 16.30267439783025 9.221846696806484
Pb 10.82744310492978 13.610607030456707 14.145888009912717
Pb 20.37136265834191 15.126126894182317 14.000549643914415
Pb 17.048914695419583 14.648796676635232 14.847981569735872
Pb 14.985341325809463 12.048068256055508 13.455979586863576
Pb 10.648759616678086 16.54463476841805 12.633841367122319
Pb 16.927106047067475 9.50904808085007 12.943890822135621
Pb 13.713193984084029 8.88176737533976 13.105935860876647
Pb 16.724984535814 14.648699228973115 11.495157717241982
Pb 13.270777231119578 14.287717793873636 11.479271251872087
Pb 19.901304904997012 18.09287062427729 12.75430874922555
Pb 13.494113429090588 17.802369798924367 11.705289460359573
Pb 17.753548162701662 20.322204040080535 11.803963027122167
Pb 18.942815674878037 12.450832314005496 13.108545118301612
Pb 11.485682848528793 11.055919674294021 11.902660431070442
Pb 9.84139970872073 13.735912537403395 10.942334509503395
Pb 19.857404241166222 15.140774469340784 10.823929877357719
Pb 11.437936887093937 16.078519785025676 9.467131520599851
Pb 17.867921637953742 17.511702930024803 10.227052593286075
Pb 17.639527003136802 11.614292291254316 10.306801966025539
Pb 14.45090759452086 10.506725859522467 10.342753498977764
Pb 15.391811326512618 13.18020858764031 8.65715533692194
Pb 12.106035586662392 12.68363336803693 8.889730013061893
