51
Energy = -168.35508041 eV
Pb 15.862825033826617 20.964732915755164 14.896954019871947
Pb 15.522727394696867 19.352886694196968 11.708691106439884
Pb 20.038563407032626 15.92972617662943 12.724693885469765
Pb 17.524369909047806 16.717739385287665 10.863890601129182
Pb 15.804244974819504 14.567052166623665 8.91092471972968
Pb 15.310612385680763 17.902783723405495 8.75826544985982
Pb 18.083130229006475 18.425394930220357 13.704711410214024
Pb 18.27819644577523 13.349990181069707 11.150255316079917
Pb 12.996994875451106 19.552839221583586 13.726556486443009
Pb 19.66031739916625 13.258967640995492 14.325583573074026
Pb 19.23890084787729 16.249934244140455 15.880952703653575
Pb 16.25472398188241 22.005704312774483 17.92713866706566
Pb 12.38950635578122 18.634726231739748 10.295799750225939
Pb 15.196138572785275 17.659514384424117 15.482158611650085
Pb 12.744456168527162 16.422765451539927 7.916058819731597
Pb 13.942048700401557 15.982098187725253 11.30447941398672
Pb 16.56964458071881 10.461789938817764 10.17656281873481
Pb 16.860273670770415 15.118683455755214 13.838406776813452
Pb 14.93774385758424 12.648169758571878 11.98002909869119
Pb 13.679206747181329 20.273032595401556 17.234151590311694
Pb 17.68145884276392 13.631471449974839 17.094054444225655
Pb 17.812690271843216 10.678095130885637 13.152783874989549
Pb 12.885375181058773 13.346879406955582 9.135012989793568
Pb 18.368351838064843 10.554030035274684 16.323537908204084
Pb 17.78457550416637 19.368372257543296 17.07524639030558
Pb 10.702566292486592 15.553475944098858 10.23265920786656
Pb 14.995895484994255 9.164594672113486 12.827846242477
Pb 16.705053335898544 16.665752485190186 18.377995715072764
Pb 15.645825589883989 19.57776738399956 19.877679359581823
Pb 13.442941936489966 10.248123905835145 10.137867159322758
Pb 10.382333288124652 17.396488862184896 12.905747044975937
Pb 11.827603876102266 17.662261168827825 16.05037874196388
Pb 12.213599758630469 14.701669745940066 14.17658068620883
Pb 11.115030757709112 12.370719274245289 11.695121155804346
Pb 14.30380906803622 14.622691383161268 17.11860098812048
Pb 13.208428265413833 17.415199138728294 18.94914889539038
Pb 15.929821613192475 8.51813407510343 16.31418858786907
Pb 16.488886203789622 10.437251681465337 19.019436812036364
Pb 15.314703321807754 11.707981580525674 15.344221673652871
Pb 15.951215203655558 13.52185574600765 19.995642630279267
Pb 11.740175343926689 9.445283622005071 12.915075546824479
Pb 15.255670840072153 16.551638934446903 21.159375589040387
Pb 9.012293459701182 14.192943447159834 13.11256820760165
Pb 9.152112749193249 16.048675054624102 15.579910755775781
Pb 10.966358939018155 14.072674126964175 17.281958467211737
Pb 10.688122842973792 11.819851472041625 14.995021321665037
Pb 12.84895819007272 14.127436845353218 20.2337380644642
Pb 13.808385689080827 8.563326600160174 18.99468695116811
Pb 13.10897018986499 11.612036408078806 18.053826364877313
Pb 12.946703377329044 9.242151934952055 15.840553223522752
Pb 13.997591909299786 11.015157457887149 21.080238529356734
