55
Energy = -182.81908429 eV
Pb 9.34755690180754 8.578434642205167 5.47565049632994
Pb 13.679941011772664 5.517053910108508 10.41071944640022
Pb 10.71293888527772 6.585535154057853 11.697740073287816
Pb 10.978960477858998 10.649719955427567 7.9710638160055645
Pb 8.129658460694685 12.954393508067298 8.801322313967832
Pb 11.68210490344952 13.63635342508611 6.606686371850502
Pb 8.86856748798643 11.775678262532713 5.633315171892893
Pb 5.526194791552994 12.209831340937226 13.864087706314555
Pb 11.901174739213754 9.528377594826976 13.319230083068183
Pb 10.975448993500763 13.77722311957669 10.12256110544379
Pb 14.578624937771433 11.795256086959624 12.802185895082182
Pb 13.379603010234101 6.500345763121152 13.482431294826961
Pb 7.52186265953995 9.704043612042614 7.92273204253128
Pb 8.363862517929832 8.678599396742708 17.515227916630696
Pb 6.278521875161218 8.586060361356983 15.006730259891063
Pb 18.51532882700765 12.325425625787668 10.421417295036182
Pb 14.034082063013736 15.140720947669484 11.92956476050822
Pb 17.23246760651889 12.353851058154289 7.462818684840085
Pb 8.363794327182994 13.171055020321788 12.373669549204932
Pb 5.93684970668944 15.452102470440549 13.39856632799928
Pb 9.702357898819402 7.459314677307645 8.666917697306511
Pb 12.391793792198483 16.538571117743402 14.345621048225633
Pb 11.791160592971163 10.53638037629103 4.750523454920336
Pb 17.53728365917554 10.400625714162105 12.862721045962404
Pb 13.874168623351883 12.579419763591806 9.326014105203123
Pb 16.405515631886974 14.720111049365933 9.534999254530367
Pb 9.825277808764099 16.007321719148344 8.063564308259869
Pb 11.646118703868593 13.417815163295824 13.620567977973511
Pb 8.917418133130356 10.522204607580077 14.633173693317785
Pb 16.724460361299677 11.965377333349766 15.556513910077665
Pb 15.946186756329181 7.48493776594274 11.678707553336286
Pb 6.184041396839393 10.536760153743828 10.880236803954938
Pb 9.771642196701954 11.682628223643608 17.62511430496151
Pb 7.839704714641666 13.871342251813696 15.64851839879493
Pb 9.471483959696247 10.168697558731496 10.861232308048196
Pb 15.209039760960353 7.318039967081839 8.27594674291296
Pb 5.456075762161689 13.72780857436931 10.691642711404253
Pb 14.423318418344271 10.641582512027904 6.70380515556601
Pb 17.173554393074216 13.91456354909006 12.937364945268634
Pb 7.506847413371463 7.922866191304832 12.075009130442503
Pb 15.038703560435819 9.008386605740897 14.669637227412771
Pb 9.401758594011739 7.13344074657733 14.781309431969346
Pb 11.431651650018285 8.979750824313047 16.527032678069478
Pb 13.133553435764718 16.050899972011955 8.7768216694425
Pb 11.052541803045589 17.041465537613767 10.972005532914055
Pb 7.8159084978859 16.03487264850718 10.736072053045353
Pb 13.460268269663965 11.684716047103533 16.248835985635814
Pb 9.166903112909432 16.178010760175983 13.75061936832019
Pb 14.853936907607023 14.253690812301288 6.539682535087332
Pb 11.716818093062114 14.350498049938723 16.67143939140518
Pb 12.312947687637276 7.833339477207915 6.711070783648236
Pb 16.104736471306847 10.136865084283944 9.694808691740858
Pb 12.829581271540528 8.676196946806593 10.155514161410682
Pb 14.807710879986423 14.516248397134325 15.273321161768044
Pb 6.475519051956418 11.192722013858994 16.94344761513486
