54
Energy = -179.50490114 eV
Pb 17.590851212582443 13.679497012621368 8.152196727732564
Pb 14.658371761850782 12.839129912867795 7.390166584382637
Pb 16.469547165015822 10.584426846546126 9.169516106333957
Pb 15.124832109425492 15.853229117630518 8.8673175508032
Pb 19.297978044191034 12.100490953062804 10.529904190829308
Pb 18.01022254047388 15.4968797196232 10.73311076385416
Pb 13.098782378096494 10.732994179520178 9.674108289387524
Pb 15.370081452790567 13.188083370472999 10.733909833837302
Pb 12.33612995500314 14.009503766819984 9.264828133807132
Pb 17.94820028451792 9.380697080112645 11.98743764195218
Pb 20.183387153352637 14.14827285339207 13.022726846387366
Pb 14.89133193325006 19.449015007558856 11.583087315318336
Pb 12.481441137567689 17.44152733684198 10.709358437899182
Pb 14.676097995609238 10.153954464299328 12.783283414584046
Pb 20.662854638960304 10.861637871714334 13.174729197313813
Pb 9.911026641989082 14.739100997360863 11.28336896739285
Pb 15.194659811280491 16.171676915421635 12.452301574094127
Pb 9.89305211605943 11.442406150995083 10.310403229809218
Pb 17.497381993647437 12.266325234791859 13.447553490701619
Pb 17.46019004085478 15.386138485434898 15.10025611044432
Pb 12.225912222163837 12.550772304284132 12.37935436811552
Pb 11.4078246478193 9.064577296092011 12.221748803263514
Pb 18.435481600508595 9.694699225934304 15.270578309410256
Pb 12.049194180128728 19.915652526802457 13.11691870590748
Pb 12.002449003297825 15.729488974828485 13.581543346556721
Pb 19.789025984624818 12.572155343444583 15.790891238063907
Pb 17.15487808444749 18.576112263648458 13.651817184948408
Pb 9.22714300572208 11.350989546681005 13.421946900325416
Pb 15.001865496858343 20.931461544267588 14.509845214364493
Pb 14.57708081284799 13.398593532537724 14.908644445107678
Pb 13.214773057827971 7.994971665832814 14.82817451082408
Pb 17.56674506715833 18.577961682254596 16.979337612867564
Pb 15.15623298207385 10.30236035752722 16.112486692558473
Pb 14.287931448432973 17.936988968261677 15.310998755784196
Pb 11.7450857045769 11.77493611043604 15.581502156445806
Pb 18.657258526252114 15.684082177258391 18.25461869751776
Pb 9.651286117523243 17.71551589704473 12.325330722897545
Pb 16.857060144486237 12.992331515300362 17.391373725234253
Pb 12.351489704798299 20.268066783112346 16.363821095857563
Pb 12.36174042702846 9.38270743375952 17.61070564537964
Pb 10.175237485732772 17.825578593062037 15.589826830232779
Pb 12.18407754004131 15.142240963200372 16.846566327765586
Pb 15.294375250016506 16.19339092588524 17.88315363161396
Pb 9.354316943699843 14.259570459181527 15.355513624061883
Pb 10.114079337915033 8.817349720924328 15.191805743228908
Pb 14.842672660192006 19.515450210127185 18.643341087525094
Pb 17.241094660959252 17.717924413031007 20.236676039549874
Pb 13.738957747860308 12.470078737288706 18.497244162725558
Pb 10.267704805680339 12.760947497002723 18.290879216801912
Pb 16.35971782715846 14.551884844652001 20.396180050900224
Pb 11.739487538545697 18.060337285682536 18.780979434196187
Pb 9.227291646817724 15.87313699092561 18.20582040106675
Pb 14.180988626032692 17.12004352301191 20.899608969830876
Pb 11.718439216283695 14.97717280776529 20.187757514830043
