5
Energy = -13.42552086 eV
Pb 10.676456507593205 10.826829330689257 13.86167960434354
Pb 9.841069812413043 11.488211379660001 8.890111484209486
Pb 11.072443132010768 9.583379158167594 11.15965048890167
Pb 11.322744866487122 8.956046957193571 8.229840487833318
Pb 10.630499452798178 12.73770424336653 11.548467730768095
