52
Energy = -172.20866015 eV
Pb 10.989871201026098 13.154478211667621 19.464397429663542
Pb 8.120888011296739 13.870513060162686 14.787972469837682
Pb 9.241360746504123 15.259804994956012 12.021884269530181
Pb 8.232484907363753 12.735190289180913 17.814057895772933
Pb 8.543030151223446 12.056439672753127 12.04583165201186
Pb 10.121896347576454 16.457989610820885 15.192770111180264
Pb 11.612733733177526 16.193264545971655 17.96873838080847
Pb 11.534930529332227 19.353621963821677 16.52129893426162
Pb 11.421823507328774 14.351641622955162 9.73570767743011
Pb 10.37005061837076 19.035326139622917 13.344891142314763
Pb 11.992612911333731 21.60644639826753 14.428219123392896
Pb 14.199123114309531 14.178923526243606 18.38804579956381
Pb 8.871832571848762 10.617608326686428 15.194778007949672
Pb 11.191564452439149 13.002817074773871 16.259560454244248
Pb 11.532560805524161 12.952492391971779 12.880910362221226
Pb 10.207601991239706 10.24124012732644 18.190254938587877
Pb 12.259919398344929 11.343739840685455 9.893088796222669
Pb 13.603362464061282 15.46682124912446 15.189359761029985
Pb 14.506953344293711 17.817445531105783 17.13854311874268
Pb 14.560901490807034 20.892879888863508 16.143549081086405
Pb 12.331329269734104 16.381462925249707 12.34577997474735
Pb 14.53539665690424 12.181122226860833 15.547654967289626
Pb 15.397450949340165 16.926837900754546 20.293644151694682
Pb 13.699498461077598 18.94997193761293 13.726814282172075
Pb 10.8194419379898 9.78933507787773 12.334043265551346
Pb 12.088214542827556 9.693312942585509 15.51844790313593
Pb 13.34267084329955 11.027889278718428 18.39540716761478
Pb 16.97739791200063 14.889589240971745 16.26554743990682
Pb 15.612354067638453 13.755582018250147 8.25934056883034
Pb 16.54998768903942 16.08942121678888 13.097668912746412
Pb 17.17747018364253 14.283211538699028 19.626581552934358
Pb 14.11840571361356 16.36939176243751 9.370805671491135
Pb 14.13421625732737 10.53304042184531 12.69790353301556
Pb 15.769148940396386 18.67335239251924 11.182754578340917
Pb 14.502264507562996 13.628959442448663 11.33008697133664
Pb 16.464530968047427 9.387943832308464 14.823903471124368
Pb 17.650840584317294 17.91730581584587 17.92031247935154
Pb 17.323318505936168 12.471222787194948 13.549867917385322
Pb 15.514429031663962 10.872140781745935 9.637253203072778
Pb 18.48997980739431 16.916610298767548 20.779553108217875
Pb 17.022912015477957 19.05382145494772 14.532539497319876
Pb 17.490285086715822 16.17617469704184 9.584134826461286
Pb 17.723452159093018 11.71465777849474 16.937833038190522
Pb 19.743162165862756 15.426590040067115 18.098239959042278
Pb 19.342193442193004 16.82677983873923 14.880167819744027
Pb 18.277225148414747 12.700159452678188 9.915594783492555
Pb 19.543229445923735 10.039906728075733 14.830079477774905
Pb 18.826384068278983 18.22391386432273 11.767562136592222
Pb 17.878157482266566 9.708567126659217 11.84047786479835
Pb 19.558498481903086 15.037324391875844 11.999142375143727
Pb 20.091636258636864 13.2945224468192 15.22523664302165
Pb 20.396821202761107 11.817033249934516 12.251865489161256
