55
Energy = -182.38412004 eV
Pb 14.584137993432906 7.959248558409312 8.190193854696938
Pb 16.958415190865853 13.754706102136884 15.22557554654118
Pb 10.667177236430302 10.927709085233978 14.73488840542703
Pb 6.428598993753092 13.573177703134295 14.986602681965278
Pb 9.916803353569916 9.681412168301378 17.93716219611058
Pb 15.129651260136637 11.389532822294676 6.920993432400407
Pb 16.79317244337396 10.627611435418077 13.532559012120158
Pb 12.436183458040572 12.029038492473216 17.89638865345523
Pb 11.972734339139606 15.074025032064645 16.692052313139275
Pb 9.456190100990916 9.276244049574668 8.082868364878436
Pb 15.068859777984482 16.450531076299548 9.115067819089571
Pb 10.281282103089575 17.340087709200716 13.839657280253745
Pb 12.808602871433079 16.42605127934235 6.722635666928465
Pb 10.172043227388022 5.612821140710994 12.565564350856008
Pb 7.105519723663673 8.752446368293475 10.327064235266995
Pb 15.58630018944413 11.129560875924577 16.894240879155266
Pb 6.604821567869599 14.135958767260723 11.765431220501071
Pb 10.41350274606831 8.757021848704081 11.616174555815384
Pb 13.168267666071138 13.536104725470068 8.508613237869284
Pb 11.615555470617874 6.972398377643906 7.249222174202103
Pb 16.784497562027894 13.601970478405889 8.829521460030513
Pb 7.619957126947489 7.689245853291306 13.254184997208583
Pb 15.049763104038949 14.13818585789379 17.82240576808859
Pb 14.636453766147962 16.098894162674473 15.2656595697676
Pb 8.693166829253908 16.576130600725502 11.125916690239883
Pb 7.523487575530307 9.971893570516828 15.731170265300321
Pb 12.543191665954684 10.060641443167796 9.35725577075619
Pb 12.59720092986505 6.112408612853089 10.270284107148807
Pb 10.144894459180387 15.229918093211456 8.534267397923102
Pb 7.420289439966299 11.82711082370591 9.31482012169883
Pb 10.02132358264036 12.340165038799034 7.0079502438292
Pb 13.625076090834565 9.996259077460907 12.71305169544289
Pb 9.08870313129569 12.673416982175471 17.02503105899759
Pb 9.284929675598818 6.275944386070301 9.5046765147674
Pb 6.90500775091722 16.65334687446045 13.820651473036133
Pb 10.028407540287196 7.5852771099795655 15.422372164281324
Pb 13.671813433154 12.916071720851757 14.817324144960953
Pb 15.398773246022984 7.489748772365018 11.440140156983635
Pb 17.922571394122112 13.040630591007869 11.785684575014256
Pb 12.764694345353226 9.031271765835308 16.52850696360888
Pb 14.60519421641571 13.14948654604929 11.492694104894827
Pb 15.479062540495356 8.223642865306491 15.006308769563805
Pb 11.739343749295841 15.132914422029444 11.540305448721858
Pb 11.99117402557074 17.739953969795334 9.569030038923572
Pb 13.717463504678667 17.5553384666611 12.218985845712332
Pb 8.600775886353619 15.828204518419021 16.315779728008177
Pb 9.421348534955442 14.131909447365537 13.623017345279669
Pb 13.011270936340068 6.765043283092872 13.536278800506587
Pb 16.058193975927004 10.462654985257068 10.18516387958775
Pb 12.821342355899747 13.179387557096947 5.268254557441397
Pb 7.986043179973997 11.097210869103188 12.555837506060618
Pb 15.47792838167886 14.712160306074985 6.14180993039668
Pb 12.171991319044178 9.956083742827104 6.070598141844764
Pb 10.411982214876646 12.327137914676909 10.355370300527953
Pb 16.35374691827219 15.763535775182723 12.485618685054154
