51
Energy = -169.14255182 eV
Pb 16.591173310018547 8.905133254327525 12.612343792666431
Pb 18.747157680400495 11.284124497950772 11.471258390586238
Pb 16.821705401637843 7.978647422834056 16.56589922382947
Pb 18.583787500223746 10.320931495682032 14.815507547485158
Pb 15.66189721414174 10.96224038332758 10.128614827545258
Pb 12.852065130542758 8.88106076980088 11.28818800318036
Pb 13.893424443347788 8.35149271132271 14.463319894633912
Pb 14.803884102771557 13.585192924202934 8.119132905180106
Pb 18.984270305694213 13.447696129121294 13.921286786268485
Pb 13.669528060493969 7.889367436841445 17.704706408858986
Pb 18.39275749751889 10.397271071073204 18.14722677231154
Pb 16.12852097095908 11.99042348917383 13.335156460336043
Pb 16.005943422234534 8.904687358772678 19.660731127336422
Pb 17.395068671507975 13.754573213690373 9.961509148404037
Pb 12.361383043241243 11.683784953848077 9.54552999308043
Pb 15.170669886682441 10.836676846775706 16.711789434033808
Pb 17.574235807913396 13.408933851791284 16.835312968291458
Pb 12.557495028561382 11.32972444955634 13.437898669924241
Pb 10.735994259601618 8.462858140329546 13.829247459644073
Pb 9.938906340888735 10.319096297210413 11.392801141579833
Pb 11.935045543308613 15.019252573388032 8.811514166140343
Pb 17.963067782700815 16.15497555776622 12.220676804498105
Pb 14.814455050636482 16.56158025652737 9.635960385490046
Pb 14.099777431286789 13.953098974811935 11.493532206959904
Pb 13.259525189912887 10.628230664894513 19.512839899039005
Pb 11.56708218198387 10.229741597116387 16.520058356966707
Pb 10.432507723775608 13.666525791467633 11.58508412353486
Pb 16.049934575880055 12.177633232921092 19.70125792687356
Pb 17.438358620334142 16.534592604436526 15.630258573333663
Pb 16.989755524199396 18.97531744594658 10.762897633920282
Pb 15.201221171230932 17.551643839697224 13.270862006834127
Pb 11.815365126230827 18.348236711913472 9.057977720200318
Pb 12.062293447596838 16.718330937021726 11.963109837570059
Pb 9.225112036408845 16.576616859991763 10.004534908372069
Pb 15.489602699164429 15.355333280401515 18.361411867388128
Pb 9.461089200142862 11.697640978834619 14.328471580144594
Pb 14.823046431377229 14.452564583819752 15.145264292236805
Pb 18.444877518172422 19.058258543515016 13.696647417174837
Pb 12.92481168134651 13.441560822813786 17.659812229067512
Pb 13.653196009568035 19.908071069357067 11.119883006087266
Pb 11.256804055544087 14.845920269506728 14.881817667078058
Pb 9.672503152683703 13.274697804025223 17.33132439132549
Pb 8.5417972936851 16.272991522828637 13.06843055035685
Pb 16.03765408389963 19.52693509076837 15.927480587324812
Pb 13.087301587266655 19.800972245169262 14.356168492157515
Pb 9.979325241531052 19.122752870145757 11.871709967075512
Pb 15.969288195207518 21.04186971198312 13.075009964035976
Pb 13.535038188900742 17.189662773936288 16.470329842521714
Pb 8.11937759933334 15.795231589440435 16.21625947247936
Pb 10.774819009534712 16.269154068998276 18.00942074763384
Pb 10.302682019813915 18.035993242833843 15.24590695657159
