55
Energy = -182.52032811 eV
Pb 9.874143829160818 9.816304812272053 7.333643070525935
Pb 14.936582739039695 8.77340531680523 11.819729082207962
Pb 12.171692916168988 7.233934596328195 12.360839020565187
Pb 10.905627522142648 12.159286662884234 9.4957209978829
Pb 9.025111874092486 14.915368740291825 8.652314175892045
Pb 11.95554891680305 14.747250716899087 7.184112438434647
Pb 9.576648575330747 12.80811535671019 6.267229417212095
Pb 7.021627555853251 13.117080951843244 15.191621152805503
Pb 14.020823779311723 11.239994491720271 15.173461211562582
Pb 12.250904174136421 14.929961773381288 10.682087175067034
Pb 16.365943006924113 13.03072253405314 13.61280755875499
Pb 14.25924755946406 7.985627613994311 14.996207042280277
Pb 7.770007713305567 11.841502711564504 8.942879432143249
Pb 9.592647881569809 9.890846853636571 19.001406511673363
Pb 8.083583593395385 10.099794752310276 16.076269697873418
Pb 19.946707829273986 13.588938922000905 11.7847555699035
Pb 16.40999922256 17.434019180082686 13.865932567540414
Pb 18.266241393163376 13.88684625569583 9.127552993930493
Pb 10.032280693361225 13.754133196908631 13.513044451104687
Pb 7.577034095578574 16.096760330731772 14.180740761613324
Pb 9.518561742329078 9.021183452335217 10.48426618754162
Pb 13.840610612994613 18.10751075816551 15.620627535602612
Pb 12.636383162116788 11.460486835322845 6.836222126607973
Pb 19.508800350799305 11.632830664278348 14.167797770604231
Pb 15.846288170303987 15.38352338441324 11.214839661043998
Pb 18.8549732281489 16.676644783619757 11.244333906898195
Pb 13.959640144047373 17.16463133402116 8.920591600645551
Pb 13.496721188030499 15.013831400448879 14.116658576058402
Pb 11.04958241760147 12.196599443840949 16.62816884251744
Pb 17.313050226438786 12.274122716640719 16.613774170683353
Pb 17.0438563616243 9.658745329359412 14.357530064100134
Pb 8.004216035018189 11.09959501988996 12.753338215327696
Pb 11.185267381995084 12.629122193833973 19.81296725321451
Pb 9.251111763075846 15.150039597462763 16.73595111595421
Pb 11.610302275432742 10.488349776872944 12.64353224974239
Pb 15.403909033074177 10.57935404969578 8.812398991367855
Pb 7.261916152811012 14.039934307909595 11.661396598399156
Pb 14.921677260971425 13.901965107813478 8.433872056194346
Pb 18.75524298221656 15.039238969142273 14.44891860506337
Pb 9.387124974395661 8.110202423928573 13.641881829994713
Pb 15.666270626550412 9.591902681569366 17.493068581789196
Pb 11.225062330991024 8.921733663205538 16.17053463642819
Pb 12.759175039116178 9.94733227749296 18.896436456717456
Pb 16.20829129981735 18.769691010312712 10.854938717788416
Pb 13.315062367339888 17.82332231793623 12.21573638024457
Pb 9.449880161936234 16.430844263952878 11.56996881119761
Pb 14.279920087070597 12.76803952732838 18.16833812612806
Pb 10.941715824482122 17.080621943749957 14.650677823397759
Pb 17.09542015576435 16.816889993451234 8.398802104820891
Pb 12.594029014080592 15.554559104283936 17.27485871627595
Pb 12.562308467120022 9.00942194486961 9.494079034065825
Pb 17.74204271378536 11.10338049227987 11.2019359423221
Pb 14.288830477606718 12.120824070773555 11.317156770283018
Pb 15.835122258903263 15.431912215197437 16.400309499419283
Pb 8.114376267412105 12.620864600526502 18.450884138624726
