50
Energy = -165.24750415 eV
Pb 16.03384937168623 11.968915408447149 20.69869421927426
Pb 15.80632240444392 9.99090231787164 18.1887883043474
Pb 12.991339625202315 10.786791786275892 20.040974605515245
Pb 17.55079641075954 12.916997890499315 17.928793950329815
Pb 20.699509797210524 16.167372787038058 14.724912621174228
Pb 13.451751227004412 13.760007121496818 21.361496248296913
Pb 16.174010796802825 15.165027042245832 20.020880233746645
Pb 16.15961512216114 11.574826254999321 15.153894927856397
Pb 18.616479625093806 16.640956923299644 17.370424880371004
Pb 19.98369267854823 13.529127287904773 13.010908102427248
Pb 14.285593189434936 9.2786738519843 13.305908629320488
Pb 14.099547708150949 13.031608250922266 17.952996034720147
Pb 16.030653647668405 10.684028115611232 10.526206817286576
Pb 13.322773286871042 9.979878888141618 16.22747634404154
Pb 18.291817543144287 18.409888144805763 14.560205174746832
Pb 16.319251070851827 19.01333586412429 17.326374226416192
Pb 10.623114206376671 11.009630539048548 17.495985421372126
Pb 19.061910084848417 16.389325572774382 11.872147981749245
Pb 17.776322898533945 14.720545462856485 14.903096391901784
Pb 14.323360322027225 14.187270784911144 14.406397103967892
Pb 17.038719626627874 13.065572695480094 8.497831586376238
Pb 13.152560452536004 16.45347243505247 19.460693433344392
Pb 15.373019174062028 16.00487802391169 16.90212557102016
Pb 11.090994250496458 9.50605523991248 12.733570237406889
Pb 11.87202005573487 15.294447610698931 16.449771620779334
Pb 15.00926882407793 19.25654294637824 14.409295666720359
Pb 11.221564195224945 12.451924089829355 14.446754541883005
Pb 8.777972682652965 13.474474198398035 16.448967890220597
Pb 15.934202730911945 16.654226238414967 12.723803367282281
Pb 8.614326082501456 10.43306802459364 14.862431436478024
Pb 13.254322033942547 9.041669510263413 10.178502996160859
Pb 12.659786073720028 16.955455061059116 13.545414658295021
Pb 16.99750265920251 13.707027866556949 11.71980399626199
Pb 13.281099570031365 12.039115586550693 11.791362225633101
Pb 10.928740963564536 13.790341938961642 19.289831672404368
Pb 13.025754521783274 18.33673603564907 16.77758725580382
Pb 14.011684090117992 14.818069855602165 9.904677105641792
Pb 9.60585665415511 15.50715635389067 14.060594435511819
Pb 14.177073160932272 18.17466014578756 10.43635558012234
Pb 10.62880962807087 14.083328231704947 11.303891427367981
Pb 13.966793488911891 11.73947800362568 8.227640380066811
Pb 16.62019595472386 16.412490958286835 8.878757607760035
Pb 7.720032545575436 13.025143529565716 13.169936575623217
Pb 8.148035504681907 10.190268825282173 11.586135350331846
Pb 11.309729796891297 16.7812321226013 9.691166128878441
Pb 14.990518033524346 14.529519708156652 6.528665432942129
Pb 10.775401364732428 11.064519433403508 9.684965971251666
Pb 13.601555389261172 17.19609444158852 7.435678711930387
Pb 8.110604942762707 12.84315672376088 9.891563508732228
Pb 11.844393564932812 14.402051598502917 7.484135722141673
