50
Energy = -166.42794483 eV
Pb 15.601632596407564 13.38780821998424 7.924983714413192
Pb 15.67606589416956 10.56427075486692 9.644772086757367
Pb 17.56889072688364 14.092869085604821 10.519174406219744
Pb 17.298061215682758 12.283756903448245 13.216698204256437
Pb 20.462506490702317 13.389266602830899 13.308964244212627
Pb 18.292042177810526 17.159048981785524 10.852284750076915
Pb 13.01246318307836 11.520637079945747 7.919784908421615
Pb 20.52913305357946 16.565577544807063 13.548036789173816
Pb 21.524912470864237 14.766647254918587 16.035930582870314
Pb 15.296131837630735 16.3165184160262 9.46979521157537
Pb 19.659733854023763 12.121279334449968 16.21520380526283
Pb 14.727867749468816 10.15176175102681 12.983157171555828
Pb 12.626299102744303 9.648604469446994 10.478046215087792
Pb 16.39353879800995 10.923091283693395 16.1046404342246
Pb 13.972130743706408 12.971636524255667 10.99738764887339
Pb 12.575574791576662 14.735131320201214 8.54843858186019
Pb 15.770350828324734 15.786657959171308 12.776882095750153
Pb 15.52843231832116 19.104140027748475 11.297764274617787
Pb 14.09011983410016 13.06294865047524 14.565960064480965
Pb 17.770386606958144 18.4936172272025 13.688911376814897
Pb 19.639520793728494 17.525441852209568 16.645731880056825
Pb 10.771781725144518 12.361932060841744 10.176361135111476
Pb 18.153629193361844 14.881066367408998 15.203665123428152
Pb 19.269164362216742 14.66299501804583 18.32914039086558
Pb 12.868703815379673 16.89657761789536 11.58847852186356
Pb 12.78806809026808 19.949999170730344 13.100711536825973
Pb 11.187870369127737 14.421086494375999 13.159133543438777
Pb 14.569106502206486 18.09788561677008 15.053174190765883
Pb 17.591596564932942 11.772954912024167 19.135416439054907
Pb 15.691332070154049 21.012337525371898 13.902543925627851
Pb 11.570000170321498 11.067895424538722 13.176835805561145
Pb 17.095505099696986 19.76707665115072 16.639349162292067
Pb 10.441278022652005 17.58481818436816 14.037531850146635
Pb 13.151877015607626 10.366118751879025 16.19794114285982
Pb 16.239534694143074 16.604423431758935 17.518834924388155
Pb 12.225411592906415 15.87197810667568 16.158598156295344
Pb 10.840667262034325 12.616850806744226 16.102958909107777
Pb 14.41082136496403 19.553326511868665 18.272199906034196
Pb 8.883852504450225 15.081841299276576 15.501109309206363
Pb 11.803267114557789 19.630291020499804 16.424392905176447
Pb 14.866114112480291 13.382942107278604 18.043319356598936
Pb 16.74400562390367 14.803476198836757 20.584829065737384
Pb 14.866983620146085 10.005262414415698 18.919722984591264
Pb 9.398873140946973 17.652920976695796 17.219915771994007
Pb 15.00341936751095 17.437315133266246 20.50391975369321
Pb 12.29208630196658 11.990510786941194 19.413280876538042
Pb 10.48613633266192 14.726910146018886 18.676298274961084
Pb 11.946240467451565 17.671987324669537 19.316253558226776
Pb 15.073446247407432 12.14128101110179 21.29722972869273
Pb 13.116801518835048 14.778597019661321 20.96767463956304
