53
Energy = -175.87622028 eV
Pb 11.49319199448496 9.35005379508743 9.57103933557484
Pb 10.21582395215725 11.713794740355658 7.890167394730138
Pb 9.004713189137409 11.299594056911147 10.925616714592499
Pb 13.426001663742118 11.291294463073545 7.846401798532146
Pb 14.28464305052132 8.230135917285414 14.082493288443384
Pb 14.620856495220846 10.120770798984571 10.92706382779026
Pb 11.616320872296882 9.669977683183633 12.775008506210282
Pb 17.710555936069564 11.534353990484458 11.086400950464219
Pb 16.952301755440157 9.903121121181673 14.038420348870497
Pb 15.283848384474165 8.939394690522567 17.043969326487282
Pb 12.116062637471897 12.533792464306146 10.846818267124574
Pb 12.27742017887019 14.45728909792079 8.043342777759364
Pb 9.307902057979009 14.433459519646302 9.366887419921493
Pb 12.021051148033662 9.798470077946572 16.174727847219764
Pb 8.102847947012133 14.078610009159657 12.65501578566416
Pb 15.497581965339474 13.100416443844747 9.29198990108699
Pb 9.26041177278142 11.2632480157976 14.473562650928674
Pb 17.776090843138356 13.275408212832046 13.88222171472783
Pb 17.566077539855744 15.156589507223922 10.901743515619968
Pb 14.69038797690891 14.475452992388593 12.471312456816996
Pb 16.22611681285649 12.527766411435307 16.828941198569385
Pb 14.058153227932612 11.538123161098621 14.048600622548491
Pb 18.40197060561666 10.092802906353667 16.916192042980803
Pb 10.995095888583702 13.984784798467103 14.351434292649547
Pb 20.205319629917664 13.543057920694942 11.660394244928007
Pb 9.913676824077955 11.760065475351878 17.83870426672629
Pb 20.882639204630653 14.05104548220137 14.674110144797925
Pb 14.628625261547974 16.301382869920054 9.683840271403506
Pb 8.20254578445447 16.95535245495302 10.992938313914797
Pb 8.045377715901324 13.892068405773902 15.938119380590246
Pb 13.066031229538693 10.493637368558105 19.181503709184156
Pb 19.313967018733603 16.55111080141191 13.223247638189875
Pb 11.682623598391816 16.101872672319484 11.521272433702203
Pb 15.575260485992603 17.72777209532503 12.815644191215501
Pb 13.294066630400312 16.349227431115935 14.929477628998505
Pb 10.831714613871823 17.662818736902665 8.849945810754944
Pb 16.518851683520023 10.606820395462353 19.48751850862788
Pb 19.496536267932225 13.145336040285317 17.401867933155636
Pb 11.643044041535568 13.420126235698742 20.005645113309413
Pb 12.973310695868701 13.133358971277051 16.92079527896414
Pb 16.60839232117623 15.984323613805891 15.565313934921997
Pb 9.594561922410351 16.897330551727848 14.107422330675618
Pb 19.79396712413766 16.54194258581517 16.633632546184757
Pb 10.173445816334366 19.281686410347746 11.665624520477838
Pb 13.17529942616633 19.136860033107443 10.544428784759262
Pb 18.05628024403415 18.99765174124767 15.077498551610557
Pb 15.004427665581696 19.136486639015928 16.056731616484974
Pb 10.40923655722132 15.11058139450055 17.571251853445744
Pb 14.800009980127525 13.291957947390188 19.89953565354222
Pb 17.40076604554499 15.131744155295289 18.813598219761914
Pb 12.558489626159519 19.227022720673453 13.826859393387894
Pb 14.37382921753816 16.516246190096716 18.030355669259198
Pb 17.297929381117388 18.249647136873968 18.137533832287996
