50
Energy = -165.87112519 eV
Pb 17.64969621881511 11.934506493752785 11.85382909807866
Pb 12.845346375722842 10.407399005510692 12.648516675049725
Pb 15.829750788450117 10.976375984457487 14.376278413629073
Pb 10.995585828430313 9.811041236782291 10.083366819783937
Pb 18.985613866445647 11.178046810752287 15.066126242023056
Pb 16.018232404861678 13.702918600230829 9.66428094431064
Pb 11.557734366293694 10.224608689142435 15.846054983505605
Pb 13.516268821985623 11.596608615551483 9.50354460087704
Pb 20.54534980238612 13.338493157376549 13.241128715285008
Pb 17.037902697437907 10.035437842625686 17.529287876817193
Pb 18.924290103526605 14.93807037291889 10.950519474430157
Pb 9.551005545908692 10.629065667891563 12.988887880590077
Pb 16.860980098005786 16.917926182245434 9.116794280917693
Pb 20.124978528890004 11.237277072769237 18.089087844235053
Pb 17.490390721988035 14.21165391191274 14.389683690689287
Pb 14.291243958361168 13.367129070992226 12.412846064551356
Pb 8.632132968689996 11.599474735197159 15.910512786287741
Pb 10.787632995963087 12.884860572795887 10.878302472443943
Pb 8.460089953531627 13.91183291248094 13.27414492404538
Pb 20.202766271101755 14.19947024485657 16.396516514071074
Pb 10.910789249623546 12.678757251922278 17.9204414930391
Pb 11.379241589337182 13.156537155744255 14.443761715528252
Pb 16.190556016259478 16.652733894355322 12.295281055270463
Pb 18.046791062169344 11.172859123694687 20.501777958840417
Pb 13.022117939442612 14.866339457855005 9.456194170679295
Pb 10.334228113459456 16.157473661882538 11.366018469126619
Pb 19.67334955273267 13.979269959399844 19.823421248871323
Pb 14.114395778638249 12.57724084404685 16.616252613813554
Pb 19.20958408334795 18.253748500701327 10.974742914172484
Pb 14.941767834696158 11.506276137327994 19.736276964660462
Pb 19.88063868626238 16.627496142824285 13.672070391162459
Pb 8.614129853496452 14.783522357461772 16.52333785953481
Pb 15.128911278549914 15.921015039906738 16.24680919760968
Pb 9.121432068830693 17.334193042516706 14.195818196832143
Pb 13.28968813964482 17.946551031492657 10.48408373057226
Pb 12.754063922111271 16.500641588193858 13.483301376096838
Pb 13.886648437144562 14.656647633770431 19.218567350978436
Pb 16.27245245470611 19.579257963587285 10.742923590156133
Pb 11.73959812163905 15.75903796496758 16.604805542188757
Pb 17.151158695558202 13.423615709331735 17.88633544848741
Pb 16.68003525810443 14.023012682759797 21.151768999081614
Pb 17.73812999057836 19.20650326411907 13.795361058382937
Pb 11.003604358522129 19.275984600573047 12.338693715979947
Pb 18.343742209841373 17.099179791447416 16.599550380133298
Pb 9.380167233707745 17.871385357588274 17.308973972634828
Pb 14.238043305015983 19.479209686268494 13.374685139228287
Pb 16.457292429285424 16.708012179194423 19.22623254165901
Pb 11.654681379216434 19.17087600446182 15.558666399394916
Pb 15.659155891299703 19.125458693196236 16.415649456621825
Pb 13.398446333908225 17.926799683087836 18.340320331565618
