5
Energy = -13.93501966 eV
Pb 11.096048429823162 8.269405219453684 9.757286525237033
Pb 7.2985757422653315 9.702510537334563 9.633985957953213
Pb 6.829754372083672 9.388574863656995 6.628136926724628
Pb 9.592431709405032 8.897348256671949 7.366793415965245
Pb 8.348924890771505 6.907896267231631 9.779532318468583
