55
Energy = -182.42052636 eV
Pb 9.270196628507755 8.733689272879477 6.22356346044819
Pb 14.391519856465624 7.163352249281685 10.476465779046606
Pb 10.831403221363933 7.145906781451268 11.290660863378774
Pb 10.077410033933365 11.073383592623143 8.79738573197288
Pb 8.206913075517967 14.087896809123498 7.541569371285225
Pb 11.478139154082973 13.8730140538281 5.882528164191322
Pb 8.99883797930833 11.797675407561169 5.421352038845338
Pb 6.759642230385769 12.504899323938108 14.883582903183672
Pb 14.282843491514209 11.229760537713263 14.34197623802755
Pb 12.693764266626708 13.875635084352936 9.139687842723871
Pb 15.271902839163088 12.454591436373763 11.161633221269417
Pb 13.274219271036822 8.066826822738415 13.407409317623788
Pb 6.880505637407973 10.829878262983723 7.771257704674622
Pb 9.346455938492356 8.950633480583036 17.82633342782762
Pb 7.201125340035731 9.329201702818516 15.425472125722877
Pb 18.67793161448661 11.945864755646836 11.440170636807798
Pb 14.363166965393344 15.844569166011793 12.457959236372695
Pb 17.167964658098875 11.694203644758344 8.518619203241382
Pb 9.30070315275754 13.540216557571418 11.149414920458
Pb 6.588523135528316 14.807193522947916 12.523103473050414
Pb 8.29901820455023 8.166207763607083 9.214210882153207
Pb 12.36066067297535 16.780424943253113 14.70887414231997
Pb 12.024563015946896 10.490232851515401 6.063545988586894
Pb 17.98602576375597 9.831075062102876 13.86782968967244
Pb 15.993312383974132 14.797535188456013 8.636898515353083
Pb 17.38495424857426 14.921832822229966 11.571385266315312
Pb 10.816193760246453 16.35437928717451 7.937334006622469
Pb 12.068138273248838 13.652493024728434 13.403936750157552
Pb 9.807397740346698 11.632780049551391 15.598926101270704
Pb 16.70934424987465 11.169736985375133 16.659701218817517
Pb 16.513848686845346 7.06696856722172 13.000446223546435
Pb 7.35231059226137 10.81513496465795 11.091965333893308
Pb 10.329921021031144 11.92976760674791 18.740149661609575
Pb 8.233998447869528 14.202803405263234 17.254512142539244
Pb 10.222060232911328 10.198508770261235 12.64143353371881
Pb 14.703419419698573 9.546423872438305 8.126918366878165
Pb 5.925798618989761 13.530824348205567 9.764182293107284
Pb 14.565642979106551 12.625002669680349 6.482532197063767
Pb 17.149859056362853 13.123297941469392 14.175104881008
Pb 7.820709568728087 7.9118320041156265 12.526455519605705
Pb 15.460990569029867 8.35590760801378 15.807693453806602
Pb 10.142459999332633 7.653878976566842 14.843738312614917
Pb 12.37046973503144 9.43549554407532 16.500363254131123
Pb 13.703066282307732 17.118533676309347 9.459067803818687
Pb 11.138574358324263 16.30786030293957 11.371384984653945
Pb 7.960932660971711 16.244356508789476 9.927554933386821
Pb 13.734693674381935 12.16945702992183 17.588138802517086
Pb 9.304990752309196 15.255805395646625 14.361269052245689
Pb 13.872454968742424 15.898908087212773 6.53122975460722
Pb 11.61895876030826 14.609514021251925 16.94767517008235
Pb 11.667201375871567 7.955188839784506 8.2610658463185
Pb 17.058589946719177 9.245299080458778 10.653257936448012
Pb 12.868208220294195 10.092618476308697 10.850328195359182
Pb 14.643148717094876 14.623621703203101 15.74250033584896
Pb 7.106909606917766 11.31989521131834 17.990238844811277
