53
Energy = -175.76249057 eV
Pb 9.42500640584913 15.060177081998525 11.02794729178789
Pb 9.554624607207714 10.467451280804918 14.829284487463653
Pb 12.023335327688372 19.147639561188626 15.645095438139
Pb 10.203618098312102 9.445708478103901 11.664908883312647
Pb 11.534966395360795 12.86733159349032 16.145189952540083
Pb 12.375447376609943 16.850758025278267 11.461176319947242
Pb 14.617455601284776 12.031803405771182 12.541323680597584
Pb 14.367371974000383 13.905254297433826 18.53663712125178
Pb 11.364099209874947 9.937817515120885 18.112283654331407
Pb 9.779658869309836 11.99679370816217 9.482615494412657
Pb 10.553708772575618 17.0243722516777 8.597230287768445
Pb 14.782557386218658 19.02699386493387 17.37927535215692
Pb 14.731216350813996 20.969619124552057 14.84239776065112
Pb 13.328313810330267 8.77415508238653 12.537067045406367
Pb 11.748880738057013 7.885571771280332 15.43627990687833
Pb 12.457560499161456 20.147267497151486 12.581116871764888
Pb 12.321362873782336 14.289871231769729 9.48940472731454
Pb 12.689329560526794 16.429853674458144 17.47299883809131
Pb 13.86902734181755 10.33594821723182 15.713337078335305
Pb 14.519277530163226 10.685067225742513 19.11850124144604
Pb 12.727593340772145 10.857918625560396 9.945855544150588
Pb 11.244790076272354 12.680389460874101 12.563886543497727
Pb 18.189967270960228 11.862093032806696 11.298025311736204
Pb 14.981205295425449 7.212888706305128 15.101831655875218
Pb 8.055918035322449 11.796627935288546 12.100504198362348
Pb 15.642308127731832 12.931378888982845 9.473695248337801
Pb 8.51916416224408 13.759453065354693 14.782426927415994
Pb 12.113699636682757 19.7262367502211 9.419356421407517
Pb 9.71565185222667 18.489445789462323 11.456468925299149
Pb 16.685968466971804 9.61278185966425 13.58631122938326
Pb 18.466279506771713 14.687732156219392 9.821203011189516
Pb 19.141128076923767 11.76144401658336 14.421045375129838
Pb 20.352379547201704 14.345137503265915 12.520987148400696
Pb 16.51666982532179 12.384706556129139 16.62411352057425
Pb 15.74450631073647 9.68470197204614 10.415940655237698
Pb 8.619277488855362 12.073158700879954 17.598294003990638
Pb 17.329141931274247 14.4609791263343 13.80951133782562
Pb 13.835291930757155 7.741493396109312 18.0397414417627
Pb 11.068638391668586 15.97335181036397 14.565829382492291
Pb 15.451427324173949 15.709932083420174 11.22041447803277
Pb 16.677150520001952 9.132579312955219 17.178467195741035
Pb 9.552690454237814 15.211426635752954 17.51030220812659
Pb 13.843078162405414 17.173002216213575 8.423003822892593
Pb 11.253883685396353 13.138719062142194 19.36803373839091
Pb 15.07103395382264 19.05929421662377 10.876439557919715
Pb 19.44326330272982 14.083840146787697 16.623668391457766
Pb 18.497724389132205 17.04148175811355 11.965758745735204
Pb 16.5198747579065 16.234850879793868 16.729302167482906
Pb 19.588008690322635 16.78355961999853 14.951051565172111
Pb 17.479540303536204 14.381430020412083 19.1136094314216
Pb 14.20300919109264 14.535914925067159 15.022275629814176
Pb 17.329211888771727 19.123055632776712 15.179334607333015
Pb 14.650073919753144 17.77079373096031 13.996292719196276
