51
Energy = -168.28816702 eV
Pb 11.00368824443648 17.913994022923323 18.030952299242248
Pb 14.298561354521057 16.669417888551482 18.701912064688184
Pb 13.394994424079469 19.61214690424814 16.823507018895025
Pb 11.578528499275755 15.023562402959548 19.251879421298963
Pb 9.523878120720596 15.773662708202856 16.299644696658614
Pb 17.305117291966354 15.623650397376787 19.710445572042712
Pb 16.710450993947113 19.308832752899985 16.55569057519339
Pb 14.884143359758268 13.651687184736193 20.376380295354885
Pb 15.074040332850826 21.22262393207888 14.304307111442514
Pb 12.09748713003087 19.474702379583686 13.941421616972626
Pb 12.724432133337924 16.56146752510684 15.575121039374567
Pb 12.210350878364876 11.939827537198983 19.71108991880284
Pb 9.8070758886415 12.688790073824126 17.56590116220385
Pb 10.172158778453271 16.891992875050075 13.303746642095026
Pb 18.305686619254708 20.055661906178095 13.530387324376585
Pb 16.551254203818917 15.877443583394605 16.470294915937593
Pb 19.215349192605157 17.54923223474076 15.461929398210545
Pb 15.448822075201855 17.91701987977227 13.853276905924035
Pb 18.004817349063043 12.438018744230606 19.344760826332838
Pb 12.279702240029644 10.484512369192418 16.550650577463966
Pb 13.858271231082869 13.549744979807285 17.06619967600805
Pb 16.485224899511422 21.922657878828034 11.60228441432392
Pb 11.136350527357658 13.310022281460267 14.61114661356443
Pb 15.052527352215298 10.798290133569097 18.661790291280617
Pb 14.054902633253711 19.721034495432576 11.311203834890465
Pb 17.26634654201339 19.16337136624316 10.45536788753951
Pb 9.297613755763473 10.601123372588114 15.210747648594916
Pb 9.88505271703979 11.433254280923437 12.043389534976301
Pb 17.92267331718732 9.479162566780744 17.939997813491917
Pb 19.637113724344243 14.871741008020578 17.71256720984506
Pb 13.926735129755132 11.521426951252804 13.656883231047251
Pb 9.44116408730143 14.627782239850553 11.084781438103542
Pb 15.475460657730503 8.97476225364504 15.544138277433369
Pb 16.937138994476587 11.844636968842337 15.709801681206214
Pb 12.6457711817602 14.501749659197847 11.912894911069115
Pb 11.700859993256385 17.25774127324579 10.369149725244757
Pb 15.650924239485018 14.49434678090846 13.449001167582484
Pb 18.91625555685714 14.345948445933836 14.540981419991429
Pb 15.336522143349443 16.561033121975147 10.777605858716074
Pb 11.521410256629773 9.052769626692474 13.59036322572067
Pb 18.463390095305535 16.80743246487983 12.327569148396302
Pb 12.76726688229249 9.97727787518422 10.889216226209117
Pb 11.5146758798603 12.479925755203704 9.254820699371525
Pb 20.08803528246549 11.69987240156986 16.640985759126764
Pb 18.711748414303713 8.848407905051713 14.928718848829604
Pb 10.399004091177218 15.31455084832712 8.180564122627585
Pb 16.765469065949542 10.022891492664883 12.644911211331008
Pb 14.767361148998281 12.42777196578286 10.426535768505165
Pb 13.558809382472226 15.03947633110331 8.58960771888618
Pb 19.740273217919942 11.33133776986574 13.322584573422702
Pb 17.783859909525322 13.2612352538242 11.500157713701679
