50
Energy = -165.52894352 eV
Pb 19.995982497957176 12.684115063566589 9.53185614224387
Pb 17.064711981428818 11.477193486903802 8.905121398332021
Pb 19.00043782161895 10.228664577983551 11.294152440722657
Pb 17.687852080217702 14.997676229057431 8.749391179945228
Pb 20.51706486818641 12.707926325899086 12.721047442260577
Pb 19.847333501091544 15.611995584713643 11.176190833403629
Pb 15.306345982838666 8.196953464783366 16.143619320020765
Pb 18.657303945242084 15.02717665137694 14.2705405153645
Pb 18.523733491547127 18.073205688625535 13.13964607319743
Pb 17.346517900037245 12.982980304149658 11.814517507560511
Pb 17.881800543978308 18.129763803271523 9.925435082353216
Pb 16.416381755093955 11.18657187022438 16.90304660715573
Pb 16.678707524119393 10.046033608259503 13.760458385815268
Pb 14.60732546828276 13.799134455346532 9.433003413899169
Pb 14.561631177797484 10.934999446273876 11.21813940757159
Pb 11.936235170079295 8.04673499608388 15.890422894354632
Pb 13.8907525202386 8.072015301981846 13.148759521738913
Pb 13.532895919192912 9.918736951655314 18.1401674343665
Pb 14.859090072272464 17.203432942670105 9.328285630378733
Pb 16.10044122144641 15.96235562735351 12.140897307868045
Pb 15.556224058200701 14.175495327769868 15.16434362238933
Pb 15.945267277132487 15.683053372042457 18.1149730281909
Pb 15.631605796133105 19.132597178596694 11.991410778389033
Pb 13.823017257783528 11.092460708128597 14.9812049560539
Pb 15.953076241708334 17.77241348025882 15.473602116380608
Pb 10.590908585957457 7.290697169958343 12.943115629402971
Pb 11.196463499587837 10.963024329597156 13.078458389985324
Pb 11.944544130548852 8.838844581359481 10.45948026683015
Pb 13.053945054161426 16.196319644435963 16.37613850768748
Pb 11.963965664991562 15.52859787102939 10.154318377322278
Pb 14.639946851179486 18.63142542075159 18.401402879438987
Pb 13.6373536057166 13.207811498065968 17.807129663730347
Pb 13.090542909848839 17.24877037618905 13.120097723264815
Pb 13.18029010733351 13.774774621395098 12.568016109728587
Pb 11.707801959279337 12.022169976119136 9.667947452415621
Pb 13.062959539459921 19.454088854996368 15.690744870494134
Pb 13.1389905707418 16.123974002210705 19.804485351611465
Pb 10.854311386025117 11.370801309828312 16.47488412582424
Pb 8.827856827335337 9.242644958554584 14.838555767412364
Pb 8.885456089616548 9.594770092541966 11.456027740487942
Pb 10.500403114681925 14.404430555948599 14.673723954581224
Pb 11.161543704998415 18.29852308265648 18.199175389226195
Pb 7.861698358487358 12.163163130519722 13.779541352838569
Pb 9.74059039461292 16.63578897869225 12.21811475587871
Pb 10.658346054994158 14.707215749149793 18.291367142508218
Pb 9.378140495636739 13.47095964716485 11.33480708474169
Pb 10.05251195135314 18.193789122947546 14.958934220925723
Pb 7.903655594600136 13.613034563141547 16.70116208836316
Pb 7.453255680129788 15.620348038096655 14.261780710016657
Pb 8.30407421464672 16.725309898971272 17.27529312857835
