51
Energy = -169.32115346 eV
Pb 17.529212862673205 18.455855378383003 8.986113338500179
Pb 16.555177093238086 15.56010788496571 7.269040217473561
Pb 14.489740211125907 17.941401937111028 7.5651004611800134
Pb 14.736069696524819 19.832855976201202 10.202548288096208
Pb 18.82088804018552 15.500809041868003 9.53384364074704
Pb 16.340640169439038 19.14349678349626 12.900684795777611
Pb 18.545451093122857 16.879806956193086 12.419953190685003
Pb 15.501499314568656 16.510980036580786 10.603125414402005
Pb 18.18812497566376 17.340437837614207 15.958235662556975
Pb 16.532392353419137 13.068000328692627 9.291203917803475
Pb 12.194282074301016 17.80659193793393 9.750271937679585
Pb 13.563374745760997 14.733667474865543 8.624532826927892
Pb 13.209170617092637 18.142451039702163 12.963522917399995
Pb 15.105663322079348 18.67210664778616 16.055099768198993
Pb 15.750360636830411 15.967310392443645 14.004679215898998
Pb 18.07683427691174 13.617949658858254 12.242232428340719
Pb 18.84841772269389 13.94613568054944 15.908157668237704
Pb 18.963584533922955 15.744079811081429 18.68304080753637
Pb 16.677799872357422 18.01024844491352 18.8482864696518
Pb 13.911943272439851 10.673114574000959 10.035355623956823
Pb 11.814692469271675 19.049503349190523 16.177904517195998
Pb 11.261562855260657 12.408284368753062 10.725306281851488
Pb 16.467565148589017 10.744855887073154 11.99037982348374
Pb 15.702073747454472 15.1162106225482 17.390031137391215
Pb 14.41796307184594 13.455262612903292 11.85280647734624
Pb 9.891220103193712 17.364227882616596 14.365864288721516
Pb 11.629788724649039 15.45024330650319 11.94974144888745
Pb 16.07670361719728 12.371384687987414 14.976231658435319
Pb 18.600740508669894 10.736978592181055 16.398172026231848
Pb 17.812061220635847 12.672460666799545 18.891139844820902
Pb 16.32153750610959 15.277133206444105 20.560088089692755
Pb 8.327357256868797 15.194344350826594 12.79250490281791
Pb 13.327571737112574 17.478808591148812 18.748277449135593
Pb 12.74651345229352 15.826338587727028 15.798331015291051
Pb 10.519786541902628 13.606134626097903 14.509130520315072
Pb 16.436302864662814 9.04891188858658 14.702293755089466
Pb 12.715709146097643 10.946822397442906 13.496617618004406
Pb 11.216893453442294 9.105284698477634 11.005014095439563
Pb 14.579073375995623 12.443596840502304 19.78112830686177
Pb 10.013082628759518 16.758362756961194 17.739676607493475
Pb 13.173790240731488 12.514057024464407 16.73419137932483
Pb 14.021195024096361 8.089089355789504 12.573524801243355
Pb 15.858622033962524 9.942202887805333 17.83068067845891
Pb 9.365531348821227 10.82813022578555 13.012207626841967
Pb 12.210558937039306 14.569165695525177 19.31766515433447
Pb 7.88078253514166 15.065306911649591 15.95983348199523
Pb 9.80251176784936 13.232623326531717 17.70663775755509
Pb 13.42038166522119 8.270845910029092 15.956037729056574
Pb 10.885043386530295 8.001402769061928 13.94159802778675
Pb 10.595969989955663 10.289485398822361 16.295560134092746
Pb 12.798686250519967 9.945781086673811 18.717864292147038
