54
Energy = -179.10588249 eV
Pb 17.0541383773848 11.607187232308656 18.232748559456116
Pb 11.658632533393703 10.967988710216083 19.262649825453657
Pb 14.221985993003068 10.324173726440817 17.05846287563903
Pb 14.173088249683927 14.21471873546086 19.017222411094156
Pb 17.802657511188205 9.51943801784099 15.822862776674938
Pb 15.057616401682818 7.9772521194288695 14.928550656265388
Pb 17.36879286318605 15.098001994662699 17.917846594318753
Pb 10.994329948102562 14.044338268637615 19.943603501519316
Pb 18.97995077524907 12.769529229005524 15.75784903648507
Pb 15.226614284089317 17.37969730490273 19.07098131722899
Pb 12.462461120536222 10.398027411383316 13.968951983284375
Pb 17.796551654144412 8.102129219357595 12.979997872183803
Pb 15.405220052694114 13.195502269521777 16.052157971845563
Pb 19.72258152404341 15.959438051129036 15.765540137729753
Pb 8.785593325801742 12.24085391869195 18.382872932405675
Pb 19.07163689317687 11.073384609762378 12.877835740899142
Pb 12.048613335904069 16.834703970677314 18.48084843221433
Pb 11.786289689392131 13.01724110756926 16.67628905645987
Pb 13.64286307590743 13.564707980353193 13.29030723188273
Pb 14.114154085321127 16.369756380199917 16.04880037706733
Pb 16.909048039265805 18.07426971011813 16.277958797358384
Pb 14.664526316631036 8.189649897475487 11.764424745183309
Pb 11.51100273826018 8.78793749465682 10.881677000481064
Pb 10.200658559203514 10.127995191821643 16.4159386466461
Pb 19.749756971595616 14.40634802095713 12.86920768472869
Pb 16.80911630102412 10.281788002676702 10.419911576509314
Pb 13.529160189240661 19.45840904935058 17.174216447592173
Pb 9.266274776617895 15.293201777875833 17.37041442365249
Pb 9.196698940007108 10.171043208311518 12.763212538521113
Pb 15.862540261685218 10.88970071235499 13.524132389039128
Pb 18.755024594173438 18.030902128964907 13.472847896994278
Pb 8.65956975891018 12.74578336318686 15.105857485862908
Pb 11.673132639253156 18.883120967415152 14.499320250322096
Pb 13.719652801601672 17.00535135606907 12.60439302736233
Pb 13.512529954106894 11.26399734253542 10.770283754116827
Pb 14.880762422387056 19.757612727809047 14.152899528337395
Pb 12.47149426372138 9.951869276775847 7.962118858777164
Pb 16.494348476491318 13.639540161016978 11.175912987779673
Pb 10.996039712945821 15.521065096878381 14.52153463291199
Pb 10.679353445157597 12.96931251666173 12.126470219919522
Pb 18.39813483120531 16.38062111679882 10.760902308387314
Pb 16.868612219380392 15.454615763157312 14.024341733720021
Pb 9.716640857956893 11.124129019728421 9.100315755442978
Pb 7.58208015926709 12.462184527686855 11.079863334361367
Pb 12.755935616168275 20.232218712859254 11.754894090972222
Pb 15.003314542539337 12.354619569549785 8.226713030491867
Pb 8.4160122067745 15.191688877201706 12.566113552410991
Pb 16.0108275402679 18.79437080412926 11.137132621823907
Pb 13.078717654103693 14.698229865156376 10.115348407900779
Pb 10.753471420249516 17.56497882626759 11.507479948031122
Pb 11.904216368890589 13.125449983773558 7.526616771831781
Pb 15.795437446079443 16.128705133636736 8.972710649179945
Pb 9.637172925444165 14.554321646054113 9.415081211424964
Pb 13.221988113653328 18.048335359475725 9.418139441761777
