52
Energy = -172.43576571 eV
Pb 19.17315396279385 13.130491068274896 11.614218051485842
Pb 16.92807236513254 11.920459240994001 9.368795229187215
Pb 17.82819023414898 10.227926142740857 12.13951744662619
Pb 17.473531318297873 15.123678108733559 9.7271046288303
Pb 14.716474967011624 14.201492509696944 7.6759519794629
Pb 18.805666482627366 16.343340706905785 15.80928343806721
Pb 18.322220123016077 12.766795576681377 14.753369089727178
Pb 15.567340574108131 8.977382831793664 10.03298167010584
Pb 17.80649192090347 9.42865807259085 15.281516037810375
Pb 17.652336306063674 16.46356230685225 12.813165318521099
Pb 18.358062704750854 14.13406370309618 18.071707956850613
Pb 16.022683213640644 13.4564408714673 12.241916478461473
Pb 13.596060096220652 11.07939625089464 8.107646793912071
Pb 15.574973440220448 8.005891622001611 13.440778208612645
Pb 16.804701808558246 17.014409137145545 18.35755308704869
Pb 11.555405654820204 13.422606751760746 7.000309142897938
Pb 14.751032490249624 16.71309494145153 10.612401711046324
Pb 12.221078583161518 16.293687193906507 8.38192587903104
Pb 17.078180335411517 19.088206519419725 15.41471758418703
Pb 12.850993796968764 13.67467174655258 10.24218589014771
Pb 15.711341708468941 14.85283283497073 16.072722350888487
Pb 14.962312127028353 11.228763068657054 14.657273282992625
Pb 16.506311014163202 11.488512149018533 17.519428138396194
Pb 16.525593609808944 19.426147887288263 12.043553408902453
Pb 13.34145888849048 10.739229679820918 11.598062858546895
Pb 14.867283389813823 8.59345881119246 16.880115357252304
Pb 14.01001722069434 10.759984046655607 19.45470753210629
Pb 13.065871048967566 7.512087203156618 11.492986848877337
Pb 12.52008062877667 8.372128021926557 14.669510345378262
Pb 13.342452095484896 19.724461354761676 11.638213308072466
Pb 12.861907607651112 13.039498943739737 17.20604181632242
Pb 14.488153464381494 17.43879416828353 13.908929932963327
Pb 12.99367816811462 14.173250829084948 13.551993380346133
Pb 14.716214612822505 20.958074173005294 14.26420123342247
Pb 10.670261497970635 11.332645616098665 9.466225641013692
Pb 9.786469264314007 14.48199782492422 9.603170306526012
Pb 11.568525780773783 9.763483167093954 17.497908142351065
Pb 15.527556515910737 13.99978544571874 19.556621009844452
Pb 14.104902700631978 18.89009298714916 16.856456341214912
Pb 11.576986021551908 16.780478088981532 11.80054273015066
Pb 13.484635280914706 16.176222703242043 18.639050207478334
Pb 11.205579888840987 11.599945368054161 14.42961031302254
Pb 11.121599791483751 12.014482651160094 19.79123474941571
Pb 10.483062422389347 9.348381339611858 12.263306382530992
Pb 11.633374733096534 16.095355530381166 15.653003710807354
Pb 11.703565105285714 19.377293483980317 14.52983000876401
Pb 9.7064697468482 14.299482750968547 13.076818536475722
Pb 9.29273906816057 12.188567717640682 17.044291002125906
Pb 9.024539192117325 17.553998911831858 13.878935308300942
Pb 10.294775164472776 14.985187970760538 18.556903727743506
Pb 9.520086399026184 17.922094103874286 17.051000323933216
Pb 8.222883432086315 15.146706732446189 15.932752119977375
