51
Energy = -168.78754811 eV
Pb 16.91307015787322 14.643093899047612 19.3031407856879
Pb 12.235107033849896 9.456887631759518 19.479405000256218
Pb 14.637522667728227 11.835239598086114 19.56919040291993
Pb 11.48264567607933 12.615716432990117 18.905124350891192
Pb 16.147467387701607 17.927569563979088 18.97607532948553
Pb 11.175787462615398 7.84594282139488 16.959521188292253
Pb 18.53912927889712 13.010351314154551 16.96865310267205
Pb 13.687218676172568 15.049889836183327 19.424527920354766
Pb 16.58160237325805 10.528876726119519 17.235818474337652
Pb 18.32950351229149 16.36865319049331 16.9797710051954
Pb 14.89166788534595 20.712624262801306 17.77700908942432
Pb 10.740975151790714 15.663570190886587 17.886774994203368
Pb 12.799504552146125 18.188656624202057 18.646684142744206
Pb 13.277003974634976 10.721161764467258 16.57001186029925
Pb 14.465263499390623 7.881914271241957 17.72423413809328
Pb 9.962047313690707 10.814542593224724 16.53312351224851
Pb 15.210226365574593 13.602242150331294 16.70261093378289
Pb 19.67250739724613 14.25070304398362 14.026774756450564
Pb 14.782863868448027 17.725787688386443 15.980144008789079
Pb 16.861821880089803 12.184004990891097 14.124414518431783
Pb 13.355566358697676 6.69915341587202 14.962125701258858
Pb 11.92062081721293 13.631126795850856 15.582017455206476
Pb 17.591510615274917 19.60881724925305 16.2728131209775
Pb 15.284515814017368 9.199360673215685 14.350092516096911
Pb 11.684526793207873 17.114786067967486 14.81174922527636
Pb 11.709112266011308 9.192240464952215 13.84989053671744
Pb 19.089110690525768 12.46342093362988 11.13312271920559
Pb 19.529812051481333 17.594626015605286 14.327135970309927
Pb 16.674310125093307 15.547076617087237 14.086566904385112
Pb 12.166428063162376 20.212083003433403 16.22071208991988
Pb 9.031369541700187 15.139584424925294 15.049130095266488
Pb 9.974004255890936 11.95656333445973 13.473780083744273
Pb 13.956904697523184 16.340578403909294 12.363660797079449
Pb 14.868812959960952 20.741058138005346 14.509666415197282
Pb 16.006371895206758 13.680449851161951 10.969516440814736
Pb 13.600195870760754 11.929259431794051 12.969374317821895
Pb 8.918557947660334 17.59032990881415 12.931050536337658
Pb 16.448080092781133 10.303661734999721 11.324452235055388
Pb 16.770320840372424 18.718571431039962 12.864266566154305
Pb 18.374830466312392 14.515599314546508 8.670674928014726
Pb 18.613962468214353 16.14214996638449 11.474602497247
Pb 10.882506953700657 15.000228785136274 12.246326319321492
Pb 11.048287716203626 19.992016201359625 13.182169906021404
Pb 12.998457715362274 14.899352455129245 9.509877759780043
Pb 11.263182179352532 17.84898975974527 10.697634236446998
Pb 15.781327795036805 16.755202531369992 9.5386067096103
Pb 11.11679074389823 12.36925481645243 10.479400010314349
Pb 13.88354851866073 19.484638835191035 11.490249605116551
Pb 15.461300546579901 13.961062633309782 7.512680792912104
Pb 14.046517735566034 11.544598020757853 9.278675397299269
Pb 17.36114708340318 11.441348015859006 8.495237530340894
