55
Energy = -182.1855505 eV
Pb 14.594525362549138 14.858097605105966 14.49470176624326
Pb 8.557665056051066 9.379434861024745 12.835057870139662
Pb 13.55859496519247 8.787230818768203 17.317436098758204
Pb 8.55406762589042 14.540451959210559 15.892777703822153
Pb 14.329861187784335 12.874776825030864 11.424127070560896
Pb 14.353811304025802 12.853624696761278 17.11378720928786
Pb 14.270853044138214 18.14001619037139 14.089776346446609
Pb 14.2766024444582 16.213148777687834 11.300119779480964
Pb 16.61647758149066 17.641134148424882 16.18308296800409
Pb 14.572331802452942 10.862480974984965 14.480360877492025
Pb 14.233035545631 9.537738017959713 11.275603833464126
Pb 11.33551462795981 14.535013563635564 17.82210247142973
Pb 8.532943371446924 11.239305965340062 15.880232427089535
Pb 17.09142788232026 14.50190692020575 10.204643593707383
Pb 8.71084218414956 12.879277856729777 18.63283909548374
Pb 14.206467385234834 7.58869097260562 14.049208921483904
Pb 17.067352047876767 11.21757857149698 10.191294802049313
Pb 17.54885953289813 11.148054419948249 16.158100508616005
Pb 11.406343262718154 12.880221632996749 14.64160201905603
Pb 8.235234730419448 14.57323147345602 9.912340602421486
Pb 16.5561265273777 8.045325782813858 16.148081746872922
Pb 11.465960467112557 16.108539225969903 14.792624774854023
Pb 8.225545884572817 11.262623411999256 9.888149840831854
Pb 13.611564736178943 16.929190650789597 17.350001113984263
Pb 11.425669024683552 9.650059229176529 14.763498368989968
Pb 11.213626313583497 12.91407893340194 8.849574484193946
Pb 17.56868906795813 14.525700815653126 16.169449740899946
Pb 17.160425539386413 12.85013737282614 13.189780315737526
Pb 16.9778245362983 12.871091277380952 7.3797699895400095
Pb 8.917121627233366 12.917942355624877 6.5160764630033166
Pb 17.16728175695855 16.419538039565758 13.23595766444503
Pb 12.133148830580415 17.015497103905105 8.710272449931411
Pb 9.333278299996383 16.09534602202328 7.13086943572706
Pb 17.12537488524395 9.2796642954269 13.210966514439626
Pb 9.190397821377795 17.687829805467302 9.871867576914564
Pb 9.289772505987894 9.732594875769239 7.097918195266323
Pb 11.198245169545668 14.826643609023707 11.584550756895107
Pb 12.083207450509622 8.778205119006984 8.672526938940377
Pb 11.810944796823296 14.625052082786137 5.792110834586347
Pb 11.47748304151088 18.13807052241424 12.015180292296815
Pb 9.133130541358529 8.13460939607227 9.833129243522265
Pb 11.79217433765597 11.181140000451684 5.780904443531913
Pb 11.174375855016219 10.960113456532904 11.565556655225995
Pb 14.297403356380897 14.553212980870406 8.271801448623846
Pb 14.502945717445247 12.890996253082891 5.350798828878456
Pb 11.413647421669843 7.641940771407128 11.975721227162813
Pb 14.270341596427576 11.22469215362851 8.26319568132906
Pb 16.78185988954586 12.829462807851629 19.36401811762602
Pb 8.565291180953302 12.899558639439872 12.96267275377163
Pb 11.315821614160372 11.203896588672391 17.806499734254775
Pb 16.383474802355575 16.018442691415146 18.931653167219956
Pb 8.599320272984146 16.42600731122521 12.862750294521081
Pb 13.851995073752917 14.504979357042634 20.05110867564841
Pb 16.339587627009642 9.650559079585898 18.90970439650195
Pb 13.830320895140726 11.192031139417393 20.038251278260272
