51
Energy = -169.07361037 eV
Pb 19.750214924930944 10.349968413760516 13.01402403467592
Pb 10.920358839256835 12.243622518739464 8.95038087976394
Pb 17.085350486156365 17.82081055441469 11.567710237062215
Pb 16.301045295027972 16.678225885949253 14.918997205550289
Pb 19.36948011891714 14.952683556650502 15.596388188434416
Pb 16.49646267133486 13.406429686226765 16.31961766721777
Pb 9.252466892472642 11.679408756173139 11.649569897375887
Pb 11.728817184263313 14.142910183353376 11.381635607366452
Pb 14.061420752881663 11.23340621673778 15.86949350477135
Pb 13.283420454299998 21.23846758860993 13.309428698054832
Pb 16.70894233815705 9.381423838546732 14.775169192789363
Pb 20.01281739225145 15.522322069018871 12.319445026185502
Pb 12.01991407657719 19.61234094768602 10.713530733001303
Pb 9.919343686228318 17.128911761186625 11.745152094613912
Pb 13.514064174987723 10.355596262645943 19.115766412869146
Pb 8.286640068910838 17.306418883755292 14.652286722807752
Pb 13.450367016615822 8.413574485466203 13.978465987862522
Pb 17.440029124049982 15.609656506849086 18.473819477184158
Pb 14.012903171041433 12.481845029932988 9.55586468682175
Pb 10.506090743942016 17.598044426202943 17.088253125144654
Pb 11.586727110187484 16.036323957299732 14.454569963317573
Pb 11.1545812725203 12.35125138768734 14.423602886425686
Pb 20.628616388191347 12.625224211358795 10.875199913632795
Pb 12.467270747777492 14.99856682503941 20.39849425453131
Pb 17.91264601790002 13.14967813699767 13.074988614447147
Pb 10.689651357510058 19.353624208856132 14.028217512869336
Pb 12.843942373608547 18.05372913184748 19.38697919705205
Pb 21.464912187264623 13.026638770268555 13.920501682054756
Pb 15.272066819128048 20.470019728333696 10.85746493562204
Pb 11.519258098566853 9.245478512229075 16.58454190609049
Pb 13.894697984885939 17.817883029025637 12.688612973590478
Pb 15.316985672106552 16.504344308506116 20.751288844177296
Pb 15.149292702708836 11.139819946525803 12.418006311609917
Pb 15.894085396994136 18.3660542941997 18.09463293769627
Pb 16.230216409581356 19.900620481255533 13.954060808377598
Pb 19.331082618072884 11.635742412688995 16.028044480551067
Pb 11.939630161119155 12.86499335179836 17.94513181125465
Pb 17.724395865921554 11.11896655490003 10.446779317012473
Pb 8.717623047690982 14.443205378252005 13.225497430153037
Pb 10.287487978019785 9.260211029242186 13.551663567229427
Pb 14.584615126898623 8.106523538186734 17.03893412272927
Pb 13.48774194170571 19.075917297746084 15.940328500166027
Pb 18.14802490305385 14.319118402121855 9.769883668379542
Pb 9.47136685420228 14.598720664037375 16.40489534148552
Pb 14.000346598180847 15.637992328781987 17.477207098053853
Pb 14.448130045847247 17.682951258413706 9.448521530411574
Pb 16.687351835152562 10.498360065903425 17.900666090569874
Pb 14.204487487303044 13.97475677066521 13.843344252182847
Pb 15.318310537951017 15.038724081797529 11.07209677620972
Pb 12.211711945169823 10.271854349679433 11.189714838406248
Pb 15.239297304014624 13.383798609743348 19.650651276799458
