51
Energy = -168.55678631 eV
Pb 19.817477027584786 17.123507869318146 13.126309191714379
Pb 17.595437372037924 19.16736555327986 14.569566580906784
Pb 18.99993201564131 15.65404951600598 10.436619004739988
Pb 17.403378012897257 18.605024520815498 11.165839303882585
Pb 14.453052429096887 18.640786762101996 13.243548248545457
Pb 18.363397271185296 17.694036275039604 17.77399207039204
Pb 11.456143969991341 19.507120865755613 11.834437081027108
Pb 16.593659906173595 16.66598230513923 8.675339229906339
Pb 15.29862404869865 18.62717914172385 16.866300773318322
Pb 20.559843081027974 18.62019730177453 15.760626111808637
Pb 14.143584345777441 18.178572148519212 10.077273973175961
Pb 18.92662986965474 13.960315215396012 13.286840056313288
Pb 11.515520377694108 18.651236657258245 14.975473093541723
Pb 16.951514456300806 15.916078511819157 15.225725148500418
Pb 16.679747091249176 13.223404800204149 10.0276407510381
Pb 15.9924280993668 17.152001289723323 19.850608729505286
Pb 9.538265924542673 17.462072807130784 10.214292829004211
Pb 13.070873452682848 17.194999810575293 18.598587408606015
Pb 15.802516134846371 15.757678632799225 11.91873296512943
Pb 11.745054755967805 16.308461561881664 12.542880367163269
Pb 8.750364021684627 18.179754793789012 13.240673490292643
Pb 17.603701554607582 14.467874149387612 18.579790327409594
Pb 13.740640691943936 15.031626315558006 8.928546871997098
Pb 13.651883325813436 16.0849869037358 15.43389272822479
Pb 20.12994944574134 15.343579584114085 16.0854032013982
Pb 15.212156877956085 13.191880851345978 16.594254832031336
Pb 14.433899449781542 14.324605236832179 19.55467681599504
Pb 9.556867929190826 15.773517086580181 15.250101170616867
Pb 8.433070311024721 15.04632211452986 12.197114478653347
Pb 18.394721606198708 12.29630966475521 16.19859070263133
Pb 10.672396850494758 14.349023863119811 9.882627359202964
Pb 11.310886031315444 13.245517199063 14.162136874038328
Pb 14.747029323585092 12.160772274504886 7.805321084540346
Pb 11.790002728124543 14.397383285937607 17.513475544556744
Pb 16.10566704768389 12.09221792617633 13.571420998192846
Pb 13.50713978159889 13.020097001820595 11.575644075100472
Pb 16.537239182902926 10.709806281644799 18.43931195270463
Pb 12.060793341367122 11.296628317403485 9.194109558216182
Pb 8.18452488341726 12.551104600265527 14.41066712164997
Pb 9.72441020825815 11.72750074460236 11.649584482235396
Pb 13.318173093182285 11.095423096692812 18.489508921043953
Pb 15.071339762605014 10.284377891938933 10.497593575934788
Pb 13.218395037977185 10.619911838962711 15.11731315075505
Pb 17.21462970768609 9.445505026113302 15.506243435286693
Pb 9.92195106210983 9.599001722757249 14.345057249414836
Pb 10.162367816004599 11.640358780566773 16.94025620276194
Pb 12.074403422682789 9.300710538016967 11.836602172343982
Pb 15.111243703967817 8.532414450908192 13.303148606104521
Pb 14.628660106070068 8.251462816508166 17.07510057600417
Pb 11.399323108369174 8.637569729204783 17.288812324831774
Pb 12.346151506455158 7.335206829775972 14.558723487643851
