52
Energy = -172.42559451 eV
Pb 19.381483787900518 18.673938367332354 12.637802358954417
Pb 18.635298430646987 18.17199718337693 15.875653219550417
Pb 17.393650105914023 17.730573537210372 10.094569322784526
Pb 20.056169662874094 15.816845714502143 14.38496736123986
Pb 16.17276712549179 20.05277095659772 14.918202163819847
Pb 15.89874453200385 20.13462577507332 11.701777261219853
Pb 19.485213994087054 15.629444420127395 11.277428220304273
Pb 13.555617887542677 21.526818507876605 13.769477581126637
Pb 14.006469892445555 17.69122750454468 9.461382570045693
Pb 15.802959696687864 17.96179151889779 17.537490019619124
Pb 16.365614867202666 14.664710250569824 10.812077201990155
Pb 16.712933403358313 16.86635399695895 13.284766122434219
Pb 17.32645418061252 9.928245104178584 12.021486112460797
Pb 18.25326236713732 11.863780643524814 17.48387225783688
Pb 17.199862375602354 15.009954570337673 16.117166464319695
Pb 13.07009082131643 19.68890563605052 16.35063758927428
Pb 18.85213673729433 10.013631955809634 14.853605604578076
Pb 12.712330111456863 20.42388883546609 10.87844870053459
Pb 13.465284334926652 18.155329706026308 13.233869385119174
Pb 14.256492228569577 14.421165344648855 8.26540388996784
Pb 18.18147938414569 13.19873045590758 13.295133415313053
Pb 10.70397278487473 19.871762880067646 13.670494809916473
Pb 12.916760013168707 15.152182739986683 11.249801733488836
Pb 13.752343806608927 15.929075220452006 15.92251964330004
Pb 17.07685493440209 14.170268922716033 19.360974181417987
Pb 11.323412949536142 15.831169063864152 8.3096283948589
Pb 9.055628614226086 17.04395887055042 13.40096305937625
Pb 10.779176939586181 17.442885064115238 16.085001754903956
Pb 11.751035488119246 12.709582689533486 9.078349247055433
Pb 17.01088722000455 7.4983958904522074 14.148086015228378
Pb 14.276259565803102 15.569870197013696 19.266943388446613
Pb 14.842387245081163 12.734832442243196 17.410283752002677
Pb 16.760713465379588 8.829379598207181 17.315926797614825
Pb 10.592735033235002 17.924751637521826 10.636850191360173
Pb 15.549877816825386 10.647039178598826 14.671719143638969
Pb 16.33216190059822 10.980831320261084 19.918448924525105
Pb 14.935366488992209 13.839260174784375 13.679952703606551
Pb 14.43485237587192 11.812691432965968 11.004969374122489
Pb 14.52802683484044 8.437486448641119 12.272644124349066
Pb 11.015612101289722 14.612784434227265 14.362759633703568
Pb 13.339780603091631 12.646369391908198 20.36868662734451
Pb 9.688236643816726 14.684867278510387 10.980896402302202
Pb 11.469263734333822 14.49729354754347 18.047336053923818
Pb 13.608575104010333 9.71588578104623 18.570803757982368
Pb 14.075824064511718 7.695041344396269 15.674086282054438
Pb 12.134594704862348 11.552476000498801 15.711127568389413
Pb 11.563526881871 8.639526892339145 13.652785985330786
Pb 9.102466173552118 12.9154920836906 16.456008476682214
Pb 11.504641171970698 12.048821237176094 12.3434834680743
Pb 10.665152339886824 11.34411700990187 18.80207638619588
Pb 11.040163999697171 8.630044236845912 16.83827212555253
Pb 9.28700464065211 10.606953826529855 14.396762321601114
