55
Energy = -182.40627644 eV
Pb 15.238180566060505 15.720730151452088 15.275992737214164
Pb 9.709073401427084 10.481395670851082 13.959941006027115
Pb 15.147149438709752 10.368232367868886 18.270803862712157
Pb 9.485769544429338 15.686460735314359 16.81554234281893
Pb 15.40169540159533 13.944372714887338 12.022106743073275
Pb 15.200933977722878 13.948321995481779 18.161182322639736
Pb 15.344369874964018 19.154576358791555 15.251899872768258
Pb 15.37532313905521 17.35626935501326 12.267139783667714
Pb 17.994910073662606 18.941420565643206 17.266614983201706
Pb 15.242304268001735 12.179607707238333 15.266436706714082
Pb 15.388097629392778 10.526811922700787 12.259967299872827
Pb 12.287382360450255 15.631524461810566 19.062807063087075
Pb 9.476382675269178 12.200944164038455 16.820843661211615
Pb 18.232931585258846 15.579153416770595 11.100730348839328
Pb 9.603678422180039 13.939444277849784 19.498669614531966
Pb 15.367086855078476 8.748281708681262 15.256538078129598
Pb 18.241661298374385 12.312132462592364 11.104837994914059
Pb 18.203521312925144 12.24213528849159 17.254733085109606
Pb 12.307880467839437 13.944288595715868 16.147268116148272
Pb 9.65463438051572 15.640468636743888 10.920056794647913
Pb 18.012428830542444 8.988309931234395 17.271536945986416
Pb 12.375396493219618 17.55392701648327 16.150148935813593
Pb 9.65884638739779 12.222059628362166 10.929701548375846
Pb 15.136170197064052 17.537930112395568 18.258140305852585
Pb 12.386106166242863 10.330821324828092 16.16699973847693
Pb 12.673582482288264 13.935067883281107 9.993743678708428
Pb 18.18417298874772 15.680038904452225 17.25066278599099
Pb 18.01565330917275 13.958288443378217 14.200945844670256
Pb 18.114758290557305 13.949864606774506 8.208159756196203
Pb 9.917571057724102 13.930918214877497 7.855926631808494
Pb 18.020245240542213 17.44725780184929 14.35558857392246
Pb 12.744606396639295 17.461244363490454 10.029782917417846
Pb 10.102643888571217 17.267982698620084 8.113219295454757
Pb 18.0286036543948 10.487155174120232 14.356055280021291
Pb 9.97801963032394 18.899113185466277 10.896227202735602
Pb 10.122604945286044 10.597068580197604 8.128131521572467
Pb 12.434869996425464 15.655838839003746 12.959864727048627
Pb 12.763847415267428 10.404969239780266 10.04294279487049
Pb 12.738056633251075 15.66395386055225 6.929591707867841
Pb 12.46523301435238 19.063015548903333 13.057471013363243
Pb 10.000380429705011 8.963790260401494 10.915428955230027
Pb 12.748375748231725 12.208113600477505 6.935675199153628
Pb 12.440907627493868 12.224311973543385 12.966788078036396
Pb 15.532374493415622 15.774228007927388 9.067579912469407
Pb 15.49983748452774 13.945408288312073 6.339848857106089
Pb 12.486055189697694 8.820832633373861 13.080208541882342
Pb 15.542406844466074 12.117873810738134 9.071915344642903
Pb 18.086497320812416 13.957876665506774 20.288660325399988
Pb 9.59534653395917 13.937134268986895 13.882716489404622
Pb 12.288768438708756 12.243994770886292 19.05935764373882
Pb 17.8287900258621 17.377958742085315 20.046888067150658
Pb 9.692939842849855 17.394805391345773 13.944044733225939
Pb 15.319547865533103 15.589197201482614 21.099325590385448
Pb 17.83788598743969 10.54000806783177 20.056696658328505
Pb 15.320577249162838 12.320143173901423 21.102986753149768
