5
Energy = -11.88003169 eV
Pb 11.047342663632763 10.487031250289762 12.59160129286432
Pb 12.95133333044398 8.384985088620832 12.618620277991825
Pb 10.263082840368192 11.799998017041537 9.822127080308853
Pb 9.11791638774774 12.700421472532343 12.383831279921711
Pb 11.033368531386529 11.303402081964494 7.146980918169672
