52
Energy = -172.59560056 eV
Pb 19.225069916241193 9.297928455345588 15.884410347239717
Pb 17.193289143293516 9.009665142945275 13.386266910191301
Pb 20.011915196792916 10.905911862812502 12.94271394742731
Pb 17.087811603352627 11.209886271382507 11.0814854098541
Pb 20.855713496442092 11.994416167076979 16.16387063487207
Pb 16.02876267909941 9.532000715014602 16.349608870867833
Pb 14.519215117640574 11.09181323240968 13.471514795727044
Pb 12.463322937981737 10.39336787344567 18.50244104861373
Pb 17.996340561265875 11.502536897583147 18.097811877585368
Pb 17.693680688464156 12.2221608629876 14.773218670629843
Pb 14.175871578968101 12.656981064698241 20.118482564111932
Pb 19.03510367098952 13.709205923742608 11.272068266738245
Pb 20.377706922712115 14.538715560148109 14.202434131142992
Pb 14.253506852044092 11.833537927150385 8.86920185701999
Pb 11.19405379321316 10.23773902384113 15.481014520948932
Pb 15.82081706387704 13.94755043459461 12.371448598221475
Pb 16.22636511971122 14.416054402648102 9.248557640332143
Pb 10.734777764569063 13.002183081495199 20.19123378447901
Pb 19.464565268698422 14.556291874154399 17.454120498848233
Pb 14.688988703243309 12.442412055483691 16.742516535772356
Pb 11.488190544327228 13.124898822185466 13.725106703768542
Pb 16.634722254173575 14.358098019095872 19.077934009851365
Pb 12.042097836686015 10.809942108025924 11.063920195392734
Pb 9.24829784751794 10.795923403210825 18.083612608351253
Pb 16.074836335049767 15.530039405145592 15.43376101857238
Pb 18.071950167350685 16.48775074456068 12.704509336006591
Pb 11.3483986363293 13.215484531349187 17.007290027519463
Pb 16.296295182611257 17.409216988606964 18.343641930268202
Pb 17.14548278516402 18.60321666042998 10.289343397843501
Pb 12.647224574506815 14.012500858421967 10.726092337399622
Pb 18.755874315302332 17.19763269543925 15.73792883858355
Pb 13.082067418146451 14.6645660873172 7.523175291457446
Pb 13.640296846383334 15.538911413808634 17.690623528126252
Pb 12.926662632508114 15.542965896748065 20.853182604166683
Pb 10.99574451055523 12.12178203858159 8.277131924846927
Pb 8.204530268519823 13.838017442154582 18.046856268169982
Pb 8.6233949124248 12.234652582866726 15.19454317172358
Pb 14.510182452933513 16.824484966113875 11.172100643432278
Pb 12.872060023412722 16.15538010701476 14.226228149520457
Pb 15.508152837151274 19.46738717857049 12.827635833159954
Pb 15.130506731687394 17.39683252101251 7.998508548878599
Pb 10.300426045008086 16.317382207225528 18.984295573255157
Pb 9.435378405298701 12.79930696957121 11.063765343947106
Pb 14.44711206684326 18.554558104578806 15.928665260748117
Pb 13.186186905007617 18.359584725072466 19.128776481659976
Pb 9.466812217061399 15.559046397208805 15.440998374943693
Pb 9.986302632219223 15.11412248535612 8.845423492725695
Pb 10.329546421934337 16.260548022933897 11.925764351995845
Pb 14.23617085316681 20.01457837220037 9.886838012914454
Pb 11.288284675333312 18.140144361089533 16.38151610565448
Pb 12.240804638547836 19.009423842746045 12.316330417187482
Pb 11.969231022389812 17.781819343378118 9.152169335875822
