55
Energy = -182.10427844 eV
Pb 7.370491339893241 11.405758956518632 14.557281533007833
Pb 15.681752160620034 13.644674588254729 10.890956101834906
Pb 13.016588079428285 7.292243266174386 16.07423119662275
Pb 10.053208688976369 10.431280936946637 9.318187493095762
Pb 15.758170707155942 13.83881845949622 14.293276107725816
Pb 13.188087163354316 12.38521187326711 6.107610703111215
Pb 10.140175188585886 10.892991891653073 12.793299389737696
Pb 7.329790426255715 11.155744960142023 11.034445159541834
Pb 12.810476462859649 12.829584952974407 9.298635741500188
Pb 12.8701947470688 10.309738734529173 17.864833707604355
Pb 10.163371300228064 10.917269769996636 16.26902047148928
Pb 12.580950817764169 15.167202715707996 12.459832225696868
Pb 8.98055146480693 15.808428367382875 7.838883722639097
Pb 7.547873485434484 16.659175702424065 10.814338069794157
Pb 12.887256824119167 13.245635834028578 15.973677978663511
Pb 10.278489325928318 17.6813522388313 12.426963998218325
Pb 12.75478553151953 9.692464255461719 7.761896991591607
Pb 18.468075478759115 12.724175248587324 9.308526556370113
Pb 15.749991669584068 10.598857350480147 9.106713069630397
Pb 12.9430366662668 9.918187035468831 11.113457934451928
Pb 19.436485869441036 12.990592152811379 12.573096132846324
Pb 15.772136559980769 10.881032995521771 12.74178839493811
Pb 13.002418967647111 10.126055281003026 14.511671835064943
Pb 6.810326243450466 13.913073581052357 9.335376422561872
Pb 15.861868399944036 10.992861398034016 16.381005827835057
Pb 12.228313667941245 15.320633969865234 6.89052940819036
Pb 6.981347524107801 14.346341646573022 15.987715228020173
Pb 14.53663727416467 16.33684902514297 9.3919363691128
Pb 11.389971255048644 16.89479812830774 9.658715276517736
Pb 10.123724277839298 13.569916147502596 18.029132387619995
Pb 15.77650588294534 16.75740891405052 12.437141308795715
Pb 11.640026625038567 17.204040862515964 15.149942048797818
Pb 13.27644800035142 13.164712075797212 19.20309600473748
Pb 10.109560994097729 7.69722707877126 11.267906058469457
Pb 18.45376439272958 10.02584974237254 11.111563612812896
Pb 18.5732439288708 13.093725292839869 15.873178454629432
Pb 10.175228720010667 7.9248526892826385 14.709691015564854
Pb 18.508257252848995 10.211049537201893 14.379124375231104
Pb 15.833147867816352 14.393226090112266 17.55511581798452
Pb 10.06264881767342 12.826149343141486 7.223022442376252
Pb 18.34552496092996 15.562226803105553 10.770962454260648
Pb 7.528189402953206 16.8886406883129 14.103835557736785
Pb 9.791756248553531 13.859292379410974 10.642481638203506
Pb 7.606232187541529 8.593544997072607 12.98552235578299
Pb 9.16649804064504 16.50130964546945 17.06700328574893
Pb 9.856740555282231 14.183245103755516 14.511679947301221
Pb 6.380576704036757 14.16280871496839 12.653050582617972
Pb 12.401960220506284 16.002798841355546 18.100751597969534
Pb 15.757182901733307 7.818237037172028 11.293236808133997
Pb 12.920970991680026 6.9067710291407876 9.916084440392282
Pb 14.757042753091003 16.698697597909515 15.56750034917382
Pb 15.813340819585614 7.996269091926165 14.512720023872104
Pb 12.987195339824288 6.490721575817459 13.03162257490262
Pb 18.43190803641007 15.750600413780282 14.10406169226429
Pb 15.704170786669842 13.890312990575245 7.597340117204552
