55
Energy = -182.72084812 eV
Pb 19.5696723648012 13.065434093495947 16.21183622740447
Pb 19.552875952984177 13.917068369227199 13.012525907362143
Pb 20.657003817006295 16.06812938112147 15.439637821654092
Pb 19.453888985866538 18.87159739566813 14.160102741552109
Pb 19.87209961608121 15.300213991994848 18.66204966996135
Pb 19.323034720385618 16.886035597013556 11.5172685484034
Pb 18.28808558960031 10.902337389436488 13.980669836800187
Pb 17.541250752690956 14.213937333806117 10.216113122711866
Pb 18.29659793066522 12.402553332050024 19.149816295501513
Pb 18.61531372800854 18.03752104388924 17.267682735110007
Pb 15.645543173107107 11.088310479672716 10.212597704334529
Pb 16.14749517718644 11.993579052072045 16.250585569799878
Pb 17.42234876810045 17.054455558912867 20.09605381396433
Pb 17.48288821641519 16.27204561743173 14.391770764347331
Pb 16.117088237777118 13.231352938804125 13.146626410774255
Pb 17.062892177060412 19.229438382915816 11.885156709059785
Pb 14.397383901077722 10.373977686060606 13.256877584941169
Pb 16.93363514943554 17.21018000040368 9.212776272938905
Pb 16.249081550610327 14.123843102834295 20.819052283032626
Pb 15.669454190703066 9.885480484803077 18.989970022000474
Pb 16.47028102523171 19.84804820287528 15.232073459749264
Pb 16.58964643274777 15.129391980086378 17.562836932329432
Pb 18.464775789609188 9.987071987402645 17.150493240174843
Pb 14.702729324143629 13.608729002812375 8.203374473659654
Pb 14.216540377126261 11.582268470583806 21.399145860130215
Pb 13.703059402686948 12.749068970589633 18.4243088321321
Pb 15.088538548002358 18.545422415032576 18.003664145532966
Pb 12.954450067016996 12.70256317475082 15.051269476797387
Pb 12.988534865738552 10.888790180968664 8.003196056003683
Pb 13.873243640717 16.018870883684837 19.723493584816975
Pb 14.547816339337158 17.52966070065887 13.631999419294804
Pb 14.76460410032552 15.551438540053311 11.004271262319785
Pb 13.464756169095276 9.576983722183732 16.5321450261727
Pb 11.184023468319012 12.342505727537715 20.41081682084514
Pb 12.423474219188197 9.51433472985009 19.5602428535349
Pb 14.070194195331565 20.688515016500368 13.040372185103884
Pb 13.398478134525194 16.01995553297212 16.42966948285023
Pb 14.147121848276738 18.731530024987425 10.3710189792455
Pb 12.876047778812714 12.638734461315453 11.062792348411346
Pb 13.074231466396318 16.38066596456709 8.35192798599012
Pb 10.784473427862977 11.277377271278787 17.372659624249984
Pb 12.752035035306227 19.557437889206337 15.762548218416
Pb 11.123630005987833 13.64692058597901 8.378227557542061
Pb 11.689492103112267 18.13414499502465 18.465320656463543
Pb 11.894277353451681 15.446031269464443 13.120438107672454
Pb 12.813450163266108 9.157950638586358 10.701704963516134
Pb 10.866830624139755 14.933791391824258 18.19746345320046
Pb 10.993902983657614 10.758644133215231 13.028497074307985
Pb 11.287012151144069 18.715072928593283 12.765345028066639
Pb 10.499751260177767 16.480471222874687 10.361708288020159
Pb 9.505226189705294 13.498474292426119 11.526146495522063
Pb 10.105004527420938 17.44161123559388 15.678770691251387
Pb 9.808055250731273 13.972340383824664 15.0667606870242
Pb 8.656607073193381 16.32004575605809 13.100863462118722
Pb 10.216885370312141 10.794459796683421 9.742077937539545
