52
Energy = -172.13535824 eV
Pb 17.077320675310816 13.792197915036432 20.392420191800724
Pb 14.666355368517449 15.87780759434237 8.708118440971717
Pb 9.39726236232153 13.530934500885463 16.81391122815651
Pb 8.440570757546066 17.43978256010297 13.58593395215409
Pb 20.365567296392097 15.561413498934565 16.1454092398634
Pb 12.598894669890198 13.143041989214396 16.244378693059268
Pb 13.11879522351911 12.788950604813225 9.159469540971022
Pb 7.968814943849015 11.186444890495732 11.353688793166647
Pb 7.418532696477926 14.488857625379406 12.067592856174096
Pb 15.410757923279458 8.352573078901294 17.206046898294204
Pb 14.926892270610436 14.309629650968752 13.924437611017652
Pb 17.668434728022916 16.442865002312875 14.448804544851434
Pb 15.960105037599012 18.096759469449147 17.586601209467972
Pb 10.989350527902294 10.57685307173025 10.49987495988465
Pb 20.970980134410283 17.44362640956139 13.436800516475843
Pb 12.683108706181624 18.204212689387887 9.673788730523453
Pb 18.769731981296033 16.106763076702112 11.221360348333597
Pb 15.234724927146098 16.380230648391752 20.119356218400576
Pb 11.527369619172017 15.603956522946685 8.025494434018539
Pb 13.022863320519301 10.402667881864934 18.10019118504007
Pb 18.200047685203042 10.057760783780493 16.60698252740495
Pb 16.296452315905512 19.612523540050308 14.82445368587779
Pb 14.033625018236009 17.317605619251257 14.762354719742252
Pb 15.463243913946371 17.194059314377004 11.74346056851329
Pb 18.437993846117493 19.053558545514694 12.526530226678231
Pb 9.608907772320023 16.97421110392636 10.352870093129344
Pb 13.830279247785969 13.320155911024333 19.510030502705945
Pb 9.594493134623281 13.556257945828998 9.659411986849408
Pb 19.346893360291773 18.785917012139947 15.915544285537905
Pb 18.983319707291912 13.05816334350709 17.89189180439523
Pb 12.501508202423809 15.29308947781165 11.303918993574754
Pb 9.147246112731837 16.83572390487696 16.823941988550075
Pb 11.481369413316415 18.2781635688127 12.690927969229467
Pb 12.736785849229994 8.882976261896461 15.26067990825485
Pb 15.900492393812126 13.808325650337522 10.882475484589403
Pb 7.581666302816443 12.014704603124667 14.459370383208487
Pb 13.453705005272434 11.624685498454156 12.472335538188958
Pb 16.175070684112516 10.89237898073846 19.072747298124124
Pb 17.82055462915369 9.796934937079977 13.410288590746832
Pb 15.188150784065897 11.070540051011251 15.45638249859017
Pb 10.368413802367998 13.020873336851851 12.991512043978222
Pb 17.90173622640696 12.986329758283373 14.655432676938863
Pb 11.112218260427198 15.69738337833893 14.75218975326591
Pb 20.611127830933686 14.241512465377799 13.157108947366375
Pb 14.842973385967875 8.635596886968505 12.906782027603287
Pb 18.798241828300327 12.127685366785617 11.4797397877958
Pb 9.994715319153839 9.888843375255949 13.566873188970124
Pb 12.764320038972123 16.055482098548374 17.803266093973296
Pb 7.0133878728451 15.077550160841291 15.301754785595845
Pb 18.379954224435735 16.380098060377563 18.82537945911368
Pb 15.930296899554708 14.627492424021234 17.25183134242985
Pb 16.06640912221 10.559477352127217 10.708160109821883
