52
Energy = -172.99306215 eV
Pb 15.6994834451614 11.999905865910733 20.57960395637488
Pb 15.620546138969628 9.301071680802162 18.91623010886803
Pb 12.765043092349798 10.635311899442208 19.776827785428978
Pb 17.67775507183433 11.85068045723868 18.018576275390842
Pb 19.84038819840163 11.19213200089736 12.464662290927617
Pb 13.100978241748882 13.90243160101619 20.244230216636403
Pb 16.139473387155576 14.695811216966552 18.791168830698542
Pb 13.176389916822517 8.857952142005026 16.428677494328422
Pb 20.527710129759775 13.800731393118863 14.286523885889755
Pb 14.375008214986421 12.129170812786828 17.36206457609302
Pb 16.570557186241786 9.441784540079672 15.898866990972863
Pb 18.20064928257338 15.301002112099724 16.021357938703797
Pb 10.420719670970938 12.485166181194423 18.376572776476095
Pb 9.889477773343565 9.485329657112795 16.194065533905448
Pb 13.311495999211584 16.71635571120304 18.25166624024908
Pb 16.816181861503175 10.71358091751905 11.500926550969458
Pb 11.356537671362348 8.344839757564788 13.54925491977664
Pb 21.382194051032958 13.727287812335458 11.146436287835023
Pb 14.55545341598697 9.236231587485147 13.37786297938241
Pb 15.052021119282442 15.155731929387773 15.511989356656471
Pb 11.610141641017869 14.657396988807966 16.062312710118306
Pb 17.49423671139523 12.274659600171988 14.599655758400363
Pb 20.388296024227007 16.58974088721921 12.38852295010538
Pb 10.469168259820723 15.633095050847707 19.09461232897233
Pb 12.06134717660162 11.502263992253516 14.723081419666004
Pb 15.693394761259686 18.34190386736834 17.04835122995977
Pb 9.361841914611963 10.799526154607337 13.048925776685811
Pb 18.025895321027285 14.346983037735464 11.931891406590474
Pb 18.615434892836962 12.553211535433364 9.31779991603536
Pb 16.942957662997713 17.759340223762813 14.013064255579927
Pb 14.657970119185974 12.729062457104215 13.087325340988512
Pb 12.695241750275148 19.94677235643922 16.697762943137487
Pb 19.773391392186614 15.612140704340884 9.217059197160134
Pb 13.27086646452934 17.648587508021333 14.429163183721242
Pb 14.935231611965726 12.732200329309222 9.828280219628663
Pb 15.22534398382521 20.59788196604283 14.808286598580048
Pb 8.845902124482981 12.573763001346643 15.658854889007054
Pb 12.283299711393887 10.680478647555967 11.487740028856397
Pb 10.279002316017781 17.615705762040356 16.626784510931987
Pb 17.67634937436386 17.652040686368093 10.699938658721015
Pb 11.488711794684194 15.118918495051808 12.344652180437391
Pb 14.94296282191843 15.804849905734658 11.69099891999323
Pb 8.619278734189564 15.640469530618473 14.837476110902763
Pb 16.499473268290277 15.372907412737414 8.747376354963764
Pb 10.391877585482902 13.191466887628213 10.036640984404507
Pb 14.945577505185918 19.40768863945564 11.84350835135028
Pb 12.265565673900396 20.521595583812733 13.471371676666145
Pb 12.795092423217879 15.160619642563411 9.0059087543413
Pb 8.214644178943367 14.802351102943238 11.785651979132181
Pb 12.29872089499937 17.972767632339444 10.6674871674561
Pb 9.511947949152677 17.78514524892333 12.408148949310705
Pb 9.742135306973251 16.356283582343416 9.494030475058619
