51
Energy = -169.17676035 eV
Pb 16.83808303577688 12.096191434361389 20.119908883889778
Pb 14.967480982828832 10.429799554826243 17.54672713372867
Pb 18.222390191732686 9.933833968462737 18.297679701916316
Pb 14.198264154669014 13.725281024033482 19.132007257855356
Pb 19.762094772032953 12.913015602793372 18.46275524618424
Pb 11.416903819901448 12.441644714429506 17.070948158224162
Pb 12.638437267027417 9.77285338791041 14.859966617481298
Pb 17.244407643170444 15.30019025018173 19.893728206303756
Pb 17.074737689555185 9.427584682200877 15.31593727809507
Pb 9.640530870693404 10.776255777898244 14.831469314174567
Pb 16.94156783660348 12.933998468262132 16.884880276258947
Pb 19.859350565183863 10.987245154419858 15.763439694924173
Pb 13.753907307493543 14.599952170154578 16.075314094641097
Pb 14.41369960268171 17.028203084449647 19.163278115111833
Pb 19.72209483293189 16.45459520697755 17.853031371791285
Pb 11.127178082409555 10.508181611689292 11.818753559921442
Pb 8.352392803679766 13.75697273277124 15.831897886230212
Pb 14.698975048228208 9.006839938951927 12.179003907655073
Pb 10.725516006993402 15.85655021878467 17.01777369613932
Pb 11.866353004725815 12.978578929839237 13.791008346082018
Pb 19.667092274383123 14.109903922831005 15.087738489590373
Pb 14.314207877969277 12.090732655611072 10.989867891721868
Pb 17.442443494140022 10.843953995341318 12.017560950572483
Pb 15.094468342178153 11.781231673572389 14.218992619481895
Pb 17.57728683473447 18.463508198276234 19.6105775544953
Pb 16.577214561382924 14.8671438019101 13.837731355248854
Pb 18.815141195947383 13.783155720198733 11.808012453747128
Pb 13.462275773291742 17.76154869708533 15.770083507305598
Pb 16.63058671402451 16.62910507145904 16.747834187800137
Pb 18.61131262866776 19.320371269005516 16.698283701575864
Pb 16.25672583125929 9.77597034418543 9.205566642672494
Pb 8.438815727291805 12.756132721680498 12.498251352212119
Pb 7.818013022753164 17.00337807346422 15.896275170863525
Pb 17.013616280888087 12.930752421403316 9.170177506079712
Pb 11.192725038531595 13.519259126925517 10.348903012737875
Pb 6.702823146735701 15.401732919662605 13.363355986274446
Pb 19.04505409625287 17.136338825848306 14.413852521061735
Pb 15.467168689548783 19.66615133621694 17.554744504311817
Pb 13.738166002761995 15.575160912832715 12.216573726843862
Pb 10.286567988015229 15.862557054267462 13.570901850971415
Pb 14.158385562088034 11.965124440583775 7.776893672922537
Pb 13.078833050397083 9.417584359930391 9.387371584859993
Pb 10.363195918461003 18.83652051661049 15.217388222381738
Pb 17.01778088097171 16.141804567334773 10.645441362740794
Pb 14.140246997558577 15.14435124174415 8.9147572103512
Pb 15.891973942501444 18.152059045647142 13.195248601984925
Pb 8.542378874335979 15.615327419955038 10.653487137597857
Pb 12.560052571380174 18.59973247667596 12.590987722186366
Pb 8.256105367484688 18.18585194893614 12.787627338757797
Pb 11.486932596638093 16.859938177777167 10.06224918061319
Pb 14.607857012953284 18.15794885518965 10.09197100381259
