52
Energy = -171.58544964 eV
Pb 14.876137193361611 16.124912312900992 8.844160354422288
Pb 12.994535183845683 18.74546048614137 9.272497121826845
Pb 15.93858172921997 19.035225878090717 10.491446463728769
Pb 11.795280110288978 16.342900078934132 7.78097624534003
Pb 16.155751059157772 13.060576173649434 9.538376750070679
Pb 13.962719434922713 10.934439983764108 10.751923206360066
Pb 17.15806145894294 15.723944218769649 11.392566791704256
Pb 17.102664007652944 10.108197424539576 10.653737456366272
Pb 18.627118953880334 12.665122603502219 11.912690591628063
Pb 17.653761895110897 18.535504884869837 13.388651369016648
Pb 16.142924779713457 21.350638541096146 12.839414120885074
Pb 12.729913551908089 13.563389694239321 8.914993317597053
Pb 13.19181060991614 20.57516158600657 11.898061536231939
Pb 14.257871074192426 14.13893824528152 12.00698372756997
Pb 11.755824085695888 15.991509849342526 11.042175211091804
Pb 19.502795785260023 15.77148591984763 13.802793952032859
Pb 15.769569602260166 11.112874528510384 13.531464245235886
Pb 14.258905800335896 17.552929575755346 12.916668889791486
Pb 12.358094934200722 10.018618989501176 14.106612186470736
Pb 11.221541195639878 12.496103637571261 11.778197331549565
Pb 18.675368263226048 9.481754079907487 13.326004893385294
Pb 16.759215879340548 14.17854879783303 14.418169164685946
Pb 19.978496495088805 12.364377943992755 14.819060500897322
Pb 19.047352088306706 18.046172648684777 16.353492054449266
Pb 11.127461205293613 18.703829506177463 13.963301363285629
Pb 17.063556209391304 20.615516093830006 15.92965306447943
Pb 15.788302527878198 17.47797112246408 16.065263062373802
Pb 12.55019958122877 13.16244948331164 14.881174067553278
Pb 13.308060220020337 8.34210477371464 16.75212819691318
Pb 14.707520636290134 20.0088842894823 18.064166202477804
Pb 9.52347174463787 11.597419713681086 14.381517788216048
Pb 9.857641238256143 14.914459763456719 13.75755666994953
Pb 19.911630735763804 9.413537439877373 16.158110338684114
Pb 13.697140940759478 20.56023606897194 15.108045323156063
Pb 9.225252445611186 17.146123326360243 16.209142649090403
Pb 14.58045058883541 11.33131737592974 16.858654052725335
Pb 19.195636213079275 14.757136193784586 16.95541904600855
Pb 12.421580132812794 16.30061458599905 15.880947915431216
Pb 15.741312149003637 14.362278413108237 17.73090372408559
Pb 10.960626919895258 10.676115876357965 17.12017584346886
Pb 16.67686227874141 8.889176960324116 15.874493473593672
Pb 17.872492588003087 11.622978966856781 17.388639287350927
Pb 17.496407411294264 16.958895150587633 19.04773313632498
Pb 9.893714776552246 13.929333529043037 16.883657818450086
Pb 14.00071938119861 17.036475270412478 18.952288456276953
Pb 12.85993341708642 13.330142715811217 19.074986475843907
Pb 13.130249262428404 9.980322969855418 19.457268269928075
Pb 11.506473667435774 19.338043120645835 17.284792384347924
Pb 15.79404498692191 11.775537961496108 20.152655390429658
Pb 18.307886304896744 13.904276454924162 20.012286770550414
Pb 10.820293259511516 16.41075446415354 18.84777389912347
Pb 15.426426925198255 14.771402500982541 21.066353244717615
