54
Energy = -178.99572761 eV
Pb 17.294249412320777 17.786989252727953 8.648477541146697
Pb 14.171694901639215 17.70168955583986 7.900404718078609
Pb 15.084314556157846 19.562056519009897 10.482374105458906
Pb 17.976699699628472 18.10980363581874 11.81557304786107
Pb 15.893739913635214 14.906728610290074 7.530094541132291
Pb 16.035935513222768 20.22732784896608 13.526035686041821
Pb 18.350685036015502 15.000100100424772 9.940785126152228
Pb 11.867630418917384 18.099147345356364 10.34087819448184
Pb 12.826470976493317 19.805888373338117 12.994974382048097
Pb 15.236272908276396 15.967459215867754 10.682226506094572
Pb 12.466514731749914 15.063814883989847 8.559443276881277
Pb 18.555183652772637 19.085278887237298 15.022334143406669
Pb 16.265965852997454 16.594339974554174 14.077236872592955
Pb 17.686552892755984 13.804877880707497 13.000529471449182
Pb 19.52317839535698 15.923401487130029 14.810341639031549
Pb 16.346348048764888 12.46397678952977 9.868526632940837
Pb 15.130773496361154 18.667243798852937 16.244108758169656
Pb 9.840336091780797 17.81906776408358 13.278930593332271
Pb 11.837522466009196 18.22968906796305 15.700973381976448
Pb 13.812288967189971 12.204097461715397 7.880770926683298
Pb 10.334861121849963 15.128169177617332 11.201182241088322
Pb 12.834816902517721 16.434358431537575 13.135644944886712
Pb 18.18362917494592 17.36599959152086 17.741698512519992
Pb 10.882784013475218 11.869209934764823 9.709654400964922
Pb 13.442844508139537 13.04676410653838 11.234016938502476
Pb 20.352342395339683 14.769549861858234 17.769145655152567
Pb 14.7978139022323 13.25199220410113 14.2679037962201
Pb 15.255475257480802 16.264900487670968 19.000882799719623
Pb 18.022206233842194 14.971044173734303 20.087901969915816
Pb 10.14025911602395 15.26857642144077 16.577775879224703
Pb 13.534046330975361 15.471776331959019 16.344685429092994
Pb 13.487405832139178 9.880842227802447 10.155616490152411
Pb 11.291263666016611 13.509759714352324 13.953685440857813
Pb 16.976258632782205 14.44239843651443 16.764525136251898
Pb 15.561671529304515 10.347942264656849 12.63547264608788
Pb 19.426301644431046 12.476936957920099 15.626613462352436
Pb 16.184140262842543 11.218408489339511 16.418150428718924
Pb 12.07587705182946 14.566677120283263 19.37198070131973
Pb 15.21581126827956 12.849578112680893 19.221183676430282
Pb 10.562194744854464 8.962352226249076 11.405309557351634
Pb 8.90991198271866 11.862247865592229 12.479982389602036
Pb 12.417171663451159 10.358199395855562 13.852313112167081
Pb 8.282474979713784 14.871799195886622 13.710386208055402
Pb 12.1658075868761 12.342555014868694 16.934498489907956
Pb 13.322057830955895 7.5362129536017095 12.428056930159407
Pb 18.4792139980574 12.114927975350756 18.669782948303965
Pb 14.876715614545821 8.315421303959342 15.110120099728594
Pb 12.041342144989494 11.462163704699076 20.169705401702398
Pb 9.31198511570548 9.213445500446795 14.440624733626839
Pb 9.363871203312284 12.918917480722886 18.950920985730725
Pb 8.650143414216354 12.1586410152508 15.865329524614763
Pb 13.572653581611263 9.445383661334574 18.008975366420653
Pb 11.842375771743702 7.7051938955200745 15.83537196118824
Pb 10.187705039730425 9.827602453936473 17.89421995935224
