51
Energy = -168.28800203 eV
Pb 8.373083472933374 12.594669381813912 15.96027402414603
Pb 9.803912386510639 10.924765818131258 18.400145107032497
Pb 9.409213856940434 15.612778459722504 16.3601172816938
Pb 8.048270233416627 14.750856214143315 13.34492292110963
Pb 7.59165879249127 17.212558786769296 11.180583330606508
Pb 8.320614678311495 17.905913483511558 14.197711780676823
Pb 11.777072882412252 15.173251564399965 18.817640512734457
Pb 10.058986292997277 9.92906890161426 15.374873211588511
Pb 12.630391690974538 9.571529965853433 17.43018317002865
Pb 10.45254873869604 12.549317304185141 13.077340235532048
Pb 12.00373516953965 9.916087803044329 11.3027788275342
Pb 11.771434997428019 12.8138076907576 16.382592128851297
Pb 11.756470744528315 18.177930633292974 17.381502635330875
Pb 10.047452946977264 15.16862750577765 10.715823011736367
Pb 10.625130750181366 12.179045228736793 9.570942079115163
Pb 11.398908419767789 16.229664730229306 13.781391736523233
Pb 10.404500159923028 18.632676922114946 11.626741964975974
Pb 13.807429579936588 17.347456518660255 20.06415493601445
Pb 13.078041480843584 10.486176618881007 14.29508109880173
Pb 15.239730346319515 10.12208004870578 11.692993256566007
Pb 14.979447108816258 14.20481008466592 19.73006768952009
Pb 10.88023795961855 19.758612834323063 14.5545062433231
Pb 12.524851940303055 12.043547196041747 19.602445284665365
Pb 13.416308649374004 13.139391024223427 11.53674678220651
Pb 14.333790238483422 16.037700428170076 16.886077266029634
Pb 15.525971024607612 13.008813048319695 15.273477454049084
Pb 13.666826355099301 11.185617359494598 8.760601713974438
Pb 13.828129091056796 18.84715573726994 14.693124220347096
Pb 12.739710969324983 14.37403189565153 8.504820891605611
Pb 17.161563281182218 12.95827171590808 12.356864429323872
Pb 16.85607634101083 16.83174513472148 18.976297294574604
Pb 12.946218459025756 16.736940396490603 10.834937476245125
Pb 15.423863646264692 11.302714820653746 18.111100886049044
Pb 16.095813613244193 9.715248327596733 15.038355338236668
Pb 14.814924517928112 19.351012155335972 17.769963720027096
Pb 15.95500705521622 13.645880666054921 9.181009357424452
Pb 14.604498482420256 15.846606794835127 13.45089343886324
Pb 18.517399705304904 9.718677779110845 12.429985989231445
Pb 17.278964539053437 10.681590966517048 9.29499723110506
Pb 17.591193128041454 15.738508120783985 15.01238538673345
Pb 16.677983210158818 18.451252250929723 13.334989742974019
Pb 19.64105882733466 16.45790624856375 17.44745234693296
Pb 17.811403684353632 13.690978635813197 17.717696777806434
Pb 16.645202929769027 16.33085275329285 10.926559025452354
Pb 18.7130504777831 11.551627254492654 15.275199068476141
Pb 20.637296012711904 12.31564841289541 12.551525265436608
Pb 19.32335842505984 13.370505269491721 9.614367122577674
Pb 17.73117818300999 18.820639687867786 16.379538676540434
Pb 19.518549587587888 15.46423605416844 12.162682135390297
Pb 20.361671934990056 10.364819759743755 9.967027547031321
Pb 20.511897497989267 14.312822405067338 15.1143188390915
