6
Energy = -16.49089908 eV
Pb 10.408546194923348 12.020727627675527 13.567400806821277
Pb 10.937011133679432 12.74653250303738 10.763949339484652
Pb 11.383623070971074 12.917969062451343 7.859920455595531
Pb 11.22055532229152 10.082766153960975 8.634703237680915
Pb 10.876841242149968 7.457243775347116 9.921081270101935
Pb 10.628776574714006 9.546030921162828 11.982593043057813
