6
Energy = -18.3384878 eV
Pb 9.116932419049665 10.114256183140249 6.799729645863497
Pb 8.690705846574124 6.660981393043208 6.523963440077599
Pb 7.933212552187488 9.968780491730106 10.145005269565038
Pb 7.525102872135153 6.481511360407731 9.778129862193499
Pb 6.637888289978249 8.592907370526252 7.740390105235634
Pb 9.994392488272847 8.079797669349981 8.911016145262375
