6
Energy = -17.76197441 eV
Pb 12.495175070861732 9.33288582189532 11.455531389944364
Pb 9.254767968730473 10.407212591623974 11.86936534518233
Pb 10.860181517040287 13.054958586685926 8.568932166606402
Pb 11.715000507474377 12.51432077374199 11.33206194381739
Pb 10.659800900005257 10.130165622919574 9.155781072126075
Pb 11.483412872001763 10.870199585923649 13.938464207275233
