6
Energy = -18.33962422 eV
Pb 15.035379974429935 -2.15245325963895 13.061893823495474
Pb 12.155436282563254 14.455327350278063 14.023490144929994
Pb 13.90516047884539 12.126227601913586 11.919834811977113
Pb 11.006416146448544 11.84446443150707 12.904150385278056
Pb 13.795854326590408 12.041082132159897 14.97337269500043
Pb 12.20596517605712 14.481434986407441 10.95640155812669
