6
Energy = -14.97140084 eV
Pb 14.69703502396016 10.296910162952265 17.61038753186335
Pb 14.73081215184777 12.235267572741611 15.628960154296662
Pb 15.877700191017965 13.855498193867831 13.379152889816494
Pb 13.061189405214684 14.659479232590089 15.02642782741731
Pb 14.376764362167684 16.412547312456333 12.972947810892306
Pb 13.75922403871147 -0.45369613321459323 12.146716648300739
