6
Energy = -17.76512347 eV
Pb 7.150109202009556 8.765604019659222 7.639264944956936
Pb 10.571671077127686 8.584962956842777 7.5418658805315175
Pb 9.00560294266951 11.022830510938046 8.52659100962447
Pb 8.74119568696917 6.160899011602363 8.02318159445177
Pb 8.915747839331647 8.172070538662782 10.359133784761545
Pb 9.201467749900198 10.879427460302452 11.495757283681655
