6
Energy = -16.77778517 eV
Pb 12.193494384429068 13.173266940432255 11.746918623178592
Pb 10.989701491604647 11.678533727762444 14.039806158282373
Pb 10.009081836136856 12.50074637574524 9.809821513512675
Pb 11.190880787625982 10.006638306860815 11.640877168563655
Pb 9.796196027338665 8.085944198363395 9.913639639693724
Pb 11.207769444752797 10.190866436948454 8.32313820296126
