6
Energy = -18.33789341 eV
Pb 12.849504521902176 9.835528342063704 9.784873228263221
Pb 12.254418754455545 12.572133450798 11.87912303952904
Pb 11.058553026333742 9.775806236129906 12.26821328841933
Pb 10.605121803779513 11.877553158775193 9.38148024289237
Pb 9.404670646079003 9.089865834518134 9.78654438563001
Pb 8.843511176560627 11.850459541611388 11.892782227981419
