7
Energy = -21.20797673 eV
Pb 13.63953776837357 12.864716317234924 11.748073787040674
Pb 11.557369658788339 11.307367585754875 13.091335871285315
Pb 12.255290438355031 9.866810243836941 10.25012787278358
Pb 10.088825543698723 8.769368422771619 12.940221613821564
Pb 11.422457909882985 12.986856176860382 9.830813451111784
Pb 9.76936127600624 11.36246257739674 8.03731657675681
Pb 9.04470759448721 10.267050689285231 10.65395216389833
