7
Energy = -19.55897111 eV
Pb 13.633323658969939 14.52191020918319 16.17532328906111
Pb 14.951217342718433 15.66632784385643 13.738052668702013
Pb 13.472968294242316 11.932247726412646 10.81861431220108
Pb 13.119081440579308 12.723773298376098 13.866893216394892
Pb 13.023468275220557 14.902740195750887 11.441009953676387
Pb 15.911774181326006 13.138726510703606 12.229123109654543
Pb 12.590128867978803 13.885479244368932 0.33795513488971235
