7
Energy = -21.20491177 eV
Pb 10.412236197094334 10.033987961612416 7.967963821444186
Pb 12.057147332634791 12.02486186959566 9.341196392504939
Pb 9.315367027397471 11.607714587183226 11.069714589928706
Pb 12.01651662187754 13.991489003170907 11.517833154216527
Pb 11.983968436361097 11.414815916079917 12.920226671509672
Pb 10.839623402026815 8.77582430039679 10.577864160295118
Pb 10.315955367986515 9.0711495659234 13.450253979012173
