7
Energy = -21.20825534 eV
Pb 10.16142833945416 9.977391784679158 6.178915195941892
Pb 9.516543970537011 7.436369496655492 7.496422549694964
Pb 8.0016219031573 10.722827575356222 8.019843783312224
Pb 10.525072809074619 9.586835813973002 9.735459199537056
Pb 9.695110713567686 6.056892945054526 10.065616794306278
Pb 7.7412972958952375 8.165978575245498 10.64960214792999
Pb 7.36338975873997 11.058168599461963 10.85860511970384
