7
Energy = -21.11185877 eV
Pb 12.40867352761215 11.541032692137023 10.459378807346168
Pb 12.900003882954428 8.357768191115506 10.646178059055352
Pb 10.713610107005394 12.606047295458982 12.995755046985616
Pb 10.906795331834306 9.621399689357592 12.541387833163704
Pb 10.516318727677199 9.131603561160812 9.027360628516861
Pb 8.351562937276377 10.803105262971256 8.025564324488458
Pb 9.042782320753785 11.953136584456566 10.61190986701615
