7
Energy = -20.87819056 eV
Pb 10.45784535693818 9.455419307962496 7.775573722930578
Pb 6.750820423556667 6.42015899072883 8.56929156349406
Pb 8.546403443983648 11.922019102463 9.301259606668093
Pb 7.471559918405415 9.156633089482268 9.169098075112542
Pb 11.600418914844077 11.684459655322554 9.630604647429719
Pb 9.77827915125215 6.759041908890206 9.267517715691566
Pb 10.15118318208925 9.358778336220295 11.0431650597427
