7
Energy = -21.20504417 eV
Pb 10.936800152040135 7.678297731829822 10.266887265043826
Pb 12.820797478853008 9.917173438465042 10.413783141243973
Pb 13.432009444426376 12.340370447668253 11.94616038092766
Pb 10.90913087829083 13.041415610899495 10.630257651694414
Pb 10.383574829632327 10.436495645982438 12.519031805519502
Pb 9.271767418185872 9.96437995347813 9.489516445031258
Pb 8.049464910532391 12.40281172627124 10.557578463749017
