8
Energy = -22.71225744 eV
Pb 9.178981443758614 13.427377439577164 13.426915609238284
Pb 10.637130658084438 11.426643686568251 11.656041453181878
Pb 12.495029656519133 12.607411868906016 9.316529920523799
Pb 13.563662539531649 10.43043432282384 7.697415131126087
Pb 11.853305901776935 9.189175888694153 9.720436361017509
Pb 10.577460894292834 8.358043174733693 12.364579590810399
Pb 10.763199113383957 14.487408774090731 10.97653476989178
Pb 9.615998249165917 10.50379084420844 14.37737641358519
