8
Energy = -23.96529991 eV
Pb 11.104380874759812 13.032305560935924 10.50555130516842
Pb 13.214026658717234 10.500452453653645 11.46298622526365
Pb 10.559090294646193 10.030257358004896 10.119684244563429
Pb 13.880183515355991 14.146177352225957 11.932031413432458
Pb 10.812633651369518 14.532046613747996 13.202207223881498
Pb 9.861791601679208 11.345126890882621 12.926483921067174
Pb 15.447758637323544 11.646690865991355 13.124946847582379
Pb 12.707980985371707 12.354789123780693 14.313955038264199
