8
Energy = -22.37327387 eV
Pb 15.105422592807177 11.57376261409934 11.7734737066021
Pb 10.56256034556397 9.657252995118037 13.527455261969052
Pb 12.088284642101614 11.509389648269426 11.546010709108206
Pb 10.855385246498171 13.361634894274278 8.543870820802772
Pb 13.603188608641439 13.423996448427378 9.73068124718727
Pb 9.15466680161046 12.53088546573756 10.909061416050395
Pb 8.05409547552243 11.466052847447811 13.499922236877772
Pb 13.482859169754487 9.187853282287366 13.187529739640903
