8
Energy = -24.75879694 eV
Pb 7.521192814354881 10.132195761211403 6.768071109082357
Pb 10.463932039168956 11.106535330241023 7.302277016106107
Pb 9.628618946158895 7.993440455300659 7.907974293168509
Pb 6.559130719196376 8.20985144606037 9.05763868521653
Pb 8.327047763844748 10.88481653761757 9.785927109688155
Pb 11.40756437810633 9.818544767747882 9.950400116996368
Pb 8.884711564394612 7.9478886162657 11.080150176031964
Pb 11.50921997850922 8.208145289289567 12.44897969744416
