8
Energy = -24.22238843 eV
Pb 12.46309468571108 13.105793067440722 12.809693767204525
Pb 10.477068606535282 10.924683546947891 12.745702801187404
Pb 11.059941597003 7.9834380345029965 11.344306593768179
Pb 11.413709825680138 13.438317246768204 10.084459211712728
Pb 8.187435136877491 9.000552591239558 11.967161197131725
Pb 11.088868114955593 11.849836559943155 7.6081704981456735
Pb 9.514050406718642 10.352899681072456 9.587446107501687
Pb 12.843115369959692 10.486714236209602 10.376260904025623
