8
Energy = -22.72731162 eV
Pb 9.440156703924226 12.819690376738132 14.016198061460138
Pb 13.440519255238193 11.32659082528697 10.883866298614508
Pb 10.666257400949448 10.798194963416133 11.99007816660408
Pb 14.306472135345704 14.947095030079131 15.062990475137958
Pb 15.458485194199483 13.638856119695392 12.582314912001904
Pb 11.230817578551944 14.849216890070576 15.533262014427446
Pb 12.433770436776426 12.965896436721943 13.463012235334478
Pb 16.13925514061489 12.163196629481783 10.162201055086323
