8
Energy = -24.22348983 eV
Pb 13.780205298583967 10.6622958310625 9.19810489487494
Pb 9.316317855910413 13.838963723837601 11.568869996913698
Pb 8.153815494628311 11.390860207607046 10.374419284175813
Pb 11.626192272178914 12.492523505142387 10.348919098737024
Pb 8.408914913762633 8.477618305404704 10.66139625112486
Pb 10.186117676735986 10.690002128856507 12.87420892856208
Pb 11.197931028683904 9.18325701734202 10.025113174069606
Pb 13.343093469352453 10.40086108830926 12.2648415663531
