9
Energy = -27.57572262 eV
Pb 10.010646245256268 9.833487985360167 10.536922853264596
Pb 9.866780459363694 12.548067638735164 9.28107171747621
Pb 12.29754151147047 9.366088149569316 12.879879816049744
Pb 14.221060343391777 11.66169961054659 13.075128639626312
Pb 10.221815037178983 7.408236254750544 12.154144340258656
Pb 12.857101014754692 12.192639643478648 10.273181749881983
Pb 10.645845820886025 12.28877973525539 12.791332397601986
Pb 13.151073537110115 14.534131173688875 12.749937162557513
Pb 10.893887643586222 14.975977008242202 10.89608190542812
