9
Energy = -27.75815668 eV
Pb 12.491013711159589 8.082454394218722 8.808640639498572
Pb 10.945893779438066 10.272634136456404 7.331324945045552
Pb 9.35682111211659 7.88950422129411 8.908616089239594
Pb 7.957417030095716 9.820545813996942 6.801291738924491
Pb 10.77476758256436 10.340102200234382 13.694568852218392
Pb 9.652009003350548 12.54236728225242 11.76127560644462
Pb 8.53662920822479 9.23231051133739 12.012668665759138
Pb 8.276233222015014 11.07025475301115 9.510621906282575
Pb 11.528962360858603 10.269573697021759 10.69073856641034
