9
Energy = -28.90048946 eV
Pb 8.916709269543485 10.768932523926503 9.76403707383359
Pb 8.620644038764457 11.033998276910502 6.541033157679043
Pb 11.092497709870514 9.334587454816564 7.791232621646236
Pb 7.807111624002089 5.614421213529555 9.267879291996973
Pb 6.832158263758122 8.404938327167226 10.628282136255358
Pb 10.359613230987918 6.172371502343804 7.564729508756603
Pb 7.938640959679662 8.130079975642646 7.434261136123619
Pb 6.062416507952476 10.479711326131806 8.245985407814565
Pb 10.013334750370593 7.704085399531275 10.405685310964216
