9
Energy = -27.6632034 eV
Pb 10.374885768889477 11.883959218625382 8.976929219264335
Pb 13.220686662127923 9.796983556412123 8.713124638951493
Pb 8.09756534270549 9.500411017545186 8.396322201048884
Pb 13.257464746152914 12.692885473219459 9.62505865230409
Pb 10.751505484738626 8.651841413141398 9.935594557794387
Pb 8.364660662167637 7.288538084324569 11.102463739444689
Pb 6.084247999626919 9.268397549592994 10.73001167398449
Pb 8.643039317341794 10.791589045453101 11.499573614735015
Pb 11.985419375616994 10.904870001053277 11.800397061839961
