9
Energy = -27.35447819 eV
Pb 7.650027331037164 11.283168930205973 12.365364545753614
Pb 13.298732805091111 12.574762921491818 12.658887836626116
Pb 10.562007264827928 11.487803384266195 12.766098239889017
Pb 12.338732809379785 12.19535040831359 9.762068091511205
Pb 8.983944971395674 11.465677821656316 9.604115154588829
Pb 13.44158620301627 9.684785278178271 11.593984541621458
Pb 8.872985258583824 8.656644883563828 11.332642559105002
Pb 11.354535917661597 8.80768418676121 9.506655257382691
Pb 10.960455609074202 10.903079641457493 7.34739039674028
