34
Energy = -71.56217223 eV
Ag 13.683944767277245 17.267217120820554 13.480077707328737
Ag 13.763099783550791 11.025995712126775 10.286941864211133
Ag 9.464034099899495 11.598788666273888 14.349866816294439
Ag 13.798625238700316 12.888082742607883 12.387024799355284
Ag 10.256772588565303 14.138974816611524 10.380825340026266
Ag 11.72328742761137 9.031841734223061 10.414953448135343
Ag 9.529047369583779 16.481387353230623 11.906079272173555
Ag 12.16642889685459 15.823531286723146 11.637887492858077
Ag 15.673338740195785 13.153143261194607 10.181390600492788
Ag 14.14508511606737 12.259157292295063 7.8599504662197806
Ag 11.300603063818423 11.665106644001066 9.000925603187731
Ag 14.924004475950012 11.965115341374021 14.741447071450693
Ag 13.004761447896046 9.615656689118868 8.044315989104565
Ag 17.530960134501488 11.154513161397064 14.262802148532339
Ag 9.121217088300556 9.937474275598648 9.957659580193429
Ag 14.342619459163412 8.393702830174465 11.165804471998525
Ag 12.152121181648825 7.542846581059803 12.858501195007024
Ag 8.502346494114823 12.133448650071966 11.650865794104437
Ag 10.036973643515164 9.339568316941687 12.577519353797461
Ag 13.454350625777355 14.665852966093263 14.503985539428777
Ag 13.150874822358903 10.094629706031126 13.071395220537456
Ag 10.667437672333346 14.082967314293741 15.821522397151254
Ag 15.784113397826465 10.684618084975488 12.198164857312037
Ag 16.534810758404628 13.387553701531232 12.89928180105173
Ag 8.619325984205194 12.439906584738635 8.867297704683677
Ag 12.996733981295295 13.921484224801636 9.81593106760827
Ag 8.420312724968918 9.038921725578586 14.795729417330335
Ag 12.174269039422356 12.140128554634364 14.709069582956786
Ag 11.270431469193836 11.879206183001207 11.824823073195727
Ag 14.865381092770757 15.368878804598182 11.808733957516608
Ag 11.176721852927358 16.337725535045898 14.24408461162121
Ag 9.884695954798406 14.06313963513802 13.175520242519664
Ag 7.383363738246364 9.618005020515271 12.20110529940736
Ag 11.22134429509461 9.493625817134548 15.042874856966256
