54
Energy = -118.59035698 eV
Ag 8.582190949123842 15.253060440505992 13.696918602477997
Ag 8.354236424234271 12.647941042119692 15.29135594742216
Ag 6.872589155964911 14.65089183943464 11.60484521248988
Ag 11.339821145599933 16.136322750359046 12.870092653155895
Ag 10.796114066868558 11.218078838160881 10.558289482061612
Ag 8.501472391449942 15.182170588197657 16.49177633238709
Ag 6.864770825236451 12.227869280269669 12.94259184380492
Ag 10.832049583897168 13.717669297765601 8.988892050600132
Ag 11.68713887526164 7.297273915012497 9.849720116224512
Ag 10.477533105062312 8.730976158722564 12.00923502260053
Ag 12.744295136403487 7.158798640687143 12.457736878492202
Ag 12.995138794670549 16.234560001899904 15.134151495279044
Ag 14.105556386033212 15.678588515897058 12.606198703307316
Ag 11.812667660298493 9.74607943129937 8.186225282660846
Ag 10.83031098928327 11.128802801134544 15.911406075509412
Ag 11.747504552835737 8.788040241362387 14.542579040425696
Ag 9.86957119193689 13.050061522829148 17.637524309331834
Ag 11.97743758592638 12.266214359942147 6.831737163017174
Ag 12.14563876300766 13.579468372380829 11.776493821020404
Ag 13.212834748363138 9.462203291632651 10.866256485185117
Ag 11.320703043713177 15.44568741867973 17.37020069538233
Ag 14.382694167766775 9.218656037782065 13.437534310395263
Ag 9.067582597358369 10.230449053734631 13.980986567962306
Ag 16.59453382073219 9.964008893620827 11.905852930590155
Ag 14.179643859007172 15.242716693657462 17.457104956031785
Ag 12.647928966708712 12.969853678590793 17.055027183785548
Ag 13.660074779330314 10.786128558850235 15.603993597404457
Ag 10.946843568245452 13.973439273513181 14.857380720095552
Ag 11.915805507365949 11.249972752035033 13.277606180461213
Ag 18.424858807276784 11.956625494599182 12.77420022098412
Ag 13.222192365045478 11.998047644020156 9.3541888806345
Ag 17.811852931893362 13.499675084509345 15.074994550112088
Ag 14.009877620722417 8.063867311629515 8.47258311787959
Ag 16.10613260615611 11.336976043009065 14.305456838774942
Ag 15.439137881017945 12.908135508667394 16.50569312729374
Ag 9.553939683540575 12.780042644095586 12.647127887416932
Ag 15.523453680075267 10.234401037020657 9.36779564520031
Ag 9.38884648937539 8.884771523500916 9.351546551409534
Ag 8.200612280161051 10.329817069262074 11.35953926016118
Ag 14.452207601626805 11.795411736138037 11.911995742072168
Ag 15.672930501140836 15.381005034025385 15.044473057908988
Ag 10.553917897146048 7.479711827448714 7.297153936639106
Ag 13.714680762094126 13.357034456626675 14.258789567815963
Ag 16.925918060008584 12.404674161136718 10.443426352792931
Ag 10.268824020264665 16.942774319163725 15.251977481493203
Ag 16.31739497595026 13.916977029591816 12.725701567687278
Ag 8.313773440872602 12.827122291726862 10.075805709209467
Ag 9.524940058139718 11.372701348948937 7.999759716688965
Ag 14.203452609061635 10.517866258687665 6.934088459508994
Ag 14.816203009598437 14.272816139392615 10.306305349751128
Ag 15.551000505649538 12.778874720197221 7.989967926275186
Ag 9.579016006887569 15.182280931928188 11.010960843870857
Ag 13.326368045956354 14.543108472611546 7.890820303402355
Ag 12.397341103665653 15.830380676461436 10.205257084745885
