33
Energy = -68.76110344 eV
Ag 8.32268679590547 13.154266468075805 12.725773618153196
Ag 12.414264134042515 16.283008083664715 12.019300621056178
Ag 16.266453592194623 13.692671125787317 13.352697331111855
Ag 9.800330308030727 11.967442228584224 14.67927417761576
Ag 9.73696537686866 12.742474472688041 10.426666405742738
Ag 6.848291727983334 8.357346999098866 15.144835863990302
Ag 15.622232033078225 11.647413926555304 11.420568394401155
Ag 11.759888952248893 9.204319751292893 10.12218512273904
Ag 14.171429977353242 11.89389064024679 13.718083110419368
Ag 16.49232831739127 14.180087415180807 10.374792872339215
Ag 11.748335239620136 11.740311661867532 8.674464886971407
Ag 11.866777896372092 17.161690835498803 9.487456724569501
Ag 9.818319743639185 10.411198972432018 12.09779723932563
Ag 9.41402047303539 7.7763102039213745 10.360923167240134
Ag 14.047806754733864 14.056346654680095 11.745206009348749
Ag 9.55913936688537 9.131908922812965 14.868724468255397
Ag 14.246023377984901 13.107807334976892 9.040013912646916
Ag 11.866549641381257 14.393417776646691 9.921931935898673
Ag 11.134528318370842 13.825719606153124 12.863629941181138
Ag 16.670670786934593 11.708903754775367 8.892846246028563
Ag 13.449767450245321 14.973072787651388 14.237629652280816
Ag 14.20440024096083 10.337649628214807 9.38342247698803
Ag 15.014009100940063 13.449869959571847 15.891005522584324
Ag 7.42515996515067 10.67035777538412 13.736999578196581
Ag 8.127066469046365 8.143270722969085 12.704903046752682
Ag 11.930455180680825 10.291738901349323 14.106747253861526
Ag 13.72210408934682 9.408997784273302 12.150797906704444
Ag 7.402488323754168 11.128498749212039 10.92507599851386
Ag 12.279613939114036 12.749692114679275 15.526167485422105
Ag 12.409010037378858 11.747793080061511 11.37606474287433
Ag 11.166014010327267 8.02688343166217 12.640391156396587
Ag 14.314448235476076 15.884902086691582 9.660565465091482
Ag 9.36545212371352 10.300327029575394 9.121266738127213
