13
Energy = -8.4810163 eV
Rb 16.571913673492 19.47070900236963 9.768527432782081
Rb 15.289356247610451 11.040259058883617 12.631966270727892
Rb 15.058228508789949 15.851096686105395 12.523677001243591
Rb 11.08230289329659 13.231855581360408 13.092075030899979
Rb 19.332037451789184 18.129873732455703 13.370016612521761
Rb 14.655152285870438 20.590105132798026 13.94456182992248
Rb 11.879836851752106 9.030469352412517 15.535759706480299
Rb 16.445407750158473 9.131811140583718 16.924972139385066
Rb 18.595557206386104 13.75805502980129 15.276578375350487
Rb 16.54629868346261 17.688863757449468 17.264261706810704
Rb 9.579526828389321 12.648264966336598 17.642223162105584
Rb 14.214764511561185 13.274250620197696 17.106620320925128
Rb 11.855906753409274 17.260675585213765 16.025050056812795
