18
Energy = -12.47617251 eV
Rb 14.593127275974657 11.18593480541221 9.541889654166873
Rb 13.733907395762458 15.927221418035746 9.271781489661565
Rb 11.021469574066389 13.275246178245881 12.487408683922249
Rb 18.23469555334555 14.937077694270528 10.323907995504223
Rb 19.004969490845884 10.703854508588142 12.732926907009151
Rb 10.893968446468357 18.051832724797322 12.269767717660008
Rb 14.079941421417635 9.097043021964863 13.966787963691997
Rb 15.81400593145171 18.507035138132984 12.729801079528345
Rb 15.46527871682617 13.256770501159512 13.343502758998236
Rb 18.99554818333018 14.818096564049734 15.667320746306793
Rb 12.539110819395193 20.241560867247834 16.224983450151942
Rb 13.833397708840396 16.03258977332649 15.94117926945301
Rb 17.256578132007032 10.412950703715522 17.219711880250223
Rb 9.416932078537483 15.991184642151074 16.283561620728307
Rb 16.827667085781908 18.567294000882573 18.01155147923685
Rb 12.783139508283808 12.018980804872715 17.735122432456233
Rb 16.72923139157853 14.202831295995546 19.82409207165552
Rb 12.479316519493707 16.474780590556865 20.12698803302493
