12
Energy = -6.3004567 eV
Rb 13.74637520235104 15.806749310293615 8.975973952352184
Rb 16.90725461725389 18.549331039221595 10.869444373723555
Rb 12.587670700932321 17.665092569996816 13.101554736704886
Rb 11.226809404269424 12.989778375730229 13.004742709029344
Rb 15.876340448964761 14.067554626426185 12.786369685132133
Rb 20.009390499147226 16.234407531217244 13.347724947638731
Rb 17.408967691513798 13.460236108061002 17.270840382785515
Rb 14.196540647841482 10.606213217967875 15.609915758472651
Rb 9.925095519471887 11.249947329892409 17.300648136911374
Rb 16.37016190271905 17.95479010410384 15.733654803304308
Rb 14.021716042641001 11.568440187078561 20.139833622101797
Rb 12.88161115644304 15.005393433559409 17.0172307253923
