15
Energy = -9.99260438 eV
Rb 10.805217180344014 11.782519373854875 13.555332108905754
Rb 11.019510685907674 16.701117442386415 12.862686614728444
Rb 15.739386872515874 16.681140341418207 13.971674256881553
Rb 14.996552091189882 9.2872965341501 11.85310675935685
Rb 18.40568597571338 12.740667108244363 12.399295877166725
Rb 20.429660751797357 16.717215540060376 14.48862958599468
Rb 13.955378765307456 13.709365816462046 10.810923715844309
Rb 8.5841920026841 18.55209880135511 16.489482360515073
Rb 16.1629546762773 15.776845705155354 18.6168851715192
Rb 13.10737271452177 19.37603296828753 17.06899373844735
Rb 20.789570871973435 16.81585547660347 19.242892763908486
Rb 14.973270828550765 12.148537018493192 15.588919767087551
Rb 19.508932449646203 12.924404006014672 17.021923409664016
Rb 11.607443391813144 14.911547062038926 17.009250149622552
Rb 17.89516083577539 19.855646899492466 17.00029381437503
