17
Energy = -11.68678176 eV
Rb 18.809239085937794 14.566327720248648 9.618068170747687
Rb 14.721310506351442 17.40671791339686 9.374801306608864
Rb 14.666121589012679 12.92150612502001 11.018775324273214
Rb 13.941289878844996 20.63251521882753 13.034040124683447
Rb 10.97706713724229 11.540369916278125 13.757572570472353
Rb 18.702483784640023 12.363994771059515 13.787406536025633
Rb 17.245044228675642 17.11241454096082 13.273826627123324
Rb 11.816155324713112 16.514321315225324 12.960399270904166
Rb 15.213311951428349 9.303448202605892 14.42786839308978
Rb 14.49697001616216 13.88415319413649 15.712341214458164
Rb 10.270624731223165 14.95831927255718 17.526074568775037
Rb 12.195727424466892 10.514142982384882 18.264830769780957
Rb 17.492740816574962 20.62439309558651 16.344812646502508
Rb 13.329577654469926 18.52374523939978 17.200987658608913
Rb 17.041285162100554 11.256588777507337 18.401798590439633
Rb 17.937596579494148 16.203135337190947 17.92651180932099
Rb 14.105694127917854 14.636146376870299 20.332124417441936
