10
Energy = -5.92331439 eV
Rb 14.440740675078583 16.783316351673157 9.492588089314165
Rb 17.60002411245197 14.259835166690083 12.375402245085327
Rb 13.296926995138756 12.987265092668503 12.52659842217764
Rb 16.409022252650733 18.372787123126432 13.800107647880333
Rb 12.115451428966832 17.071768229425942 13.916731208859433
Rb 16.145674387143583 11.599187262926735 16.04777546217305
Rb 12.282157553496369 13.589451546817408 17.121361645220976
Rb 18.359448838702992 15.407954468682792 16.888854171411737
Rb 14.485728444561067 17.407414899915505 18.016867902579325
Rb 15.73202943769793 13.38822398396256 20.680917331186826
