10
Energy = -6.07352288 eV
Rb 9.469094841039592 5.858964470443639 8.852774475150108
Rb 6.942400043065829 10.343966336449922 7.8662962655723
Rb 11.353128918719936 9.332773226794757 11.21722622349638
Rb 10.357068852803728 13.462286751415213 8.230994432245568
Rb 12.50659845325535 13.734557856128522 12.49013133851885
Rb 14.38430677317926 6.48125530258798 8.204323901675082
Rb 11.31945938368613 9.376691552557293 6.127419441739948
Rb 6.660172166121178 8.090763494906083 12.071731925935136
Rb 4.682009909444285 6.122124446792398 8.114926121893449
Rb 7.788843626702691 12.659699529942174 12.287258841791028
