15
Energy = -10.0465571 eV
Rb 13.299403062458742 15.16923869264293 9.011018529670876
Rb 17.5435863316716 16.85484276306449 11.03253709700304
Rb 11.599314050841947 11.033238749816112 10.908906147540472
Rb 20.969128515514278 18.042013482677323 14.231011090180676
Rb 13.147486145610523 18.190305004718308 12.702554252450204
Rb 14.643596924122216 13.668495312063339 13.212339624532172
Rb 9.895571623688847 14.94458072672806 12.72025812497495
Rb 11.24788688396449 11.58836242364375 15.903989556985726
Rb 19.19570035266525 13.650240163560698 14.357738313252908
Rb 16.62231587010866 17.39168470197126 15.882522854556287
Rb 15.947475810668331 12.711363823485922 17.607554786071812
Rb 12.24601324092903 15.999679991333457 16.870543575026232
Rb 12.106808237114226 12.889074098736366 20.52919772251952
Rb 19.936858101907383 15.613959565224055 18.502893957329444
Rb 15.605315756414964 16.259381408014264 20.533395275586937
