12
Energy = -7.00987913 eV
Rb 12.18998834433009 8.068375275914335 11.70117483354735
Rb 9.219097356026557 7.73731098938937 7.920130009160866
Rb 9.45940480970447 16.07940467380179 11.470189742770005
Rb 7.698041660518148 5.4321601319676 11.783983007707686
Rb 11.371905634807852 12.061355048048142 9.093061230664178
Rb 11.612681140778934 12.080956788875692 13.890836608544415
Rb 7.159835467357913 13.477365132736962 14.696937046131474
Rb 8.63409913643475 8.553158322186658 -5.967134360300379
Rb 11.212567027388488 4.525998895694469 14.673117507699441
Rb 7.200948040930499 10.280846343313842 11.259531426487566
Rb -0.7128044212040949 13.518247103935506 20.21949468363332
Rb 11.88138709053545 16.497402839266968 7.5712598090848315
