11
Energy = -7.00688385 eV
Rb 17.27935056350307 13.666674540562674 8.813920702711068
Rb 18.663706922113043 16.917404553977885 12.046859116447942
Rb 14.192157274996882 15.787464119022216 11.736093213204363
Rb 13.560592789801207 11.265167105848741 11.385423038756558
Rb 17.576820632865566 12.50370843415081 13.37494952377705
Rb 10.668487635641828 13.951919535050777 14.125217095805187
Rb 12.382644352143929 18.198506185371386 15.260851059605544
Rb 13.99829802933303 11.504581314116585 16.217608429713437
Rb 9.435465769459343 11.224796819615502 17.744776355341827
Rb 16.142596868348512 15.699119558972471 16.283694049219772
Rb 11.842180253843509 15.022958925360575 18.752908507467026
