10
Energy = -5.10219101 eV
Rb 12.299594114804702 9.411825222980077 10.852527193161874
Rb 14.083406698168963 13.691213064033521 10.843591720667552
Rb 11.836780560384753 17.374929774718197 12.689738459835299
Rb 10.289278487154517 12.837171314623015 13.413888803204975
Rb 17.843465410594582 12.429155135840693 13.114448409337486
Rb 16.280144769248967 16.84659793086142 13.71223320067736
Rb 14.004554554982356 11.103651531080402 15.258204586800776
Rb 15.99715269837247 18.83723859536226 17.928485528019447
Rb 16.864125289801464 14.219656457361495 17.49679302817841
Rb 12.571104686096263 15.31816824274796 16.759696339725714
