10
Energy = -6.27178108 eV
Rb 13.96026119336467 12.029288518779529 15.81521282559582
Rb 18.71742783171394 12.408118465859 14.646607604442211
Rb 16.688738529755643 15.424888390589171 17.523230251509528
Rb 16.916142466816623 8.50715565648249 13.660411958869105
Rb 12.026576238228001 15.716657444691585 17.713081334770795
Rb 12.366801252434703 15.683245601344598 13.1261234253255
Rb 16.96702035825855 16.440352189269255 12.76241834532737
Rb 14.665378754981182 19.317345720001903 15.595734822015675
Rb 15.057844119178707 12.42108638505651 11.350500687367738
Rb 10.27347530467852 19.691527677336808 15.446344794186649
