16
Energy = -10.85583667 eV
Rb 14.960044041099655 13.304584343496844 9.736861963429337
Rb 13.962913756830847 17.72518794878497 11.594720411177994
Rb 19.017027918700727 11.003030564349132 11.333385165133812
Rb 11.995491798953 13.44805999167189 13.496684098642252
Rb 14.794234069693244 9.709497139597088 13.058823303997064
Rb 18.14523170125853 15.40983779660874 12.798065882233212
Rb 13.358546004128216 22.222447967706312 12.862228160374093
Rb 16.706946944119682 20.077124167304085 15.581173282558455
Rb 18.200647742006137 11.838959964906566 16.081265787962337
Rb 12.059146854929075 19.159796589658285 16.513350919059462
Rb 15.63983750541888 18.699614712501187 20.12588921837246
Rb 19.278121965299512 16.686171672693135 17.87390800808902
Rb 13.750124315626792 11.156377479130636 17.603276580959555
Rb 12.014333813898473 15.599915711098442 19.771596241764858
Rb 15.047993004109225 15.54319300096749 16.179785892937954
Rb 16.478539815671873 13.825382201268274 20.79816633505168
