12
Energy = -6.84590637 eV
Rb 15.612078906127703 16.18130994774313 17.963815867234132
Rb 11.677224625635354 16.454993999722046 15.913570946966347
Rb 19.726134039784334 16.606975887533856 11.102937359479345
Rb 19.862801901255953 16.042132303564962 15.616384501619237
Rb 12.180044656491981 13.292646624978898 19.70629446430986
Rb 12.820209610433727 11.703921414323741 15.284625797923786
Rb 15.80170666080969 16.99087606608 8.883452062722865
Rb 16.36955275502843 11.70399886371819 18.18258762715025
Rb 16.822605241177502 13.295978371939203 13.534773236144298
Rb 12.669151868383237 14.661135490866304 11.754727098657819
Rb 15.7101324249537 17.860819543708903 13.554892415117001
Rb 8.608424014547575 13.065278190449648 16.36200532730425
