28
Energy = -20.31367955 eV
Rb 17.332814754338393 18.833909053326952 8.748394576390982
Rb 15.471119774370454 14.645530668664815 10.871416286142084
Rb 20.436017399655924 15.550045776390244 11.288647533947977
Rb 12.991295183546919 19.504733045364485 11.275065370887726
Rb 20.99782138531609 20.608378231087322 11.618978769813944
Rb 17.12971390776018 18.564428424258107 13.36798845601843
Rb 18.037170709640385 10.585771733386725 12.776629084297122
Rb 17.696335606208105 14.31862551773918 15.274961233259228
Rb 13.081236668091572 15.93271299980024 14.924465855031883
Rb 21.420859207797992 17.71896461167348 15.774813602112983
Rb 9.723217216767761 18.83408585072869 15.676660606806847
Rb 13.86747121008924 21.460474375469566 15.74957337816439
Rb 16.583791530662136 22.91949074869043 11.646658515749944
Rb 21.821059900701975 12.55789119510839 15.485787805589416
Rb 20.060849455423952 14.516000166412061 19.8114806670934
Rb 12.37960081198314 18.13215044317367 19.796745217489963
Rb 13.849710458710447 11.051754178335704 15.357412844862385
Rb 15.107952883547929 13.991997772505961 19.09161738067831
Rb 19.019263491523496 22.266332162094887 15.989143724168008
Rb 16.807723161311298 18.117982188522078 17.87916323009763
Rb 17.963504694558086 10.11329966674169 18.100652748248233
Rb 10.437933622455883 13.723762505924421 18.45528326079066
Rb 16.033350442070105 21.909402149525693 20.201536254116416
Rb 20.485306143095634 19.570601415123527 20.28114975699533
Rb 12.485587001910137 14.021088967816002 22.988763225596283
Rb 13.276099606039725 9.871387281902017 20.182446550784398
Rb 17.001722907722556 11.868712763257822 22.83633720360205
Rb 16.615012045349133 16.924027287624128 22.66176804191197
