25
Energy = -17.88905885 eV
Rb 18.177227075961195 18.81330443081238 9.69202507796688
Rb 20.367829216996547 14.39742810486107 9.77307040192034
Rb 15.208903466747602 14.526893145572775 10.24759899606443
Rb 10.729725421354251 15.178477374580137 12.3491715003069
Rb 12.957683257172649 10.717536549493643 12.537316515262335
Rb 22.15870288308712 18.16585697784938 12.30519682661273
Rb 13.976999102211225 18.703680382602446 12.560931250818538
Rb 17.731566779794765 11.321175273213408 13.271274462204985
Rb 18.241490268728416 16.026309819121856 13.426126447655049
Rb 18.265230278391986 20.642434913942374 14.180437975701269
Rb 22.097003655596115 13.678406895829932 14.315656151906326
Rb 14.293335588398325 14.140986286821368 14.980614321314508
Rb 20.768530699481047 17.471040430621805 17.134717092578708
Rb 10.217764214562022 12.755606024166802 16.92272095109716
Rb 13.770251827788627 21.532855429819705 16.46062764932266
Rb 18.464179337262532 13.068535356794769 17.70320208002832
Rb 15.940806496191327 17.530504306706852 17.16535105085075
Rb 14.48209255587227 10.120567377210575 17.310870668827487
Rb 11.071829339584935 17.369279321697242 16.759055227572077
Rb 17.802080154102903 20.88805494777952 19.283806098867657
Rb 13.924320389183892 14.109132908777825 19.8711560714906
Rb 11.035091870844132 10.768703166453392 21.09371208920327
Rb 9.577561823984043 15.449480667365751 21.036348340251543
Rb 13.150313426052753 18.654414907504677 20.882515780164095
Rb 18.017320917449517 16.397175047201493 21.164337018811764
