20
Energy = -13.84576471 eV
Rb 14.304396512495517 12.523221243985958 9.1695470865272
Rb 13.851398720239 17.56102910728992 8.995081475914784
Rb 13.088502198691694 15.034476396367726 12.832068016206993
Rb 16.435863979475304 11.153112170366645 13.128308319123413
Rb 17.63829581274605 15.47142609993034 11.0781678851868
Rb 10.649302142314948 18.93100389742757 12.659551253981308
Rb 20.038947622068683 18.156230454152002 14.40159661904749
Rb 11.644592504507907 10.718287913855777 13.089111003368684
Rb 15.449800042199232 19.32600659634585 13.167776049454817
Rb 20.461382581732412 13.26246768894438 14.47953849036778
Rb 16.44263909924199 15.400846959692434 15.676999936996241
Rb 9.286493979943767 14.87277444891744 15.346238933158718
Rb 12.861515793244488 12.507898009078268 17.217519422614764
Rb 16.882747405923425 19.528470897010447 17.896659305321368
Rb 14.489219649725039 8.141965110977564 16.04575451209379
Rb 19.936684026176994 15.755817692535183 18.67288752352049
Rb 17.462466564345185 11.489970576146801 17.919550876204468
Rb 12.468161613185632 18.08153585278724 16.917734056351083
Rb 10.31819121075545 15.432857767692186 20.049699946404424
Rb 15.156109010937882 15.51731158644734 20.122919758106455
