27
Energy = -19.52555807 eV
Rb 15.91037336523967 20.430433863812976 11.619376429872299
Rb 19.596286860332263 16.639240586723982 10.57105104193343
Rb 11.169277142231556 19.11619851439065 10.534157306896102
Rb 14.761372842271173 15.254086170753734 10.796399744221942
Rb 10.203946117703035 14.879575207648964 12.621058590842745
Rb 13.085062645237533 17.891950912080578 14.429308581292474
Rb 14.14687623524977 12.675518795448292 14.86653722027923
Rb 12.108576517307299 22.45136884317882 14.090068222632716
Rb 17.540460648416733 16.718418560336797 14.395142632822905
Rb 22.264613382471957 15.50923466413234 15.09623515630179
Rb 18.56212059762446 12.306434597990716 12.889195085324287
Rb 20.455363758837173 20.147037694294028 13.911727325149768
Rb 8.690975821303246 18.899062493366117 14.861672449237668
Rb 22.048628573835074 10.671419344969545 16.515318516075816
Rb 17.43557097659178 9.284786151379764 16.60866078935254
Rb 12.00639132845953 20.15531515726471 18.43103265276695
Rb 18.713850143228225 13.542344872552759 17.518248471822183
Rb 10.8288130413781 15.0193324995679 17.549207219340026
Rb 16.28563087988801 21.095500070297284 16.39780570582177
Rb 20.01353002354965 18.214348006023496 18.449941479287453
Rb 15.31827711098836 16.551717605171817 18.22296155191716
Rb 22.694368173345868 14.2855554386516 19.857710331024606
Rb 14.679046398831069 12.04103276387468 19.666282500240378
Rb 19.527831159927715 10.538144252775046 20.80117409282941
Rb 16.250109151209966 19.86889603754036 21.16228277817654
Rb 18.32751417825693 15.283998691192464 21.89049212441109
Rb 13.04194089025797 16.195856168556368 21.91375996410165
