22
Energy = -15.49748265 eV
Rb 14.361536798536287 13.106265963681773 9.021930237366547
Rb 15.019432501798077 17.957376904689703 10.184640462645135
Rb 18.626153025640352 10.770919700095474 10.27770796516157
Rb 21.61796823683313 13.754096345788962 13.023875232868988
Rb 19.63888407066037 18.351458371305622 12.727696689700412
Rb 17.10276492736779 14.523884730758626 12.451714351976474
Rb 11.433320778208687 19.848310117380812 13.223478167658211
Rb 11.925410868112781 15.15477645580758 12.619655826436222
Rb 14.172556236077778 10.810001555903808 13.212741877903369
Rb 15.475773888790156 18.32310974492767 14.787523093828348
Rb 18.480451789855692 11.177518637992444 15.581130999784923
Rb 14.921157051386785 14.144669053361486 16.471779934561884
Rb 14.387746154214641 9.886073345707132 18.098671340166028
Rb 13.57052167685337 21.3742717295663 17.795345316996357
Rb 10.62154639395175 12.390224119873247 16.25700684144095
Rb 11.371713658490384 17.173363225535077 17.24847532138608
Rb 15.785374468452362 17.54634420194904 19.638512910546442
Rb 19.594138090107958 15.820446438349386 16.845045259365456
Rb 18.724768941691536 20.49308817790103 17.212586655581195
Rb 17.61748579011389 12.96641838917399 20.07888095723324
Rb 12.733701888537478 13.897294199845971 20.547569002616513
Rb 11.715035051145769 19.427530877232204 21.59147384160171
