21
Energy = -14.7905968 eV
Rb 16.738375404688824 14.133974626527639 10.529125181690537
Rb 12.049445653343266 15.775399573542341 10.701290859313888
Rb 15.89558137722762 19.11174977283177 9.970071799992535
Rb 21.146120813618378 12.865362238575427 11.821992381515702
Rb 19.67208377531132 17.373073331964118 12.886960687575366
Rb 13.547518257748782 12.310666099478834 13.579027263713298
Rb 12.200733805341022 20.22172882358887 12.96292359165271
Rb 15.177662636659713 16.85377496962881 13.996538396735312
Rb 17.407287670257578 9.832756304554152 12.680917531286191
Rb 8.991124287472854 12.65793949759456 12.837559268940266
Rb 10.596353463480321 16.27415750669768 15.318825905095522
Rb 16.87739919406258 21.18061199502816 14.43309818006858
Rb 18.36206186333596 13.523886992548787 15.404167672207246
Rb 10.746316345891117 11.850614103100233 17.41716176428734
Rb 13.663122115122254 19.467002827955998 17.667164698063363
Rb 15.56121234631731 10.233831101083409 17.40169166340843
Rb 14.29135491079559 14.743761152397132 17.94472988480915
Rb 18.191216183560794 17.769102739739317 17.71739146012006
Rb 18.23687697285156 13.409946361146595 20.109212718326482
Rb 13.832875319155246 11.960411005830933 21.609475512447325
Rb 15.446476275592072 17.081447648019093 21.641872250584708
