25
Energy = -17.88381937 eV
Rb 18.78576389466675 14.752582279308887 9.689644459321572
Rb 14.939462202326242 17.62007108725314 8.781643143018854
Rb 14.219236468357145 13.182855718685472 10.652698496354933
Rb 19.307819416310252 19.514625188516444 10.950781637355453
Rb 17.92249980228071 12.063289077451689 13.813573967772095
Rb 16.150197228674887 16.826326383265393 13.193542672739385
Rb 21.063740798376298 16.13227196713763 14.092080132394246
Rb 11.465870091914327 16.82292336918409 12.607816707757882
Rb 17.91910173652385 20.62231834135012 15.656993220430028
Rb 13.341992794423286 13.469968183222905 15.70190312058312
Rb 21.140675855315664 12.557039779105244 17.765020943776864
Rb 22.394038550506 20.75307562251067 15.138306394709526
Rb 16.73308657297284 11.026861688080773 18.68273159560738
Rb 20.237276268667408 22.21427334115975 19.82481649272707
Rb 13.48938558418563 19.077113100677927 16.60749064663536
Rb 10.00686175236399 16.459645725774184 17.775681206089388
Rb 21.551102782807167 17.566409149646528 18.801292084938698
Rb 17.43355880207509 15.542110399720865 17.247064697389813
Rb 16.876714099990547 18.92819256861675 20.095769662145965
Rb 16.514499295513453 22.069448553016596 23.52044214719818
Rb 12.40886483239235 19.49982469851835 21.49124593483739
Rb 20.25025754095027 18.9710741788383 23.572775028633888
Rb 13.850600750608448 14.890722087154728 20.425451177895628
Rb 18.781167786102703 14.505989649790518 21.860635685632065
Rb 15.674696774434885 17.389459544753056 24.509070426795564
