28
Energy = -20.14765558 eV
Rb 15.861716251276718 18.61971083928481 10.119219099926518
Rb 20.511709404055324 19.146660997679476 11.251417202110016
Rb 19.567253009945215 14.803404223924913 9.290881231811143
Rb 17.834351445671178 23.116460322838698 10.973908506166573
Rb 16.93129029872098 15.342494082711339 13.205369265220938
Rb 15.738141449411122 20.679791988322364 14.52525890806076
Rb 19.162813245087595 11.200535133785523 12.605051267635286
Rb 19.63900420059774 18.065877376326124 15.85921571652093
Rb 12.581652035987098 16.998993817105735 14.261571473196279
Rb 22.352430470341815 14.907772232559845 13.225792476535936
Rb 24.08003512085979 19.47031444163239 14.546881360652142
Rb 20.389887289017178 22.72545185139576 15.033242103688345
Rb 19.552297276518274 13.240251110323094 17.02176109095531
Rb 14.785855908646822 12.126688526181315 16.103919954630634
Rb 11.452438010890925 15.231188814312413 19.063277529679276
Rb 15.809286418521982 16.610883400098412 17.79824831921935
Rb 23.51119321594596 15.93649285438069 18.006586261002273
Rb 12.154734623576463 10.51825860213043 20.14760732855716
Rb 12.518676598611094 20.071440723247644 18.192725628078048
Rb 22.27987992429077 20.518930054375854 19.103082503407975
Rb 17.364425181220994 21.233645531732694 19.116947916560417
Rb 13.512245470176891 22.439824724822053 22.205068976462137
Rb 16.092537375561047 12.900012727465919 20.868685845823613
Rb 19.626502379423833 16.728852268519397 20.88567783311696
Rb 10.428713684654003 18.449178534916843 22.6761392543817
Rb 12.012524679067687 13.919212022584508 23.67852175235954
Rb 14.977888206298813 17.82324307986102 22.305301173876085
Rb 16.599468843104454 14.503381734962122 0.3956325612570652
