23
Energy = -12.83137703 eV
Rb 15.782264847235776 19.51754348398641 9.592740570438758
Rb 16.001503461652664 14.532003971914163 10.865015058207895
Rb 11.80424657670432 16.896857233088618 11.349570222175283
Rb 19.653536092035907 17.725768533945885 12.057429807644473
Rb 20.42711372061205 12.807289375666887 11.917097231113065
Rb 12.723629225818602 21.472447614674287 12.966647357660895
Rb 17.613716399344117 22.10332391729305 13.126057329752312
Rb 15.392023469917087 17.98919729280951 14.015714463978409
Rb 16.151716773028074 10.467696150543079 13.613369715864286
Rb 12.960643837482126 13.612813910479332 14.763622080974056
Rb 17.902414530349237 14.460100450972242 15.30671857586469
Rb 14.887222644682621 21.14981140608471 17.399508599332435
Rb 12.340004575104752 9.322850188153412 17.074811117585497
Rb 11.173753021439563 17.7253663280681 16.224692189591337
Rb 22.309586584120904 15.648226113355303 15.598986224466152
Rb 16.03206221219545 11.678509140974088 18.501426252013964
Rb 19.172965566762073 19.109829472738223 16.855000538889513
Rb 15.033615166728941 16.477145899547892 18.46407390902926
Rb 19.424674635911522 15.206899350193671 19.696191507456582
Rb 11.55866435346 13.526810816010066 19.266368375471895
Rb 17.274177167256028 19.18674816338769 21.34332893676312
Rb 13.372394010911988 9.670824116951204 21.828719636522177
Rb 15.344665850794962 14.048531792711584 22.509505022752876
