25
Energy = -15.20602225 eV
Rb 17.375980797987456 15.129186968197233 11.08924735223325
Rb 12.31763159893904 15.103802605718057 10.474764472783908
Rb 22.07806705048615 15.18066655367707 13.422961514847513
Rb 19.538251937581162 19.239544881135167 13.456410653247572
Rb 18.77544795247478 11.250286684879788 13.856891665109398
Rb 14.603061243489693 18.175017034749295 13.377560981350916
Rb 16.193714348379476 22.562133711527842 14.56244678374815
Rb 14.161637837642205 12.772528237986396 14.005830730656722
Rb 9.758414324586328 11.600094664670154 12.909791351957196
Rb 17.940662447479877 15.34999197352285 15.660881542637616
Rb 0.3841019171995364 19.45411566942348 14.251163092497306
Rb 10.42222781226459 15.918006883307106 14.839460097878424
Rb 12.385095025747123 20.082025642574603 17.093362480969606
Rb 21.135980188059687 22.14872216985421 16.866610653747642
Rb 16.213329550755635 11.600282210868125 18.19454932865958
Rb 10.95425990158799 12.04820646157526 17.666676565773997
Rb 9.932504616934784 16.322299944333064 19.77760013995346
Rb 14.008786741311129 15.813648008880675 17.74867201573506
Rb 21.696974520260156 17.60224606365309 17.752761544170973
Rb 17.105719906564904 19.517268071458442 17.7531305713621
Rb 20.97634408940292 12.655896031678543 17.94271773104577
Rb 14.31574432272448 18.619260605679717 21.458629897954356
Rb 19.973380713113592 20.242546196670155 21.261263109807967
Rb 13.515556962556069 13.679414802901032 21.742588603008137
Rb 18.028698046460267 15.625550053899117 20.52676925168385
