29
Energy = -20.85608158 eV
Rb 16.296392659003654 19.209973746088867 10.210761731258168
Rb 13.202651305528846 22.643755057611244 11.35140947416136
Rb 11.630678184456109 18.09204873659911 11.662494795988156
Rb 18.01695859791345 22.694711653934423 13.255660380426905
Rb 15.680203338976991 15.091031581908778 13.304013489275848
Rb 19.457635269943825 18.139692777767372 14.042186729190346
Rb 17.985027565212096 10.699267645388009 13.777498618273052
Rb 23.803510558014057 16.103015604095145 15.853033016909798
Rb 14.723320339678365 19.626829188366262 14.540075196226855
Rb 22.984943636725237 11.236639009221618 15.495377594379852
Rb 19.4999177052891 14.051509314660825 16.260841855329023
Rb 10.17713292744466 20.784723746499 15.41376633077041
Rb 13.878725556049147 23.890490980905025 15.871707225814504
Rb 11.700038615492247 16.168257075687396 16.262994642795228
Rb 15.031786475733032 12.33515197365271 17.34342433095866
Rb 13.178662409048533 20.26654661162861 19.273511091215422
Rb 16.20761187826655 16.82170453487192 17.823470114085183
Rb 19.36283732864496 9.934467435477547 18.45560996951522
Rb 22.461932632146812 20.875278940633002 16.441217170837284
Rb 20.53613857331223 17.6495406336836 19.111691078391644
Rb 13.188004463571474 15.621509656448751 21.098709885258007
Rb 16.986075373764457 18.60209148576426 22.110328019902354
Rb 17.922484269674545 13.662053825047767 21.016035766659794
Rb 9.009145198878809 18.38812365282312 19.451481895080178
Rb 17.861136976181488 21.32148027290948 17.919972846701743
Rb 24.829418677200035 17.699192675011034 20.265294706626793
Rb 22.735223300628256 13.338263600093873 19.82884063267886
Rb 21.137514078746204 16.13857762963228 23.51104070971677
Rb 16.640732428562856 15.03991127767664 0.3020568382199687
