21
Energy = -14.78987658 eV
Rb 17.419040723983677 14.949333482727415 10.156876852034417
Rb 12.790324103464325 16.496202042936044 10.529722480161878
Rb 13.906176703203567 11.90399912869142 11.736348103993555
Rb 16.57701547294538 19.433374739596275 12.042405306043147
Rb 20.035204822569444 16.544874956261584 13.911617721920253
Rb 20.284509016574134 21.178478932000342 14.63676991459128
Rb 15.280853364540134 15.562019655558483 14.276594437834254
Rb 10.691906440704702 14.461372185170276 14.514343326983134
Rb 12.251868509674845 19.141079791091194 14.671351335402662
Rb 18.317521794205483 11.89561430646463 13.928756650942017
Rb 14.212245315125724 11.506806567658213 16.564928412868458
Rb 22.063222392418336 13.154401248634207 16.71582263120253
Rb 16.545697832411005 19.45074286181251 16.85883235480719
Rb 8.694181420476163 17.97940659336382 17.506587612931884
Rb 17.797798080631402 14.668021266972772 17.94495782731967
Rb 18.461324259937573 10.104987809566312 18.40361231333064
Rb 12.875293251541258 15.81284576192891 18.492288600350605
Rb 20.776844788624896 18.118449259509667 18.416927846420414
Rb 12.578579086893109 20.338115498157077 19.392930321471976
Rb 15.209452271330552 12.67012999342213 21.170466166159912
Rb 16.272659879110662 17.671463448841617 21.169579313596156
