20
Energy = -14.24321572 eV
Rb 16.500701663219804 15.51701349595083 9.325568766020414
Rb 12.328825460081163 12.64135197085052 9.595097921744243
Rb 16.782586494436742 10.802706792158098 10.93819772834534
Rb 11.996953689184442 17.509205666245975 11.14286419242718
Rb 16.495186913258067 18.722550810596264 12.890296664569426
Rb 19.45992549894004 14.310658117550744 12.97669731712963
Rb 14.231372664741773 14.13663505801198 13.357453559801858
Rb 12.642041785582482 21.489921728321136 13.879121478076776
Rb 9.4319058087158 13.696794149673 13.644130319304113
Rb 12.366572603398433 9.658619166336175 13.617842266140908
Rb 19.990628809320494 17.98481294512714 16.083701459656297
Rb 15.99026996671299 15.395875903153009 16.776486093686696
Rb 16.612367747989826 10.64573379609954 15.796857978977526
Rb 11.304985434064049 17.382673815393417 16.07455294367267
Rb 20.265602668165617 13.268407114452167 17.65622474925974
Rb 15.336940232860618 19.881594833756957 17.600176212464245
Rb 11.811074107947363 12.336204341756943 17.647747987887087
Rb 18.003017655796747 16.658797633189142 20.568777155246163
Rb 15.86206146986502 12.143523294073843 20.360741993821662
Rb 12.93626291070071 16.166202952285314 20.41674679674976
