33
Energy = -23.53779453 eV
Rb 16.589350464725428 22.890036780764795 15.347010979913188
Rb 13.989329505103914 21.15438225845343 11.534140030995808
Rb 19.221260358724333 22.084023046256174 11.071592311787345
Rb 9.765827884263894 18.912105043483937 13.68722397197155
Rb 11.529167199617296 22.97811768065899 15.848673254293034
Rb 14.127085816350842 21.50455771864335 19.967226429412225
Rb 17.971497521895603 19.289396447568567 18.175503730587206
Rb 17.641792241669176 18.670387632001262 13.392369673870252
Rb 13.647034969618225 16.24611019696967 11.901220047802727
Rb 21.86650431539984 17.51497407391655 11.487718063289279
Rb 10.059412620273422 18.93848744055497 18.929329864837886
Rb 11.285735111529624 14.91449680731695 16.338585567702367
Rb 21.561490291332234 20.57453903205247 15.328722408635064
Rb 13.698909310945783 19.140018790330057 15.854878330412474
Rb 14.367481148623817 11.584969964802491 13.931541586115292
Rb 17.3229295668318 18.075735024549164 8.93674890709778
Rb 20.776678020395195 14.40998584536262 23.528535442707756
Rb 18.828135941604135 10.497084229443747 21.259387233000975
Rb 22.788412691389784 12.9643083879938 18.84584177940388
Rb 14.515926962891703 11.905905724671918 19.045959147059733
Rb 15.485232297789304 13.897654249546308 23.45211606088557
Rb 17.57329596453793 18.313042737367176 22.825953096613645
Rb 18.439617752095526 14.730518543869442 19.790543006060112
Rb 20.570467156526437 15.938774397188405 15.805123689069074
Rb 18.903620819186052 11.349231288109031 16.278364262959045
Rb 0.5456826922625191 16.75327416151678 15.764317360818703
Rb 12.554098261244501 18.319546135125822 23.603966882583812
Rb 10.718247633440448 14.34273660348089 21.342547184555144
Rb 22.151506631468038 17.722943121987228 19.933507750787953
Rb 14.217151233990132 16.735953134190474 19.826334575541622
Rb 16.024968798308166 15.149786028003424 15.890550323521586
Rb 22.920302807993163 12.803090531753726 13.591299394265114
Rb 18.35070382215149 14.068821055373709 11.858161764749264
