37
Energy = -27.24641227 eV
Rb 23.32926412404192 15.019608664530905 16.642336036229544
Rb 23.22615315122809 18.991436471649873 13.525525613924113
Rb 14.0892928410375 14.807455783141808 19.79266051508988
Rb 17.678233193119738 13.673607569960431 22.591089874771527
Rb 17.57210914794023 18.31123265174452 21.254435161383036
Rb 14.687916821500695 9.582481174379266 13.7476302160354
Rb 15.3601240693139 13.782578088926043 15.185435630682028
Rb 19.328612637069543 16.094900372463623 13.940780734673416
Rb 17.350327122385394 22.678777546783866 18.029392031284036
Rb 20.611453325207716 18.908286189619197 17.455207141562923
Rb 11.534109616755394 11.871744922665247 17.041337746716138
Rb 10.316845158197031 21.30426044203325 22.14238440563161
Rb 13.409726090816502 17.488593015771805 23.61598636588721
Rb 22.197426666160773 22.974947272674484 16.4286992405423
Rb 21.447423122074714 11.250230846665785 19.55066877221084
Rb 15.062486560535886 17.735182600620654 11.911553987392344
Rb 10.377041327378556 19.093980817107468 12.39202666739739
Rb 16.126701074924174 18.21255061858334 16.470082205461445
Rb 0.35448153896938567 19.478338030723478 18.381755818316847
Rb 18.564843712680272 20.978085968605882 13.456312513653412
Rb 12.724722166089975 24.14332386331756 18.880682093141548
Rb 24.01363154649427 10.521658344528683 15.382307420681542
Rb 11.633948892648412 16.645508810366046 15.930630319051184
Rb 12.064915282626716 13.626663041634226 12.104866360042239
Rb 22.21753177749745 16.40669777618875 21.129815121565628
Rb 9.481026242793646 20.672305922874003 17.165075660008664
Rb 19.39052102463604 11.106748134270092 14.912635300474932
Rb 19.958234278496178 17.72648292584872 9.918854756779613
Rb 21.14205097628196 21.534865675037075 21.138717864197766
Rb 13.684227949445603 21.739555149255207 14.6605492533716
Rb 13.34218608532089 19.609291707729696 19.390273461276642
Rb 17.125783478521814 13.091883594413831 10.932201245838307
Rb 18.76109856867305 14.625664576243242 18.302391589822978
Rb 22.46754988651543 13.65828501047509 11.95926894388036
Rb 9.761527391003254 16.556486146537605 20.337874659089547
Rb 15.413436952522883 22.28010658888301 22.55942214214743
Rb 16.216168025580206 10.48827610125439 18.411215547293263
