34
Energy = -25.19259179 eV
Rb 11.647192069484692 19.91258713708894 11.274149339721806
Rb 13.886755473837967 15.38166827542656 9.810435926984733
Rb 18.890502549992977 15.097954863884222 11.456121601034992
Rb 16.267606792187312 19.59886759130157 11.574703030248395
Rb 16.479669048207157 10.863349655746207 12.298492516136942
Rb 9.574752123437579 20.257676902397662 16.245012308851805
Rb 11.562856156615847 11.749439911972365 12.919573204110163
Rb 9.735033828865845 16.172745577152636 13.023207719776698
Rb 21.194665491931637 19.8226326496764 12.698575751071319
Rb 21.561095543352906 11.18515942697556 13.391728492931936
Rb 13.246979959288899 23.421335460241018 13.996539289769112
Rb 14.527109961318766 15.063916154887314 14.302773470265961
Rb 22.668888905735677 15.722644669640108 15.289055946824927
Rb 17.75275367711157 22.6780845485983 15.602189909343748
Rb 18.281032529332908 17.82388231938688 15.432558628906135
Rb 18.346444598714065 13.227480294247549 16.12015627281545
Rb 18.813117371825918 8.669189534133299 16.577937628774023
Rb 22.47669754059118 11.934257054125089 18.49384808422838
Rb 21.74519464562469 20.426769644903256 17.859865625178905
Rb 14.240982204198543 10.829549160640475 16.94966060320606
Rb 13.823554301021893 19.118832728932485 15.979823193027602
Rb 24.24696791542023 16.694295950437542 19.99470363666622
Rb 10.764273961265744 15.072272201010605 17.425239848387314
Rb 19.716917913892388 16.00257880972065 19.464213967201783
Rb 14.839958138390534 14.947803453432018 19.45966902521631
Rb 16.91364361823256 19.583034793892715 19.498042764794018
Rb 17.99556452411017 11.553116428295118 20.76126817403875
Rb 18.875121267034217 23.830053683012157 20.29038544147951
Rb 13.810597185211344 23.222194955052267 18.94686972142653
Rb 20.67896618935701 19.60788377346313 22.770620699758734
Rb 21.32395611078678 14.328026988663238 23.34432762154587
Rb 12.29295942534511 18.86379393785936 20.721699912714392
Rb 16.79779660228014 16.5970154601749 23.4044140477167
Rb 15.891551553935177 21.61106518156767 23.493295773784556
