32
Energy = -22.07634629 eV
Rb 15.440826175652694 16.002461772533092 8.868809263275889
Rb 18.80112777759008 19.469275448507247 9.511384801136087
Rb 20.137916955027002 14.539495809905114 10.623201171515698
Rb 13.90715781530301 20.47269699961073 11.087459516476281
Rb 15.995937108160433 12.476788284460218 12.426781036898417
Rb 20.375121737309744 10.30933615966301 13.663883845200091
Rb 16.931347939178156 17.25095600903629 12.88374697953577
Rb 12.172667564696868 16.131206521436376 12.722962399391845
Rb 21.678641017331167 18.282599515875123 13.49704292674772
Rb 23.75343476883775 13.749502700405184 14.311827231570236
Rb 17.80345781369294 21.967289896263367 13.772023120905152
Rb 19.46218425227405 14.341255895430224 15.34670105210481
Rb 9.925447885179684 20.300074074024675 14.493925512918945
Rb 14.870586193065526 14.815316473476587 16.39372661177633
Rb 14.1215401746031 19.441284837537193 15.741673035909049
Rb 13.265975689416933 23.762527709891355 15.116510932918517
Rb 18.60297327647195 18.651056992439944 17.074595256718695
Rb 10.730535566336966 16.603633864508613 17.828154887965347
Rb 16.389965342521275 22.44366825959451 18.868139132494196
Rb 11.588647330884948 21.2398487595978 19.358024886298114
Rb 16.94781089087797 10.676089006074886 17.34851443845358
Rb 22.604448148970246 16.47369007748727 18.412347448855503
Rb 14.938642951550952 17.901570059884396 19.962806057078094
Rb 18.23481952256206 14.749507885549997 19.72481070802016
Rb 21.64722540939473 11.610070165397852 18.587182552323092
Rb 13.67623984355629 13.238637755329616 20.68549954603168
Rb 19.350648625081188 19.04606199796701 21.74571011038677
Rb 11.520971438768745 17.307889470436567 22.773619946371777
Rb 14.891949900536778 20.746247347806328 23.3911914119345
Rb 17.965525726787423 11.106039477321126 22.27565038170012
Rb 21.324894287986595 14.544107827619458 22.93401289284236
Rb 16.36441011018454 15.772892184721151 23.991160144037813
