38
Energy = -25.55185381 eV
Rb 16.73774967141066 16.97431909024333 9.264681741852018
Rb 15.156677525223536 21.755903573070796 9.617029522243799
Rb 11.981581555151052 17.871525001222924 10.088101823565548
Rb 19.554595350128483 20.63250774756965 11.83048263660093
Rb 18.61728689740166 11.367565044244667 11.945683834529216
Rb 14.374861566527953 14.021984236683155 12.553823973607026
Rb 15.172153084525386 18.934731300562188 13.069290014153577
Rb 11.509910657208135 21.72654269842846 13.248125615298784
Rb 19.033067970241106 15.919842286142867 13.320879521076256
Rb 16.48037910423023 23.483726174321227 14.238156661309405
Rb 14.980036089042365 9.208579422186881 14.40961309587305
Rb 10.981470604878957 17.03903307512191 14.93718093694415
Rb 22.808025102786704 18.2154755506099 15.601018474205363
Rb 22.173126682559968 12.652132317379793 15.551390630602071
Rb 21.57140163842736 22.952333132036237 16.44636138446077
Rb 17.411948895362066 12.319996720531053 16.292356553476314
Rb 19.63133444836592 8.38944168018104 16.016878966429466
Rb 18.397412584034456 19.75363464455323 16.268687399010563
Rb 15.222333028953893 16.230137602365925 16.655326124277476
Rb 21.19779218762337 19.466770082270315 20.24240514935006
Rb 9.453632967110154 20.527514672238553 17.839904760176776
Rb 12.494179592413834 12.565701924135709 17.16589662661836
Rb 15.720904457656214 9.223427232652137 19.35777066100229
Rb 13.85256941585539 20.872489660965133 17.29211548222954
Rb 22.12032984076039 23.481253863934835 21.56384321068214
Rb 24.021426633149698 15.548470811608153 19.683480217373305
Rb 16.19571787947827 13.681367346184903 20.781416199289644
Rb 17.60511763724451 23.08141098756179 19.51354462476036
Rb 0.42064577802473835 20.68377800250606 19.011381995729014
Rb 16.64322503091338 18.436781398287003 20.41665366179582
Rb 19.721817870490217 15.658619753083626 18.191259178570007
Rb 11.932832422764966 16.712564668770224 19.916497254903273
Rb 20.47102218316817 11.422464357739406 19.996309162967442
Rb 18.269129928415417 20.795417595132857 23.965904343171605
Rb 12.228125772752007 12.00637451066603 21.887692973026052
Rb 13.460423833685937 21.23888864539649 22.02477121768497
Rb 15.02090370303195 16.8116566928064 24.274606223939287
Rb 19.91180732951725 15.799741086576285 22.983582737186655
