34
Energy = -24.85065559 eV
Rb 20.604929388635743 14.805994885338281 9.152077763863382
Rb 17.630261846946333 18.944236790675486 9.152514779640907
Rb 18.68330669489093 10.423696296559202 10.397253393448512
Rb 12.901915534359176 17.50075109692802 10.200696964648369
Rb 14.097762828096032 22.057207215279398 11.088484312032326
Rb 16.59246279089032 14.456893640769197 11.13437927217581
Rb 18.690158881724113 22.64396064562908 13.004157986945206
Rb 20.834561323116677 18.0361143441398 12.741619870355455
Rb 15.973406467878212 18.708822366033374 13.36986624778697
Rb 21.305840095812226 13.20129546814383 13.583142636040984
Rb 11.43485914934127 19.236684278514822 14.677169925718397
Rb 16.953890126253153 10.711304504193725 14.990234287232447
Rb 13.249152034851795 14.710559838660073 14.510129765799007
Rb 14.88638181649873 22.519982483234312 16.292582582112235
Rb 17.97957751811047 15.348122153414659 15.667970068463438
Rb 22.661400378136037 21.593444577892484 15.64447801035083
Rb 18.75629769460221 19.963482147938475 16.905713806811665
Rb 18.961074418065017 24.421445882150863 17.89588743147837
Rb 14.571439415153902 17.962101353779296 17.907321621229876
Rb 22.153673789356485 16.686774704511922 17.324301584459754
Rb 16.251472861758508 9.171726288763352 20.059098414492247
Rb 10.908854434329466 15.241006871202595 18.79177068713822
Rb 15.138277305456162 13.313394998874234 18.799816738517396
Rb 19.977963400281613 12.383327418473494 18.821677370145405
Rb 12.66988898410196 12.033370423250629 22.432949976862798
Rb 18.29390453909279 16.668216905402627 20.25639234892468
Rb 16.42932305975969 21.231342141343696 21.11073926420213
Rb 21.219358474453685 20.21261817213728 20.937238220424156
Rb 9.823968630801925 15.881586405611378 23.219363083334482
Rb 11.358882400934418 19.8815256740931 20.490798011702427
Rb 17.532145383827118 13.072699473673223 23.111010333610942
Rb 21.895456183089745 15.368247309662687 22.45236726767413
Rb 14.325350041634207 16.729713102221222 22.636207023227765
Rb 18.56267164069561 18.188219674439743 24.55045848208483
