35
Energy = -25.89818724 eV
Rb 17.152882009262573 17.33265839246455 19.568972936766965
Rb 10.568874502376724 19.01441396636433 13.047591978073674
Rb 12.4723900491471 16.88146297086822 20.92276139089982
Rb 18.15315414011429 15.088812309153283 15.485404019324996
Rb 14.39494836484411 12.66642791959845 13.365703800715892
Rb 18.030360063640302 10.1745370972306 15.61417565012545
Rb 19.701116613613777 21.259539737232593 20.562477697826335
Rb 14.202295418873462 21.97954091899917 13.885294007079366
Rb 15.20150499411663 14.384874033214981 8.496946295985277
Rb 17.31723144059541 0.23015406084502585 16.87745101964734
Rb 21.723136155228655 9.261143470860114 18.779123200844694
Rb 20.68132193262177 16.71587987077952 22.71580025629367
Rb 21.24837394575287 17.477645835369614 12.726900349454164
Rb 22.029711479965666 17.491503074975903 17.928181868233466
Rb 16.077792382268903 19.417655505087346 23.57276043592575
Rb 19.330944390041378 13.325479250608332 19.305256394103782
Rb 18.70714607994083 17.69100786962809 8.415948241865669
Rb 23.908672735139387 13.525737429413383 20.137013116348747
Rb 10.181144610978032 20.12367360989895 17.7713337086229
Rb 11.746046053357892 21.63551883163841 22.359648269841486
Rb 13.934671211636223 17.372797043897123 16.17680803026123
Rb 10.292207902117381 14.809812848600854 15.81607226530443
Rb 14.691700982063129 21.26563883270613 18.78655772505544
Rb 13.799474999053544 19.396436765630682 9.104601685310397
Rb 19.12603468335858 13.204402568428865 11.264422227345495
Rb 22.450280193208677 12.94624461230354 15.33531469421115
Rb 20.55941278626933 11.545943438929234 23.304760579837712
Rb 17.086590351892628 9.419451087698736 20.558178022968605
Rb 16.092669608017378 -0.026438646315238352 21.95431688545634
Rb 18.572949370866 20.0803047210628 15.771169227329793
Rb 16.004641101824234 17.310359078001245 12.268717195735757
Rb 14.371325782570699 12.965910680297187 18.37035210766076
Rb 11.170990797839966 15.040676178108463 10.813842633192962
Rb 16.143056246413842 14.065012252592732 23.003665462593784
Rb 18.24197441831138 21.622512707365374 11.299504417080666
