32
Energy = -23.45585657 eV
Rb 15.545218011440234 12.323993313305795 12.586320784597877
Rb 12.28854837699288 15.472197678570826 10.31745104064282
Rb 17.120408489125012 16.877274341745174 11.316868666651516
Rb 20.153350983800028 13.894157031663397 13.779435310531733
Rb 21.206590849037703 18.764569777528344 13.568679134163924
Rb 18.042215150281447 21.863152039229256 11.197095195040198
Rb 10.607273448995889 12.481911601162205 13.937361634784258
Rb 0.05936297017660347 15.744710054818848 16.23496464815904
Rb 10.817300078719814 21.71978146026073 14.973053351683031
Rb 13.369331683695458 20.15267855294937 11.352080410595958
Rb 13.636783394620188 16.328318074065674 14.736182375551873
Rb 18.57732682903029 9.305868287829805 15.324106138029094
Rb 9.173848268824724 17.31123927933816 13.708982537680338
Rb 16.74542891838486 19.75339076093693 15.248942943016997
Rb 15.05855664584969 0.001162257866639721 14.258302870516236
Rb 21.67470686072112 11.909832613922482 18.144857516173403
Rb 10.676649004197019 18.333228650747362 18.36547253192883
Rb 13.901857879311775 22.124934792584014 18.57770210982502
Rb 19.95123123506063 23.35275700465166 15.599493076161611
Rb 13.707866811569868 9.436550054473676 16.46911447197543
Rb 15.329206261512443 17.275711617421234 18.979420675493337
Rb 16.78743494838423 13.202755172514932 17.239906731492912
Rb 23.086851689814107 20.24635528047097 18.14936098879753
Rb 19.841367517241604 16.672262043554646 17.80396279600356
Rb 23.35882109076972 15.978481305710748 21.00867863244681
Rb 12.060116368462085 13.587021454312065 18.47852614679122
Rb 18.46915067014075 21.007669917216205 19.719967620319185
Rb 14.089000855175668 19.040564000813124 22.73115378198102
Rb 20.091017112467757 12.583520340657397 22.515125370352415
Rb 17.237750099335027 9.43893612848758 20.072925095732703
Rb 15.438201646238946 13.621152827563947 22.101541326585075
Rb 18.885738034360187 17.18237446736492 22.641183609834357
