38
Energy = -23.98444178 eV
Rb 21.422223560328867 14.080589816094667 11.545535891302698
Rb 14.685454817527797 20.513932262168503 11.149292777497061
Rb 17.356033833156015 13.124232113358747 13.84799756389951
Rb 15.604733335755935 15.266770889865267 9.99123454678042
Rb 18.702459361834567 17.939601946592834 12.722288401190118
Rb 10.879888796994285 16.963034084301565 10.86224931155164
Rb 21.32169275152133 10.671131528207276 15.178987449462628
Rb 11.243421426237273 20.693297442065838 14.586813873011002
Rb 12.473226098913235 12.462503884324704 12.949179235736667
Rb 19.206984924063537 22.787689750200045 13.220833488535837
Rb 23.49143934618766 18.36594680256854 13.395703052324587
Rb 0.6747923185211937 13.832688783944107 14.79597918404952
Rb 21.26102534923791 15.275593520853647 16.012145447114424
Rb 15.917610573478171 20.76789153372506 15.664847397485914
Rb 14.039145768150647 16.841974291072255 13.987980184309263
Rb 14.605070173687487 0.11681376187168674 14.186983204785408
Rb 15.411706151140056 9.436630043279772 16.087431590827595
Rb 9.808135213577156 15.56211201584678 15.673845808192493
Rb 20.730204770795353 20.142732142437062 16.851848852307317
Rb 17.033128279707608 20.13555469888735 20.055065140048356
Rb 13.954980704183667 13.70126643011588 17.29757404872976
Rb 10.601591297288651 10.74059130463346 17.398057529857333
Rb 18.129016720195985 24.27961502707025 18.00204716471788
Rb 12.732016484026033 18.340017130350912 18.4227698933419
Rb 13.442568226102463 23.1355957100176 18.902807351009262
Rb 0.07223338624666338 17.621484787307317 18.156719677509543
Rb 17.30336963787869 16.676637831412968 17.227624882754263
Rb 23.283871827985934 12.860009952570355 19.40736593979935
Rb 16.74044561766086 23.563127188388158 22.890931920531795
Rb 18.4800187141739 12.269750526733084 18.65766842295816
Rb 10.897779824291772 14.638608593196984 20.61987299686934
Rb 20.689162836466345 16.846170699481938 20.592422502312232
Rb 14.403576311844978 10.841094732317258 20.76702329534972
Rb 21.250840280950065 21.67178088175579 21.322984540333753
Rb 15.707434699321588 15.571329483939122 21.564205116903743
Rb 13.369706618020201 19.790695449735654 22.8220544942632
Rb 19.657709566023527 13.07588122046852 23.069489070430734
Rb 18.275705438871807 18.88098882333371 24.222467878556042
