37
Energy = -27.22276661 eV
Rb 16.416656261922547 17.666930733158996 8.978538133773485
Rb 15.999541351593491 12.6478879270695 9.337257188285813
Rb 12.155887466118871 15.855593315724388 10.533738281556666
Rb 20.928847073167304 14.679987281508284 11.398655175717897
Rb 14.302803302803618 20.02735223946659 12.628152269578077
Rb 19.140693713520907 19.200329575721554 13.035938509879763
Rb 16.29064182264277 15.272567216205932 12.831832196284038
Rb 9.588647912336732 18.937393361663613 13.585947608350363
Rb 13.071883881394644 11.655496877139152 13.242103830706002
Rb 8.593164163685973 14.088749004943896 13.718971945296486
Rb 18.346831306367616 10.996615081533832 13.730606567925456
Rb 22.075673050467092 22.426371448874917 15.566431114027315
Rb 23.592921426886708 17.45883080919208 14.814539962458953
Rb 12.36093380608223 15.918584289926187 15.349821801764815
Rb 16.92525197117756 22.447972050941477 16.108318853919297
Rb 23.46505942759864 12.418722149540677 15.347181317506323
Rb 19.728353318837744 14.979231293724236 15.863114747620202
Rb 16.097341819684964 17.81724710605284 16.51145250333833
Rb 19.92067277200315 11.304983147972635 18.632038217139108
Rb 20.190455614960715 19.105371893196743 17.858524973102988
Rb 22.922244881379786 15.59778873368718 19.416135252847287
Rb 12.384352457856291 20.725095786243255 17.39379502529026
Rb 10.66945412280108 12.36398585401193 17.71239545646205
Rb 24.192375616635115 11.20690038420219 20.259767874740135
Rb 24.045754471436005 20.46129907260356 19.577786458738885
Rb 17.942699447969122 15.3766089621078 20.321261909321134
Rb 8.812283883863008 17.07616623332455 18.006603752876856
Rb 19.80636790787147 23.258767928012432 20.20420491910619
Rb 12.385443322296064 20.539188753518594 22.483351724679217
Rb 13.184635317163456 16.165445577119403 20.119415498302555
Rb 15.49127390756236 12.793515637538897 17.263506890509515
Rb 14.757390963037626 24.267440629289986 20.19745704279557
Rb 16.32947651942531 19.99519424739816 20.380523211265867
Rb 20.602028046282356 18.726792986313626 22.662441272231987
Rb 20.918473379057616 13.590508650690527 23.262835618406374
Rb 16.878791665966794 22.269318140438827 24.16995725058291
Rb 16.190412443647766 17.385485437445016 24.201115461116352
