37
Energy = -27.57275203 eV
Rb 19.801996724014288 14.906793481588075 0.4783840805714434
Rb 16.00436371492449 11.850769258066581 23.244750323311802
Rb 23.521961406836827 21.141604147292153 19.84759574501525
Rb 21.668182037230736 21.925036528046252 14.933697666133483
Rb 18.640597633640816 20.91240729121347 10.901946382612271
Rb 23.126817385976054 16.089265475596942 21.408755782614513
Rb 17.017614129115053 20.22028798169269 15.472971144578763
Rb 10.70827738833616 16.378476070292788 12.505226388920502
Rb 18.69677273239602 22.9567017599196 19.188257880278353
Rb 16.821721121592777 15.243763234237838 16.5290840256332
Rb 11.14657814122654 19.1915003421848 20.6840505095253
Rb 21.539809584697647 13.53011731918688 17.19489446881505
Rb 17.029390267974676 11.007260830953493 18.36613897834216
Rb 13.386197722865747 22.596117526764527 17.76123508224999
Rb 18.31550637516346 15.167704238378287 20.892170745313553
Rb 14.42419381495041 13.2054746967993 10.206599157046796
Rb 15.930681069033522 18.973273073489416 19.889848771083944
Rb 19.67479215814222 19.59339772176509 23.142120704229107
Rb 20.048421901128435 17.1715243355936 13.847051187592948
Rb 19.403813920721813 15.741253016152976 9.453326915120291
Rb 15.507870378399234 17.249045251810898 11.957881896116575
Rb 13.083288962074255 17.74238793327255 16.31333982609851
Rb 20.877107749413373 11.47807466533512 21.80991961137991
Rb 20.363010585070203 18.37791273768841 18.294607291040855
Rb 9.189084075039931 19.941620938510972 15.962531284209648
Rb 24.44065959595455 17.66750072373746 15.963882217519819
Rb 9.489654604086994 14.983706144169519 17.463588964655585
Rb 13.082070764420008 21.381521635547564 12.87973043950202
Rb 23.273610958686515 18.979240126929806 11.028449545120862
Rb 18.341087845342763 12.475008957759433 13.151130718732215
Rb 13.264800634018753 12.698553738782492 14.913779287409655
Rb 13.43614318411984 14.884115392346233 20.416632671860214
Rb 23.211022804524912 14.179832783710829 12.411714531315114
Rb 12.162961769913965 10.704466284676615 19.21769454057369
Rb 14.98133315135961 21.985046777537057 23.038615463385465
Rb 15.374398396110756 17.108588512168282 24.38289469111004
Rb 17.138854976359845 24.485298731665207 14.176844535656828
