34
Energy = -25.14999728 eV
Rb 16.969233537514185 12.951080452791658 9.604444957212872
Rb 12.718968861894028 14.47596748029858 11.199960201582035
Rb 16.369951287902715 17.66883046573375 10.571738193640048
Rb 15.135599473599285 9.780242582160874 13.066909791331781
Rb 20.553090344736397 20.175235096497165 10.988296740001102
Rb 16.36408415763761 22.20917362197916 12.566431232664566
Rb 20.669191980541864 15.42883059394245 11.605389874976849
Rb 12.186370881737838 19.447693755278546 12.066779855598288
Rb 9.108250812412978 16.260303355991386 13.761827807347018
Rb 19.957540378305502 10.671071174608114 12.55328666546443
Rb 16.392454533683516 13.974363006708282 14.50408821491645
Rb 11.410661044620849 12.212896585575558 15.211937220685694
Rb 18.339077121746836 18.472154137420812 15.154189094793033
Rb 21.881858881734935 13.645100131716363 15.869510072881974
Rb 23.17578636165923 18.43203199766453 14.889824567415292
Rb 12.478439521018093 22.968372801381612 15.265022932364975
Rb 20.819903472840025 22.75571236766647 14.96199561726355
Rb 23.534518891159543 16.45847275550953 19.295382258753637
Rb 16.720794204044157 22.72995087014333 17.56550081013386
Rb 9.31493809293428 19.81479467581725 17.08529728315842
Rb 18.628518411919206 10.08584400130117 17.087485004214855
Rb 17.940330053860837 15.322221826662473 18.93498487917237
Rb 13.5680591597969 17.736594935165815 16.594416427770167
Rb 12.5596749628716 22.18287395112918 19.955070363457327
Rb 14.089058586464116 9.042998013688834 17.802777961321777
Rb 20.703370543280588 20.205315549346594 19.159782839977563
Rb 13.269953598569884 13.376795284949573 19.599622837858245
Rb 21.356601363168814 12.363626558605285 20.649918869752216
Rb 20.214546403390756 16.771474441983028 22.81916761468844
Rb 16.86408818385911 10.894445037114155 21.491419045615135
Rb 9.037627944014679 15.089020828373117 18.348318097941558
Rb 16.36578137552273 19.57221323783022 21.283735886875757
Rb 11.811728055725771 17.709079405687667 21.325603097134824
Rb 15.645682628099177 15.270954131545349 23.315618794301272
