33
Energy = -24.22165522 eV
Rb 17.788850097702984 19.09157786986181 8.88606156690256
Rb 13.6932193205902 21.266847463629194 10.65943059574439
Rb 13.691077151383165 16.429851935921462 9.573628140417975
Rb 18.016308813745766 14.358065303993378 10.935418287858072
Rb 20.932819191599297 18.436215675536648 12.71716248295581
Rb 11.53578101453735 18.003076268779616 13.833508854804899
Rb 22.052945656117856 13.515162975197736 14.07069193630796
Rb 18.46754775009634 15.327757986969214 15.573874154519476
Rb 18.237186750348894 22.607515786792387 12.689199497653112
Rb 16.10842850814668 18.2728608197188 12.922741432209207
Rb 14.341222298275696 22.02163017367664 15.683935024340553
Rb 14.073233517521217 13.655389344380964 13.898562164255111
Rb 17.861528756737005 10.650325259146763 15.09042930545091
Rb 18.53362850607955 20.02473582823509 16.61914830054582
Rb 22.294097362588914 22.182434854100133 15.721966740511883
Rb 11.124483505611632 19.314431725396094 18.831167667063802
Rb 14.664564769735982 17.412951831288428 17.277303578399806
Rb 22.419538758314076 17.284033204222453 17.474050644478616
Rb 13.401421736193186 9.682543831779073 17.098534231896114
Rb 18.306824916856947 24.329331754528184 18.069815714440384
Rb 11.3631293792562 14.175538771866439 18.08659962468133
Rb 15.87277194006682 13.128641076150554 18.676466322028915
Rb 20.667764075348703 12.763368103757575 19.091540675103236
Rb 21.098055411134155 20.864922642978364 20.632196316012696
Rb 15.615819306808724 20.971147129415556 20.49076009063726
Rb 18.385540317095952 16.90066792201257 20.120215913461045
Rb 17.33426971259449 9.149929738337603 20.013597195891254
Rb 18.461121526504115 23.711707536868904 23.065647128254504
Rb 14.076638079001992 16.35849007760378 22.004348116289176
Rb 22.003277282977013 16.128673585095765 22.558312959273263
Rb 13.239775595467107 11.316392421004785 21.779413333252748
Rb 17.793535860805683 13.314549452068855 23.111271050261948
Rb 18.023278234084106 18.82891675301332 24.22268605742308
