39
Energy = -29.30402535 eV
Rb 20.656639969507882 14.478893081421104 10.883009530135189
Rb 15.80688962329261 14.407915014910586 9.160946474917179
Rb 17.641723064660894 19.111308303536532 10.185525616671802
Rb 12.805273070994216 18.048875793290815 11.409447014723845
Rb 17.60594815998626 10.911491459186259 12.50566258957522
Rb 19.392321073485206 23.238487968151585 13.515806103069924
Rb 20.838855363451508 18.464393037785605 13.934729424655059
Rb 16.72740470679904 15.585770886628104 13.483711293427621
Rb 12.500570803938889 13.159241187268679 12.898174395862172
Rb 14.561827694950875 22.950132800899855 11.716923885451386
Rb 11.350663633585537 21.05742598627065 15.278171942728251
Rb 13.279950293805879 16.652388497657025 16.26610051132562
Rb 15.354484944164772 12.086488038733483 16.844635396259328
Rb 24.405228025253166 15.053534727204642 14.396408680383932
Rb 16.09663420425856 19.916580337127016 14.783472502121388
Rb 20.55844718489597 0.581146928314872 18.120156766331025
Rb 9.010439371740418 16.526274243346087 14.626483999745613
Rb 22.68285034498756 10.558402787697293 13.672038795600878
Rb 20.043548291001652 13.805222583159335 15.808676376036054
Rb 23.454972991953454 21.82370588205847 16.45799338295795
Rb 18.014563252771538 16.710061214479467 18.395808420961192
Rb 10.61280946576847 13.074731877441257 18.143601360525835
Rb 19.00391136728711 20.948395312548232 17.954196936158166
Rb 19.42573456492417 9.262143746064732 17.03618152303666
Rb 14.127011289106582 20.539952305977152 19.382082420444075
Rb 9.929439622171243 17.791603067093558 19.55798389707361
Rb 22.9322166239192 17.410107103048897 18.36949639857561
Rb 15.649688786826337 24.39410552374537 16.551598947038233
Rb 23.238058973941836 12.365839379887674 18.7056972304974
Rb 14.314396478826792 15.55264230554324 20.413786352861333
Rb 18.544370721486736 12.324152161361177 20.673720009657423
Rb 13.959622252310684 10.906408143930332 21.456181843561822
Rb 17.320641596604045 23.794660980419607 21.386172077331064
Rb 21.908505458003177 21.316355936485195 21.425715127536407
Rb 17.528141627031033 19.12373675588384 22.71210225929179
Rb 10.832859366940726 14.190879865778681 23.23977098682775
Rb 12.819243721814615 18.60199931452645 23.76716375201424
Rb 21.024310396145026 15.940942177779664 22.445081469563526
Rb 16.075135422687424 14.589213372249846 24.47091811034414
