43
Energy = -32.27544767 eV
Rb 10.90121379482965 12.91171416716365 18.900030248119503
Rb 21.269991726626575 15.770607046111008 24.034377250142988
Rb 19.502393479339943 15.151983441770497 19.579800453490382
Rb 20.591566347204385 10.939059559339897 17.20991578457338
Rb 23.459863839510806 14.753602733518063 15.919653090424598
Rb 22.54948839736926 23.66372484542457 22.76999119826419
Rb 10.170389175082349 17.118654547551415 16.361899563167857
Rb 19.570157227339124 19.607173566691642 21.090207798847604
Rb 18.344648658315673 0.9394535296683598 16.61463064268291
Rb 11.646973613479537 16.99649896405754 21.576445798031887
Rb 15.279926341383769 16.85444422926286 18.858139919836816
Rb 18.425115928359837 14.693191213373767 15.091516497572458
Rb 15.431790453013715 18.62764582869102 14.471385776560766
Rb 24.075188803159207 19.602181711619718 14.311699709393011
Rb 15.934785136924184 11.7677011664769 18.552929596321764
Rb 12.413942126321558 9.646392294490187 15.611422573088626
Rb 21.090096324728876 12.660935701570763 11.86801611025814
Rb 13.804569353977843 12.514292031540911 22.785662202125547
Rb 16.512878565719966 16.376969099813504 23.59342835655637
Rb 15.770994167006329 20.21093473776284 10.252495706533761
Rb 23.763874835293763 18.03003285035799 19.66189820340332
Rb 21.781949002848826 22.72762174147607 17.973590851492936
Rb 13.73814816028315 14.22284016660899 15.089870251285951
Rb 24.649669805649918 15.773377152064539 11.335240740584517
Rb 23.534671749096283 12.978712402217074 20.660186821769557
Rb 20.126980714003142 18.558745934131096 16.30949746343299
Rb 18.823552925674058 11.650157147662327 22.531225180988013
Rb 20.211386601746266 17.817547688269933 11.378460605811696
Rb 9.058649047698186 12.952508305991651 14.060085575960803
Rb 19.49637331006184 22.2842482502626 13.375523813714016
Rb 11.3300159416481 20.81573545954469 13.230151133787642
Rb 14.868443495125614 23.82259005999623 14.023032967935402
Rb 14.037229765055965 0.20418191406413264 18.84040488781574
Rb 18.9627229909849 20.509791915790384 0.39267929818497904
Rb 16.34830118016717 14.94832756601903 10.771630853047268
Rb 16.81195714474224 10.539316798148354 13.600521123173223
Rb 18.148527793540477 24.43413638194939 21.42995697014149
Rb 14.874629646705138 20.898809359920595 22.23325695000477
Rb 11.7051282559954 16.4085408851113 11.391731086653147
Rb 16.883573847728364 21.532452309605137 17.740403286212544
Rb 12.163070700491964 20.943609975290897 18.10750989939897
Rb 12.47741616568727 11.540230957599698 11.09601982904881
Rb 23.74726025955923 19.718557972412334 24.517844135096016
