42
Energy = -30.08402797 eV
Rb 20.612108794697463 15.000942787162995 9.784078736736031
Rb 25.088913841187352 17.92906993187674 10.605030020835109
Rb 11.74994841537173 22.016162948546906 13.005687625034446
Rb 17.073690203960076 15.416936868030955 13.2547673299903
Rb 16.254885316699816 20.896377813425403 12.078283398052928
Rb 20.53295685348274 11.707047358871563 13.712634907430362
Rb 20.536284347963516 19.506143020961904 11.338227998618182
Rb 12.81075933955113 17.386883345864266 11.26863988904258
Rb 22.297109643609218 16.118789075190847 13.905309201411066
Rb 23.751731513896562 20.672448141098087 14.715665105354145
Rb 11.381466778211998 21.772298478274557 18.077064063629386
Rb 15.6559820220039 23.339671739208057 16.370885964887425
Rb 9.496100469047065 18.134957615078296 14.757448446295095
Rb 24.39414351858042 13.14378481043365 16.98418630178376
Rb 12.359755972551547 14.148826713718764 15.210043009002412
Rb 18.7771080716214 18.88641651078757 15.947700796941922
Rb 19.9828831777604 23.38669476193648 14.761981931783387
Rb 19.94676255327386 14.414546653506074 17.395325866020407
Rb 16.41105910473667 11.275197554069809 16.562854412790347
Rb 13.965005839535685 18.734713835446062 15.432694149286561
Rb 23.13683378439826 18.035525131358355 18.532828447986375
Rb 23.600099525862692 23.08993888364592 19.141954973177814
Rb 15.662626876228254 15.485397467396284 18.102422614206077
Rb 22.390594944140176 14.229503633555279 21.567050684488763
Rb 19.42902363652959 0.2715060531561448 18.679814920231347
Rb 19.429680603506316 21.68946898003036 19.464052984722496
Rb 18.98889458277102 17.283512687644823 20.80079056064305
Rb 15.301644901151127 19.822385948403372 19.634973614503473
Rb 17.69530825259225 12.519259708728077 21.426349371388294
Rb 11.259256244878246 16.933552568824958 19.341698370739497
Rb 12.930857465249003 12.438984238841915 20.372375264291477
Rb 20.954061377621453 10.095246122128682 18.492715639607567
Rb 22.164629927745885 19.62130857881755 23.102259550718742
Rb 0.784913699272769 17.050890953637104 15.021057222266634
Rb 15.531312355469813 24.061755370039343 21.274642281783674
Rb 20.51091137846146 24.33797804957882 23.054429465244073
Rb 14.82861395760034 16.312655458615374 22.78533298597815
Rb 18.937459884262978 15.652653384909392 25.12722404920823
Rb 17.444600565510292 20.462569062580272 23.968745517687083
Rb 12.15345758124385 20.16111570012883 22.97055231412257
Rb 14.56595797432619 12.446731285600356 25.079693386653915
Rb 10.533272116740603 15.422818182194202 24.096676390183607
