41
Energy = -29.62790306 eV
Rb 13.976748760084872 16.83124154364676 9.504714570170226
Rb 18.702844618858702 15.304732017112089 10.507638069034511
Rb 17.46078274333442 20.38667291691925 11.030666002927655
Rb 19.42003765622061 10.681180386484861 12.50930731188667
Rb 22.430504918611316 18.713245075841765 11.019293195316903
Rb 14.57716023750471 12.645995672912568 12.502467189941543
Rb 19.740790891225274 18.15018267572233 14.508947376153104
Rb 12.59295146997354 20.818594854570996 12.952165528856094
Rb 15.336226033781355 17.14574342653279 13.716165720678818
Rb 16.160242584516244 24.905422425923014 13.610865793655552
Rb 20.83698042559747 22.685700235383734 14.428217649546465
Rb 18.16936739990477 13.917209740746232 15.299079358865816
Rb 10.829135111712421 16.053990470925054 13.864857485641181
Rb 8.848968563733436 20.226390072485813 16.584481416671938
Rb 23.96860385298774 19.030965116961198 16.241731802594533
Rb 22.65771167145941 14.489604975531863 13.989068134599359
Rb 16.44093850967166 21.17381865665778 15.797358689820813
Rb 16.124857017337025 9.980108428950953 16.812359632799588
Rb 11.119977119634143 11.08901408577572 16.219050724956656
Rb 13.887382892326546 14.277253506280145 17.113336810554475
Rb 21.028756958845797 11.138141224526956 17.70214983468072
Rb 12.810958229250419 18.789600729170143 17.481558381864033
Rb 12.732962648372084 23.49133436826311 17.457573800180214
Rb 20.964979334523196 15.951505946309538 18.44969638312615
Rb 16.835849362813857 17.447558137655935 18.283829770687202
Rb 24.91292979281692 14.438297723215024 18.70800313102982
Rb 18.05516899413792 24.752517565843505 18.377351023737578
Rb 9.781478743434253 15.567250376088817 18.957473335377045
Rb 19.98179548200004 20.47218836333673 18.77683766048053
Rb 23.038039605840584 23.598027763884613 18.98697460162274
Rb 17.393847121746315 13.472113071384825 20.093761900110962
Rb 13.19378093768415 11.525793599218739 20.86823578446254
Rb 17.895790773685277 9.383609108503064 21.59665480123506
Rb 15.545595859318743 21.170733071796977 20.988850142520008
Rb 23.36809322193976 18.679341439532127 21.44429915795493
Rb 10.568399131424675 20.32776072378768 21.165353210686114
Rb 13.80409018689397 16.4871352068229 21.868404361854246
Rb 21.44325370930446 13.44562356420372 22.41273634077839
Rb 18.627014576756018 17.605597518617 22.746473917432606
Rb 20.0730157813096 22.4951671602309 22.83988521469881
Rb 16.646195092356106 13.237845075172237 24.566332803738565
