47
Energy = -35.04488994 eV
Rb 22.258761513750887 21.744249001236103 23.066977719005994
Rb 19.244701323774535 10.518777201979493 21.5732043937509
Rb 23.8140770624275 18.94716279067715 19.837788856844693
Rb 12.32432489902705 18.778914728684278 15.225598035899022
Rb 19.795827627630196 17.86373074322477 24.15491179053537
Rb 21.140245504275697 22.036799958396347 11.213469664771962
Rb 17.405758087685637 21.142329683549352 21.45543379615839
Rb 16.203851512937355 16.191164533014955 15.643491908577737
Rb 19.69249524030798 25.534346266767866 22.276692696373043
Rb 25.842553754339875 22.36408306398 11.416410161914634
Rb 26.14844855998243 14.693925573705217 20.127266461767263
Rb 14.234065481956517 17.228395904294945 19.699942090184216
Rb 14.4816139905482 12.059015941904704 19.23780170793991
Rb 12.506333753702073 21.630926125021958 19.5130415974995
Rb 11.97384098743366 9.213080693503375 16.385354815569546
Rb 14.75239039463565 15.73847035266905 11.45591660371514
Rb 18.17537045630956 22.141031129368578 25.83111740389755
Rb 16.98458705602682 14.56800283482397 22.28396743104389
Rb 24.492122625750742 20.603769248447627 15.556346521249674
Rb 21.643665642480762 14.7212008083765 21.17361859128295
Rb 18.92181999292661 13.093651863302103 17.634672375624376
Rb 16.311943843794452 20.76929599469553 16.936137699305572
Rb 15.584088603510605 11.64238233094911 14.278387033899445
Rb 16.02891746509396 20.48106516218408 12.25443279489298
Rb 20.921285201532612 0.6803282512054899 18.084819518972587
Rb 23.288966670706635 11.169395881651582 18.74473482681924
Rb 23.499778506614316 17.813578228708558 11.797437324843159
Rb 13.580765720643758 23.813812924660432 14.991551154276824
Rb 22.998064708016756 15.67445515784997 16.40652185224203
Rb 10.534375689241909 19.221678420424738 23.122210900600066
Rb 23.786082594022954 11.870021290470522 23.70804702787572
Rb 16.29469830030692 25.108886730652255 18.992859948879126
Rb 18.98962053195557 17.833295646848974 9.860783230689906
Rb 14.902178991716475 18.519191828346116 24.379498674868625
Rb 24.493050557225594 16.83560562490068 24.204201887129432
Rb 19.653720783737302 14.41589094717257 12.951529272227958
Rb 18.499734914989656 24.336901066033036 14.50211850760729
Rb 9.754403320263414 11.891230799350499 19.62468048468776
Rb 20.698599493958337 22.412398849398418 18.22162156416379
Rb 19.16809471406073 17.712631260736526 19.05198019355556
Rb 11.812142366279017 14.008117321951353 15.71805995381413
Rb 9.74547017236317 16.707821958481613 19.061559718081458
Rb 11.92336108379073 14.619582976264983 22.894603692712092
Rb 24.57322621162357 24.277781674608548 19.42981822105674
Rb 19.998646724604942 19.004374485226666 14.605355709683488
Rb 23.45915313790673 25.022265412673605 14.645734205110776
Rb 14.201274682219388 23.65270674546745 23.50679043648906
