49
Energy = -35.36265144 eV
Rb 1.5400730313722248 14.67573317054799 17.51217959260825
Rb 22.46894732086226 12.364889955514723 11.840236029487277
Rb 14.182839760917137 21.810925173236768 12.709671139310432
Rb 22.858495753299792 19.29983159522668 21.18350727611852
Rb 22.7971283142248 21.061667168276752 13.148522051449396
Rb 12.974330104721245 11.927825567504486 20.05844861727989
Rb 16.79253565409738 24.887143160950732 24.213756544297567
Rb 14.029983289262114 20.099489969981995 17.271717756328417
Rb 0.23846237357842284 16.36123727947346 21.849423796566903
Rb 17.495796173977986 15.987312534067238 24.89230599148668
Rb 15.80018017988066 15.367472172337354 17.344987636323022
Rb 14.094510786528744 20.000267664606387 25.107439704545232
Rb 26.044005404234593 19.266236266781846 17.471251529178986
Rb 22.217842391777783 14.254127438406963 23.214281595491386
Rb 12.632917461415492 12.449162863917312 15.368355273880608
Rb 15.248836862259813 17.857182813004545 21.12743168011877
Rb 20.753483336106964 9.258014724534263 15.025328929493611
Rb 11.275442875475493 16.22112342178072 18.462816914538102
Rb 21.301908321329847 23.880381343748205 22.2140773394548
Rb 10.8389549546198 19.914974623095677 21.4328397825922
Rb 20.60490400526394 16.87496531441249 11.609266490486258
Rb 14.26898935930162 24.735977902468132 16.547503536029613
Rb 16.902325527741944 10.900804971717042 17.374943291352977
Rb 12.734404751383403 17.01592511860264 13.85075592719947
Rb 22.54039025416549 23.037764466889158 17.697921627109114
Rb 16.69916988049732 13.965340224256753 12.894282431245237
Rb 23.846283226096514 15.132142092146909 18.782575999896668
Rb 17.214916917109026 12.412392436275093 21.985978168810217
Rb 19.393179786441042 16.10113696810541 20.1143741370774
Rb 21.473706532811942 18.442116055181256 16.48580168066627
Rb 21.352284188622445 11.065052241786619 19.593337203804513
Rb 10.475493291903751 24.067664918141176 19.203371995079642
Rb 18.638432472877085 21.37203396447069 10.543292925620475
Rb 24.86217759717033 11.393918644977042 16.06553587816952
Rb 17.38946560848353 18.668840109192555 14.393930985411489
Rb 18.434219341633916 20.854820487810823 18.894552561111293
Rb 18.6392007096703 20.29170004857003 23.541489333227666
Rb 26.090803450146176 11.713186404091067 20.861971035258687
Rb 14.750104610896514 22.636968220823015 20.976437020810963
Rb 10.492992603798967 19.644690435286222 10.709066576905869
Rb 15.318377791497007 17.903037960831888 10.04502972611
Rb 18.56533864509711 23.297328406561153 14.830836943413821
Rb 20.36739488369635 13.951695772467351 15.77359578266412
Rb 18.23641999170366 25.650055569280347 19.174339109682297
Rb 24.818479794960737 15.921560107714155 14.056098689474132
Rb 13.865734292329643 0.5076809533284574 20.875474667666506
Rb 12.76616243256527 15.114389071195548 23.57562088672878
Rb 9.991361078255068 20.89995074738857 15.401739256526456
Rb 11.652555003041416 24.13024734367993 24.017126302099946
