43
Energy = -31.95160346 eV
Rb 16.879743747328703 22.934492506890702 11.38279155053147
Rb 18.72378018405202 18.115527948463374 10.887968106766676
Rb 15.649895428430373 13.72147493110618 11.129140526623951
Rb 13.945580968654456 18.629044883878358 12.554527356992244
Rb 13.734458809764746 22.809438988489045 15.535558228682468
Rb 21.656649588088236 22.300055120806512 13.200249861959318
Rb 20.567066742905546 13.439629718929408 12.443016841823447
Rb 21.831318435731784 17.56492515353624 14.689785828127109
Rb 18.34244411580451 24.96799882271241 16.08528410617163
Rb 17.742690829422468 20.29966329531145 14.852537095990268
Rb 12.633276063807036 14.489644641816954 15.172665745367105
Rb 21.13929359438929 21.36588422781117 17.740154205670745
Rb 16.97394913424569 11.079151840788144 15.268673435215518
Rb 17.24644857389084 15.635303107111943 14.709361618135206
Rb 10.047027639424794 19.510352558011853 16.351238561950446
Rb 25.425944292729476 14.954980898000754 16.548222028873354
Rb 9.950845207623733 24.21866551696023 17.99196543825376
Rb 20.752323215698368 13.3364824242002 17.39223903461275
Rb 25.526854679243336 20.32768737664126 16.647669730159414
Rb 14.22920714404168 18.225395812701333 17.293261248563756
Rb 23.520930424317974 25.096260599451046 17.33449272200067
Rb 18.65833547746073 17.425676556519225 18.395234581705143
Rb 1.5655768509515473 13.28436560430837 19.783910256146783
Rb 16.668339627826647 21.698196080963946 19.155754400643737
Rb 15.683803158259096 13.787327864346894 19.03318506508765
Rb 22.92179118462158 17.396315648951127 19.484225512678425
Rb 14.490246123517982 25.52577349361401 19.774951222112005
Rb 0.26255390904286086 17.59706663095546 20.909671526284782
Rb 18.661533807382867 10.607487028385183 20.779353063317156
Rb 19.81685981002882 24.63733988761388 21.002728030104386
Rb 12.174949246844266 21.100109647581387 20.705680267190296
Rb 11.502687020592234 16.097156054506854 20.44616377162582
Rb 24.19958436818958 21.816199038869495 21.348531695679647
Rb 23.897532867778505 13.215948443821242 21.190522675879144
Rb 15.601797215721058 17.869247920143422 21.744455294900227
Rb 19.817457981376144 19.8613313840812 22.03969900579859
Rb 19.55009939963891 14.923604443758608 22.32865805388046
Rb 15.932724601690063 22.222091215220455 23.788698644903103
Rb 23.297549264031765 17.60968613622097 24.263339451191865
Rb 15.03297623770699 13.845136727193614 23.84604885876293
Rb 21.206959160960515 22.009982359065216 25.55093421690344
Rb 12.744259110036662 18.23723601369913 25.09789933776159
Rb 17.791251990530302 17.95983645384063 25.86872680224946
