46
Energy = -30.08163448 eV
Rb 15.879358416987909 17.049246828860483 11.36688342304804
Rb 19.681940284765137 19.86252310803037 12.670265695124945
Rb 20.308076524947516 14.930908969160802 12.147771806487926
Rb 15.209472858945961 21.853413719751575 12.726199370408235
Rb 23.999093458673133 18.245376331449368 13.217774303916087
Rb 11.700075783559262 14.507785226577758 12.654854063670761
Rb 11.346708633002791 19.194035794569707 11.854044464605952
Rb 15.939873157524257 12.925223127100546 14.15179791058096
Rb 18.579933632486497 16.228402336244145 16.0661529339886
Rb 17.197679685051337 20.639307787219927 16.723842851019796
Rb 23.54798752981051 22.804737938929613 14.726977215008057
Rb 21.676245884523688 19.445889533979326 17.364731656884224
Rb 13.980852236196897 17.52993199993175 15.512397884681238
Rb 23.388263871224083 14.99295810379741 16.730630532524803
Rb 15.647552125811407 25.04788143556696 16.93530473984247
Rb 20.214551297493223 11.519922766670405 15.890303860380252
Rb 11.865904353257884 21.50161505852995 16.252201504299293
Rb 12.470894139319634 13.88857307652952 17.745424559864137
Rb 24.83613640070258 23.247716133356562 19.522540077472737
Rb 22.109430637021283 27.135518351844095 16.611556953080402
Rb 19.193158310520896 24.493378865944475 13.773106477810378
Rb 9.231387732282002 17.246560264281044 15.738287167115717
Rb 26.273538436951007 19.020726451250546 17.36203573196283
Rb 20.132348691198303 23.65187760109591 18.502086677836875
Rb 16.986623763781548 12.617638164752355 19.035652141195147
Rb 23.640365691933514 19.365249630588043 21.69660325570446
Rb 11.34647832623321 18.0382265966177 19.971656929963014
Rb 22.28761293834932 11.753589626779064 20.403371352780145
Rb 25.853577003539872 15.438556511811921 20.904134259857276
Rb 1.0117870753853198 19.804503876329466 21.502304546499072
Rb 14.474434260464662 21.673835642324807 20.313424212122666
Rb 20.475305513944864 15.957309457695832 20.466296088750486
Rb 13.821954178990808 14.339516221543583 22.79063281702853
Rb 25.878278701390485 22.472114435435387 24.53894217357498
Rb 18.968373107950622 20.303019110282875 21.45562573012252
Rb 15.950999954970912 17.150487313482532 19.96584166096431
Rb 17.076434268354035 25.157392353048177 21.82679167389089
Rb 12.904410080287098 23.81458246939799 24.073128038659057
Rb 26.378737585733106 17.76018421874588 25.335017670897145
Rb 22.548012820747307 15.095393211365975 24.511362282973195
Rb 18.541636072143977 12.676970642310728 23.4992106471473
Rb 13.634043626442876 19.000452953807468 24.173191661446452
Rb 17.196685809174586 21.982943278236718 25.41831448111034
Rb 21.80315044073949 19.765106567464876 25.881433806814737
Rb 21.545667362030407 23.795363201413643 23.175688690494137
Rb 17.86892899237889 17.050594604066138 24.79074491456342
