41
Energy = -30.6778061 eV
Rb 17.633930253524106 16.59414255827253 9.868369253209755
Rb 18.04222548819901 11.416328812727503 9.838619434087189
Rb 17.65863340775192 21.618290421236793 10.661983771010984
Rb 20.646867270267418 18.48163894018049 13.172010948669373
Rb 22.03185090771773 14.37249274442346 9.825567133361108
Rb 14.410626343951126 13.55590281479249 12.066680082445288
Rb 21.806454652705828 10.286401488703994 12.503949527760273
Rb 16.872281204514074 10.116819153649491 14.755055378937962
Rb 20.995905036862037 23.261707076174172 14.478784259291285
Rb 13.736594562355783 18.316336768053755 12.042771261017576
Rb 19.078069736164498 13.998673432342473 13.748771801631387
Rb 16.692662065526875 0.4865413159818667 13.668860765133607
Rb 16.344198225531017 21.065785714160945 15.061670006014616
Rb 12.982744319859663 23.037086119096113 12.12423622158504
Rb 12.737427336816427 13.187594236825872 16.457161106206048
Rb 24.279441758764346 19.190109281063975 16.565128504822827
Rb 18.098579038375448 24.712865562896507 18.27547278914267
Rb 24.02446432388278 14.520478595920123 14.239478528710606
Rb 12.966440573480954 23.93737731820409 16.868732312125374
Rb 11.74639182309894 18.993664397918508 16.482627282023632
Rb 22.859127498699195 23.246992385000535 19.258804759669445
Rb 16.140077453911555 16.60031371997327 16.026376907955147
Rb 9.274285399372227 15.44866958822814 19.48172854295739
Rb 19.710680817108248 20.15452618948125 17.858354859179233
Rb 20.803191899082286 15.764095379556043 17.57238093696547
Rb 21.442073881543067 11.144963601326213 17.29290981018275
Rb 15.200216975845647 21.018452077723794 19.829263278174313
Rb 10.716958802168305 19.891305391695017 21.317086260514365
Rb 16.9797113120461 12.559111766112492 19.01389590494604
Rb 13.769848100462369 16.343184837719853 20.124780864300092
Rb 25.065493997470536 14.648619321456852 19.058905032355774
Rb 12.447275544295037 11.85593519441653 21.114704215901572
Rb 18.05383322681348 17.155536213712402 20.918398913771515
Rb 22.994746772303664 18.460127234289896 21.445497287359146
Rb 19.290561014544917 21.636321369155187 22.53988223492705
Rb 11.194416183879417 15.519249717198635 24.12194408596076
Rb 21.066265442694903 13.55988286643825 22.0009834771496
Rb 14.993896369730656 18.902405110768782 24.304436913031058
Rb 16.087829889326656 13.949933417651577 23.924359876908976
Rb 10.589663554999735 19.834402058106388 0.9614989278467634
Rb 19.796165168993703 17.234923869722024 0.02414503283179142
