43
Energy = -32.3369757 eV
Rb 20.6957926625996 9.334582167357016 12.82097084388531
Rb 17.260382141473272 11.855312315227797 10.189034292557576
Rb 15.89125100865209 9.2502595681902 14.154593596558582
Rb 19.339713626838197 9.686537978462784 17.817539134959688
Rb 21.795890054714288 14.005680605737465 10.987252131320048
Rb 18.54201695366839 13.092383301071713 14.521404375459902
Rb 23.285781662004155 12.479795776771264 15.613538200722967
Rb 13.77746880151049 13.861169701931496 13.575411873364498
Rb 15.106087458487163 12.462955200002648 18.445575377396043
Rb 17.425489861221113 16.785906438040254 11.353528013088873
Rb 22.882398971706444 11.73708876282363 20.6669484507065
Rb 25.206488543135592 16.872028849646068 13.490655610983985
Rb 19.787261309811644 14.555730883912835 18.822366215305742
Rb 21.00559856537099 17.05550131057073 15.038475390033135
Rb 17.95805900012809 12.104338236093014 22.34664344473621
Rb 21.500535502630516 19.991161754996412 11.33599955798771
Rb 16.338386142137995 16.64389649384591 16.371243454346477
Rb 24.278025440159855 16.452110261030334 18.523231408679028
Rb 12.080734317036052 16.620021219001742 18.223174050187332
Rb 14.503539414522676 23.91012291079545 14.433810695942135
Rb 19.715053625010906 24.559066425221005 13.09390764931651
Rb 17.92686591360122 24.154025597662315 26.095886544302804
Rb 16.890971510184936 0.7626452795474093 22.196178717509586
Rb 13.299184538716244 24.320535683437296 24.545134548291106
Rb 15.005607514714454 19.742268862309416 25.753877629046478
Rb 21.014266578158548 24.078965856501895 21.93211690032609
Rb 16.688269012683943 22.07435276135018 21.9849802593594
Rb 20.019989379575915 19.902422995952747 24.71680432359437
Rb 13.27163536776277 24.853182981414697 19.627058394503397
Rb 12.035965324444577 20.051730683944868 21.813902370059093
Rb 18.331819264104116 24.501910215077544 17.837244576438625
Rb 17.65832592652799 15.653207439861411 25.79660285045486
Rb 24.001931427368444 20.230684275529136 21.57055191463615
Rb 16.610867868363172 17.153662444688486 21.331897684432956
Rb 19.973186012886284 19.571954809983133 19.340003132026226
Rb 13.236747684473189 15.126876599699528 23.300190018739286
Rb 22.767231381086585 21.698363623224918 16.294523374628024
Rb 15.001468984515787 20.677531347494078 18.05073514348285
Rb 21.73661069316552 15.902480163784322 22.972643597140465
Rb 10.605219987187404 21.400342230071757 16.94592642307792
Rb 13.357301638458765 19.04526681701824 13.437650397593105
Rb 16.62937185350623 21.601832238988113 10.469184166562412
Rb 18.12896984289931 20.6120991176776 14.72936603346183
