49
Energy = -36.07477357 eV
Rb 22.99854108792596 12.706170630345744 13.752400215807416
Rb 24.7388697212275 17.248130876649665 12.785475577682277
Rb 18.29974805717397 12.00512494283161 11.72057192163184
Rb 15.084171881654019 17.55273341706721 12.784931530823844
Rb 23.61113459077136 22.058815741893355 12.962595904057565
Rb 13.443864418953565 13.092857120239598 11.673708069143345
Rb 18.88537302126348 21.118960990333022 13.325533327548172
Rb 10.404367239332904 16.2068016839131 13.5885943620645
Rb 15.919234202762754 24.811931569912197 12.778713316016479
Rb 10.067998316417476 20.328892058169625 16.522402503125488
Rb 11.654276783641667 24.902782692817322 15.367748179582478
Rb 20.006906332347143 16.30879944118229 12.939904356297736
Rb 22.358046972493213 19.076186864230912 16.38111504222404
Rb 16.22736468481431 13.66858734454555 15.490271337929546
Rb 14.651481215787285 21.406967618970857 15.897401958076378
Rb 13.111664616646465 16.781508385155682 17.36765524160354
Rb 25.468016056614218 15.631583708586751 17.255847340784612
Rb 19.43775342524206 10.168605681219312 16.191292783918453
Rb 0.15095763638269935 20.245575105777924 16.064651691213626
Rb 14.890854592697485 9.31102270362667 14.245480926002898
Rb 23.812178332904168 23.578765046541722 17.40256439775693
Rb 17.708616379210632 18.012258873998558 16.702956835057865
Rb 11.43293096620551 12.222414689335336 16.135582717611545
Rb 20.308194159309416 25.49596315683414 14.725223037250704
Rb 8.559496827402537 15.659171431827861 18.00744958283972
Rb 20.768834847345214 14.535304388682396 17.47727585173967
Rb 16.126618883372615 25.82575134135041 17.438684880622265
Rb 23.789408127209203 11.090850138499029 18.357152455024753
Rb 15.235397379794822 10.599883183256878 18.920399566340716
Rb 25.73236253925714 24.550729793999142 21.34556298121128
Rb 19.133186734961434 22.321302526368747 18.11924696133259
Rb 12.529978860101245 23.241284502327677 19.749062775051254
Rb 16.646870716486017 15.010188945445428 20.269484496873275
Rb 20.868708976416016 26.484006666587668 19.74727857550614
Rb 11.914263787800731 13.765869776951352 20.88396080878678
Rb 25.02639718406731 19.7143734169256 20.416972454295376
Rb 15.601703910408606 19.78212316059541 20.500442528756185
Rb 19.72789876072173 11.518521375539445 20.99464850286573
Rb 20.297850499630528 18.306006529420145 20.756344602203477
Rb 11.002710114477768 18.53602416393746 21.207633742328078
Rb 23.370968344700987 14.762864935739122 21.597096087985292
Rb 17.04249702499719 24.059201118908526 21.987269233843783
Rb 21.628929250147312 22.637818553007385 22.36479001708708
Rb 15.562602103192294 11.941793663172831 23.549350391796583
Rb 14.468557048040017 16.70433587466587 24.29823750825163
Rb 19.259486623092513 15.22687543286582 24.511956227225273
Rb 13.499634613473283 21.54321407533023 24.239331349388053
Rb 18.101096775354645 19.970814635028162 24.75911929549446
Rb 22.898275630063786 18.53949220465769 24.707868729208116
