46
Energy = -32.13851864 eV
Rb 19.843510005547763 22.858918327443032 8.977040534929172
Rb 17.777915742468767 17.81643502575705 10.894929098549465
Rb 22.845122738131437 19.312326859404248 10.906907713472064
Rb 23.49707226583612 24.179147745335886 11.78507303849481
Rb 15.618380621855541 22.6943137560644 11.678240068118203
Rb 21.92863617808457 14.589199392106032 10.910650256490019
Rb 12.32705444323298 18.274015535514753 13.071208516502995
Rb 15.610173158246047 14.819065245121708 14.510203830998266
Rb 19.922913722184386 21.81433689061974 13.356216993713588
Rb 25.010079914730728 16.343324623787165 14.254623005291611
Rb 18.79406156069418 11.70115011304348 13.134035191762592
Rb 24.135382101061783 20.72850451436822 15.677054526572014
Rb 11.091003902585822 13.678386813074757 16.17094274017746
Rb 16.300608934862957 19.56105237887782 15.018243552805254
Rb 16.93126582048588 24.380546644491755 16.392128476755076
Rb 12.36652504753974 22.132358967333516 16.33938162145877
Rb 20.391435090609093 16.71642002244778 14.632931180086134
Rb 22.910141473927933 12.387264137946726 15.733459733406889
Rb 19.143396303069906 0.5475249023559212 12.324020873574327
Rb 18.914960653291477 12.29734805312057 17.67727054271605
Rb 13.128627366592635 17.55153930021428 17.765756278735847
Rb 14.918166102997303 10.125820956736629 16.264936509760926
Rb 20.157218219653267 20.602781343226873 17.78754552454552
Rb 21.752585672378267 25.08366506057328 16.26662471690841
Rb 12.04595392458645 10.098333759000322 20.592718014005616
Rb 17.680568729351176 16.73257271776427 18.326971183588217
Rb 14.68610241483682 13.44937307349857 19.380396919162614
Rb 22.461437670490053 16.286905947922463 18.94561806306868
Rb 10.638964331825685 15.064892746937574 20.947574040028176
Rb 15.816765961053907 20.908945041907025 19.508086032714015
Rb 8.877966112862074 18.35116569178455 16.85077184318704
Rb 16.995880953371227 9.687408164042102 21.3403319171045
Rb 22.184879361006402 11.739069454950963 21.07446160539245
Rb 11.399582433801639 20.527712564086215 21.008973994590857
Rb 14.199151681931749 24.886939573920465 20.504966683259337
Rb 18.526107029225056 14.257495104827134 21.98452405786796
Rb 23.451700406777096 20.747256591195363 21.13330020980483
Rb 19.2690875400725 23.73876064679177 21.287443156846543
Rb 14.676648125410566 17.246297002086866 22.375050365400497
Rb 19.252802882483 18.898848401955433 22.02941497198027
Rb 14.418775849202826 12.7098200916293 24.15069147089785
Rb 22.445956586650475 16.13177156941971 23.947456070741765
Rb 15.895948191087438 21.49440692691039 24.17955204205878
Rb 19.05711629976108 11.632588411680086 25.515242581155015
Rb 17.87349025620562 16.638218396224183 0.21681138954819823
Rb 20.96095268517303 20.961885518575073 25.55633286784679
