43
Energy = -32.08262941 eV
Rb 20.6160157977275 19.6524866427654 9.908465830726392
Rb 15.881026430696865 17.015502201801258 10.079914247944675
Rb 19.6832826411485 24.305994050159487 10.295910490880491
Rb 21.34372051270452 14.762272794657102 11.031880033505916
Rb 11.178700506804603 19.409641790348985 12.342218776831045
Rb 16.13160390211248 21.277111043386764 12.026886166421198
Rb 12.0829775768473 14.442263729620567 12.194864732490347
Rb 18.990918405258267 17.682666800625007 13.857204905744537
Rb 16.943016819977306 13.224989619168603 12.928268701322862
Rb 23.85776527882896 18.144046305278035 14.096843560041416
Rb 14.472920051038814 17.50997822054888 14.860907105209133
Rb 0.24329186479517168 13.447923053673515 13.461275627623948
Rb 20.970438106166878 22.09514371017062 14.37720390428083
Rb 20.785932073621307 10.362129621198177 13.386001228794203
Rb 17.12712380920591 0.17592846246446636 14.410882846773443
Rb 16.0215622838476 8.903597557588608 14.900138087564223
Rb 12.583275846752496 23.754625436263574 14.179352781215567
Rb 21.80878194375563 14.06595002478484 16.186993028140897
Rb 9.983129987912768 16.182401449142468 16.54446195332075
Rb 16.724943645114443 20.828703103742676 17.224794931530617
Rb 13.470014196874592 12.621702918604658 16.685935786487008
Rb 17.571203653547187 14.847242377303662 17.343398216523184
Rb 11.655030117548876 20.766730073939723 17.66937964417716
Rb 20.09808702543721 24.81685093004405 18.14732108871486
Rb 14.912616192062876 24.67678951227601 18.83391549046282
Rb 14.344235676116561 9.120769696711402 19.97181332424734
Rb 20.747284313123036 18.62994508971021 18.099567008054915
Rb 25.073360711657568 16.831055139161514 18.75157960345699
Rb 13.86709239970125 16.77529210189425 19.404359799250393
Rb 23.870937319466474 21.810636968303083 19.175525486661353
Rb 21.246437834462686 14.190981007549242 20.964117211026075
Rb 11.265656934360363 13.138747250764403 21.15077187312597
Rb 16.484359396346058 13.027955989210128 21.48129709517281
Rb 18.983526258920744 10.411309492558653 18.134842026666195
Rb 9.949274937500427 17.912063425785355 21.47618110858209
Rb 17.775678205953763 17.712534119532123 21.352284432102568
Rb 19.019884227524912 22.312567012206827 21.80152886277607
Rb 14.17573018198817 20.93167579277864 22.023009821144306
Rb 22.209852022690914 18.592534003802598 22.91397738121495
Rb 13.828557700490295 11.154556795672873 24.74077403740306
Rb 14.014589916192561 16.264918506372226 24.35375616563603
Rb 18.860181909088347 15.074328059508737 0.148780704864074
Rb 17.746562114641147 19.736038848935042 0.5583115364502234
