47
Energy = -32.32040116 eV
Rb 14.047172237573726 19.522360241076925 17.145646139711204
Rb 19.266284740512184 13.479229875587972 16.790718801032607
Rb 21.364411622074787 10.338523451638187 19.397765914768115
Rb 21.50572124894222 22.145215349069776 19.90196191546746
Rb 23.59428050401206 14.753085511133792 19.02356749319107
Rb 15.782110773494061 24.359535924076077 16.66354893940281
Rb 23.25348800508688 12.959402697043295 23.469270899473507
Rb 17.65652663492777 25.389557255553832 21.069142630288134
Rb 23.435760184997022 13.050016667085977 14.438123804151072
Rb 15.795297514445434 16.02788775433404 19.598799192985727
Rb 15.001670194389947 15.87330646641404 11.134671166709968
Rb 19.220134554182554 13.7990758782699 21.65713642381319
Rb 20.15991821387309 22.337827137649512 24.221458447780073
Rb 12.829622162445082 18.418940920588888 22.139550996100038
Rb 15.197608552047562 22.45031172829705 24.334043775129306
Rb 21.867449985824585 17.34577571062915 15.27674107298234
Rb 13.236429466478908 14.66626782082246 16.00805109720792
Rb 20.002862011332724 17.7627740924264 19.314708199926603
Rb 11.410916612636672 13.727083991534101 20.169066606658234
Rb 19.660990799309584 14.448651847735496 11.78171069290885
Rb 9.86116484039692 18.077250575996 18.254971630452456
Rb 20.895108648455828 25.725109606941782 17.1752455725503
Rb 11.072969106205019 17.727210424814377 13.400035046186177
Rb 14.945074802045967 13.82298182603251 23.7618564888751
Rb 23.75302476476864 16.937917572391815 11.108459244504521
Rb 22.455242150604043 17.84949103773326 23.192487513206558
Rb 15.017941131290783 20.885132307991345 12.792376758610258
Rb 17.136703286565098 16.969686256834493 14.985555929234678
Rb 11.389576989285558 12.790568484907924 12.173059614528528
Rb 23.356045316033963 21.72226099003371 14.96373839560744
Rb 15.683736134447162 11.370875812926634 19.12383870403823
Rb 17.551897009993265 18.00050489349664 23.868071759885268
Rb 25.06169055024767 19.428657992928738 19.106769138453163
Rb 8.64021613177588 14.006012201652602 15.984785897555849
Rb 22.377887575317352 26.225180980617697 21.976732026030717
Rb 19.45295437710978 14.388965310546086 26.23298507010003
Rb 19.118888790037943 24.189697659645113 12.915902051601972
Rb 10.882360906497198 22.185652819556363 15.48508463435466
Rb 16.933531716591677 20.964774651993324 20.41522088374568
Rb 0.07081619844099496 17.296904159438757 15.162333340921531
Rb 18.879027722599048 21.07523747041019 16.147054511620592
Rb 11.769194425563384 10.305460875563249 16.38636262887467
Rb 25.43103904808383 24.317009315923013 18.65635420694022
Rb 24.922141473867992 22.243169769107194 23.12964022596978
Rb 12.697262485490795 23.026308136439887 20.164864524583287
Rb 15.880659341693919 11.6570251677375 13.743645909303714
Rb 19.563745393402936 19.36512118057842 11.56588188578187
