40
Energy = -29.64343174 eV
Rb 14.873283090216159 14.447024849907354 8.98788903345346
Rb 18.246421824011275 19.0804546858225 9.393703833743988
Rb 22.989260556263996 18.287855703057655 11.31213629847554
Rb 19.46539741931489 14.36010533864595 11.196896450014458
Rb 20.81031362265428 22.94339612855567 12.696335364936907
Rb 14.87541095232196 17.321493874300003 12.362446778744932
Rb 10.880099004233625 14.89769701483965 12.688596750899888
Rb 15.757106040060782 22.10563618264452 13.130251155956213
Rb 15.274642513029454 11.745952099998789 13.077836658634522
Rb 19.394994962316535 18.52424044465045 13.903030303841422
Rb 11.178976530044245 19.490370012156575 14.960996062990638
Rb 17.939166343284732 0.541451419387108 15.653217750470173
Rb 22.96748958671714 15.045798424793713 15.113353769815854
Rb 20.198662119449118 10.548170356210296 15.060041491998867
Rb 17.812815334932097 14.576595979923141 15.598618796765043
Rb 23.749779656238697 20.166669930917468 16.182480393020107
Rb 22.39831878998516 24.93538819400371 17.418675706288205
Rb 13.130557734892715 14.308857574560985 16.763624225459814
Rb 18.953485494969268 21.851567055300556 17.01404743353969
Rb 15.533220594360593 18.566485914888293 16.566470842598612
Rb 12.429085120624823 18.78855384427761 19.70828067806686
Rb 8.934532029179188 16.19780302396907 18.05057059258043
Rb 20.350348023113817 17.654907945834033 18.425074877694165
Rb 16.485863843970836 10.827821214491742 18.50393261385688
Rb 20.77606746471808 13.339124190026173 19.12845547085809
Rb 21.683906961387127 9.062269844380918 19.689749575143146
Rb 24.491745778971396 16.458010014656026 20.148204081888853
Rb 14.121873391178507 23.109207093089605 17.84125772715403
Rb 16.432809003733936 15.406013936652355 20.138657898380806
Rb 22.05939338282285 21.28570522833802 21.024168521870923
Rb 9.898339906909841 17.653227419001336 23.185518123897715
Rb 17.01544483690349 19.963379653867136 20.750528288541993
Rb 23.065657161383164 12.535119780832508 23.124384171358827
Rb 18.036732559979853 24.69601896194959 20.74244438766387
Rb 12.366779908544038 13.740515320317 21.553757570643146
Rb 20.22969948504513 16.731924786212602 23.269562697364144
Rb 18.04333948193981 12.182660597198895 23.115365871147617
Rb 13.446200491741308 22.10035125633067 23.003159921000183
Rb 14.922032322018616 17.243719837174567 24.240683567963988
Rb 18.264847182236494 21.289284450281915 24.759694766975567
