50
Energy = -37.71030941 eV
Rb 23.500249119758752 16.574725026116308 9.445118990367488
Rb 12.958031740853249 16.607128913758103 10.83443491549921
Rb 18.72243825558601 16.09970167143278 10.9695857244877
Rb 22.21809855507949 12.40216156508444 11.36013103317266
Rb 0.49626260661152555 14.326168164781272 12.598914501852759
Rb 21.407701080266808 20.47929414176138 11.418946993277988
Rb 26.020217482092196 19.570363587568306 12.844339945713248
Rb 15.324642047979541 12.523037425452227 12.190404666935466
Rb 16.460865103225238 20.564726822975963 12.015058465919928
Rb 19.395121655827822 24.82534454337936 11.378550429024456
Rb 22.89663155047581 16.33624483824591 13.904564330817339
Rb 15.152367902889496 16.419534159066068 14.616108976600842
Rb 23.634420210161387 24.15329885334804 13.91126018879853
Rb 23.93848789881675 12.377136338112456 16.24280425232746
Rb 11.259430627527687 14.325634649916692 15.008088990669277
Rb 19.19339325522028 18.237221067734712 15.213340795620988
Rb 11.902245037487393 20.027679795811622 14.18622006888358
Rb 15.19881240396836 24.630172646786942 14.719068389088125
Rb 19.193463478570187 13.424341369113133 15.07608033471882
Rb 0.16804081826283435 16.50625570071873 17.11386549786659
Rb 19.495589322726943 22.72521392807236 15.394456926750747
Rb 23.51736947459832 20.36481433566585 16.836625537138563
Rb 15.24946991283963 11.873475232397771 17.04325062387866
Rb 19.60848853781398 0.9336297318230855 15.913570788526348
Rb 15.520219254009751 20.532805820018403 16.8091110932284
Rb 12.063675946718307 22.91043915251209 19.00817121287435
Rb 13.683179745745724 16.476424931009003 22.907454024134363
Rb 21.597557487268922 16.08181557626007 18.6440904400125
Rb 21.964459654147902 24.19855895850429 19.429925886827426
Rb 11.80664911233874 13.199359890590774 20.02314381185193
Rb 16.55840797684493 16.02551766966798 18.810062359042256
Rb 19.528568421637463 20.30278502704593 19.334918013402596
Rb 17.086201618709282 24.583801555676825 19.323442868478665
Rb 11.719052231125945 17.928125857143705 18.73998980904857
Rb 20.192539317686112 11.844392676376204 19.491231450523824
Rb 15.22696853707944 20.49738878155534 21.33480381200077
Rb 16.3056320444488 12.606348520606467 22.25589048283672
Rb 9.147919872048593 15.928006450832243 22.90632341381211
Rb 23.240557947737546 19.003157784216633 21.868975340894604
Rb 12.154869960669618 12.663044878408392 25.029266986580293
Rb 18.370131477503055 17.376334876954036 22.69251678919098
Rb 14.06064544109532 24.116537549764253 23.745290496454725
Rb 24.90527695970776 13.93059410119528 20.929479344909883
Rb 19.256161182720405 22.356379431390245 23.434241599010104
Rb 10.956651500503806 20.45115030399272 23.30786370984211
Rb 21.167673284757264 14.130937709188084 23.835489466589685
Rb 11.852017966322887 16.957778236897877 0.8322107296711846
Rb 16.425976197958967 15.041779867232588 0.31976996868169255
Rb 20.444847010257913 18.354458352466338 0.20894862787378796
Rb 15.482720943760528 20.01281193642313 25.98535483212567
