5
Energy = -2.56549911 eV
Rb 10.281946111179444 7.8067226509265835 5.950635246691549
Rb 8.4729943193614 12.288814246729528 6.8237426577543765
Rb 9.72876881891475 6.074542255281023 1.6933290204880682
Rb 7.570047175228495 10.072540831564442 2.6840356975725133
Rb 9.63401091731277 9.445147357495518 10.260917782691811
