55
Energy = -43.07593439 eV
Rb 10.558260776225929 14.983813888884377 18.43981964221791
Rb 13.881333035718285 12.178768314779965 20.940684564313578
Rb 11.977393760747955 16.53051195604372 22.768074601272406
Rb 11.014339302539664 19.756210440963716 11.463421577843171
Rb 8.80882241394837 12.664523926895573 22.1608904585022
Rb 12.003584513225096 19.127218640080766 16.284164631406092
Rb 13.330235170884373 14.507730428367346 14.62346088105438
Rb 14.502858943688056 7.266162091252108 18.72371999924026
Rb 13.842507477852287 5.444348556950193 14.278641024250032
Rb 5.4561816948003 9.363019515156903 10.735656855350697
Rb 18.714565854151083 13.25704832360594 20.172836025179073
Rb 21.91554688631243 8.374456098860769 12.214628786686129
Rb 9.678319809400266 17.637300389349722 6.581527547986367
Rb 10.159088001524267 10.358004975411758 9.101576909796918
Rb 6.958350787077848 13.77364391066572 8.375944565821206
Rb 8.723185592620318 11.92149014633608 13.35748427785679
Rb 1.751480008541273 10.591110373697083 14.456401814341236
Rb 14.270792902696183 18.291436926401555 7.935794348959252
Rb 11.336603529400755 14.99888461580057 10.514623700608674
Rb 12.46640985073981 13.58330546920592 6.06979931895464
Rb 9.31656388888329 6.753207472755244 12.630117555880716
Rb 18.31396761831599 7.161318968918883 15.53448492127577
Rb 15.428859198308556 18.612364637667227 12.92517743053911
Rb 17.851148330605195 10.96477341344941 12.559758531328596
Rb 16.405073695918578 14.987736912461932 0.22138761066227128
Rb 6.8017429322421545 8.761824975340184 20.355759612838142
Rb 13.182188518621732 9.927246306527795 13.019089022392448
Rb 8.337087854451454 16.49716878632363 14.478291603782116
Rb 14.918805043530805 10.568245813693906 8.5231843575155
Rb 9.886472432630251 5.844604797762328 17.589369182596993
Rb 6.616970956343455 17.993492890651314 10.316515358385008
Rb 15.315955334692774 16.405378482210782 18.808650628255407
Rb 12.467708385935726 12.152185376245258 1.3374264826218485
Rb 17.083047774060745 15.068349829920209 5.4169965356494245
Rb 19.579606412106983 10.766767025177531 7.969410603234447
Rb 21.10603930868728 11.259569252664859 16.370806807640196
Rb 17.602843105950264 6.558751110155911 10.750024476395748
Rb 16.510763598218208 10.921054774246823 3.5350387555319216
Rb 4.412669853934806 13.990738811083203 12.644490619345097
Rb 11.72606731225622 8.714320031685281 4.728318420836345
Rb 8.41032471342747 6.114512429350144 7.689910137942582
Rb 10.744572636143998 10.405563807584308 17.398158094916496
Rb 18.430328305622975 15.220904822972573 15.016708317314666
Rb 13.197805312765643 17.273709477438686 3.1327727656903024
Rb 5.980052998551516 8.337851450795897 15.568841987112618
Rb -1.796584428274206 13.12794566571023 11.914124748235754
Rb 8.564652081116636 13.774313677518105 3.2930434149668786
Rb 6.672090670916947 9.98729988446058 5.612317828992907
Rb 16.45982844768126 14.715057635553316 10.288416838884613
Rb 6.112177852070169 12.775684852481096 17.444953460563994
Rb 16.676121604468563 6.904961155773866 6.0256259660435205
Rb 8.040756874740069 9.083170040831096 1.2797033643528044
Rb 12.984871479269138 6.138661386402274 9.354926948248973
Rb 11.236949696000416 8.146815470292497 22.119171078663072
Rb 15.927567387710171 11.330417085184814 16.80283249972362
