50
Energy = -37.7620131 eV
Rb 18.22550093095555 20.384464364769556 9.07860639386313
Rb 16.585879840510074 16.132155167864994 10.557419518652791
Rb 21.50207442141628 17.22743444841777 10.8739530336356
Rb 14.024784065831682 20.402490382600543 11.627086331001745
Rb 14.790366980684245 11.955793568096642 12.56205618657169
Rb 19.773689276684053 12.90454332505137 12.695880337281288
Rb 24.634718403227712 14.044066467641356 13.071150954172523
Rb 21.897210278481822 21.954902511248218 11.931486979877297
Rb 12.304312544329557 16.026837322910144 13.450627975488054
Rb 17.286708457132136 23.93388984319012 12.400270854149923
Rb 18.270799306802783 19.37497839687338 13.635813849694848
Rb 9.859237302917359 20.190495840017537 14.50307870740292
Rb 25.13581013202893 18.75004415627462 13.973568460475587
Rb 16.64597219931299 15.137446476659168 15.38977226048171
Rb 13.00625014060214 23.87151939176388 15.210125372769257
Rb 21.524807974681863 16.173768044433178 15.672471926652754
Rb 17.503920194702204 10.376207086218502 16.42506209438573
Rb 22.397351470795837 11.415705583104817 16.690729741103933
Rb 12.885032522126252 12.572655496298252 16.998781088189087
Rb 25.367769544357056 23.608641388070186 14.553021506561068
Rb 14.07533716227942 19.391622210696703 16.390525093082896
Rb 20.89222929572193 25.55884397674794 15.25817996808129
Rb 16.381879480364763 0.5494317746377494 15.92836969327966
Rb 21.997449908112394 21.059949673892362 16.729198818194767
Rb 25.744652640980387 14.979036211501233 17.62710837791918
Rb 10.361941442285028 16.851647029480855 18.106775775135407
Rb 18.372872935819043 18.402126400227704 18.311418944827512
Rb 17.357145629153035 22.873752123573063 17.06636383674405
Rb 10.724841388029626 21.582029908281505 19.144947911933972
Rb 14.11174244105952 25.134877776225625 19.742398596516693
Rb 15.01131260367493 20.616033093125008 20.989919438273425
Rb 19.20624753026815 13.783499011171271 19.325465111772395
Rb 14.69472234963482 15.871244265687363 20.00798309612789
Rb 18.662601454691742 26.293933723471802 19.995327724861202
Rb 19.77149018702625 21.690908881032417 21.288940564771423
Rb 26.68158225292046 15.844681552093371 22.327697456973223
Rb 23.398648000026395 12.708843746594376 21.305918747053422
Rb 20.010114170607455 9.293954270335892 20.38052686918902
Rb 15.558914316346728 11.196165143904443 21.04839988518258
Rb 22.678739548284824 17.50312327106391 20.305957586406265
Rb 11.02631798326756 13.370633947251413 21.525789217497138
Rb 18.39543584444188 17.172345361118154 22.875565448364807
Rb 16.51126470668607 23.906498752468696 23.97127892247152
Rb 11.354895665951979 18.14934144678543 22.69182616444029
Rb 19.185574358761098 12.576628537766135 24.009230407769014
Rb 19.731435828645964 20.444506399511496 25.998022720763217
Rb 14.60860264491622 14.710368583157646 24.602547135128383
Rb 22.556560185368664 16.005217335836296 24.96008495913919
Rb 15.179421617210314 19.40678025875885 25.586636124632808
Rb 18.352139897982145 16.09285045313084 0.6555462120906083
