52
Energy = -30.2328291 eV
Rb 11.72296091770611 18.629068074676567 13.304002089781708
Rb 15.613036927076651 19.81045269983505 16.977226658562294
Rb 21.545616920213515 25.09677802501182 15.379703583479776
Rb 21.51958656453403 12.68333541013605 16.328616273756488
Rb 10.557292069885184 16.098458744195874 22.743745798133006
Rb 13.595343039597696 14.231955292503796 11.103816469231766
Rb 18.262443377040427 16.010955774513437 18.705881502857064
Rb 26.343459813118322 18.887670248703614 19.52767831171596
Rb 18.15640897307429 15.684813788894411 9.10515833535652
Rb 15.101620293455388 22.86505626356429 24.79150153031626
Rb 24.43607230379617 15.5085667805374 23.05781548970081
Rb 19.503938369414186 24.04136717189147 23.122551754317733
Rb 10.677702718067504 17.590796385902138 17.937888674689262
Rb 15.484110224491017 24.193183056716332 20.129605544202185
Rb 12.465221383343 20.523837314544995 21.263141052731402
Rb 13.800894660698056 18.514207556294217 8.795613264140995
Rb 11.751245053125844 12.8327796037416 19.07281621981155
Rb 16.451315537688423 12.998906433291703 23.435659125333036
Rb 21.19089553729314 12.84694108273167 25.877969351313293
Rb 19.49486677689739 16.337465671327955 23.410942617925706
Rb 14.413484571465311 16.26423560641997 20.63138072158824
Rb 13.502108868191572 10.850643361739278 14.665049904202581
Rb 16.35959939119131 17.91302147594528 12.513051651801922
Rb 18.792804717537233 20.37096160659154 26.35477444891094
Rb 23.513946924342125 20.570674067298153 15.78148866414959
Rb 14.37578981514664 15.263283094791694 15.878063109609773
Rb 16.62676541104347 11.744256260015366 18.408712456253767
Rb 20.18489519508253 16.988598387825164 14.78520850428418
Rb 17.669385662350194 13.025699208997006 13.357365777190054
Rb 21.961846991858042 18.585968109287325 10.966139766447244
Rb 22.485368197926046 16.864362451849857 18.9038658188803
Rb 22.69562505428156 17.68107155220164 26.844185987878117
Rb 22.16260059677673 19.926699828192564 22.384101345761714
Rb 17.18304206708495 19.987967963354397 21.677179100679346
Rb 9.980330812094119 14.224167202702017 14.518343011945054
Rb 19.18805863067972 21.47531727001928 13.593701390321982
Rb 23.090658456073857 22.707921251951163 25.91487624576889
Rb 18.046903516126807 15.729290440738827 0.5346146017498611
Rb 19.74824158416081 21.750714919932147 18.321993586877685
Rb 24.91173751455645 16.15430908820262 14.798472382050956
Rb 18.26814802167612 25.293720751450262 11.17818356018096
Rb 25.57718868855197 13.418045293541791 18.819654060999667
Rb 22.04565804498516 13.762135819948435 11.667663612841311
Rb 14.521570164385846 22.304473245354934 12.089152565935606
Rb 16.6591288989519 24.862190333207707 15.709084969072972
Rb 18.021171934785098 20.778855028971307 8.957552511125789
Rb 12.07215420035894 22.53027829722672 16.632827492003372
Rb 21.050631058272575 12.51247657555212 21.02762614625084
Rb 23.586288463152727 23.719864213028103 20.230621167238056
Rb 14.68441594140603 17.77745236389604 25.096223904236588
Rb 19.592482077469153 26.76747418617834 19.304767805963134
Rb 26.425293797588175 19.878632094643503 24.20781755667579
