50
Energy = -37.8733052 eV
Rb 17.316970645980362 22.48069429202222 9.967273878380794
Rb 21.673000321164654 18.266775611869445 11.267567683717058
Rb 16.72977383083774 17.997816338957318 10.802282082467475
Rb 24.464205843579162 15.40665142576411 14.493103412591744
Rb 19.553739935476695 14.1814301395311 12.754932831176836
Rb 14.552299256032608 13.720719083002411 11.9872077758037
Rb 21.828915832093724 23.308838391497602 11.011518165949711
Rb 14.634831253536886 21.915575534375417 14.414716010694145
Rb 24.33502321395351 20.823358839466675 14.251886891262828
Rb 18.03261295012409 25.962300934370123 13.024371206172317
Rb 12.182820974002833 17.954199263449432 12.696467630971691
Rb 19.203882477816585 20.86385824791698 14.05041478366706
Rb 25.564813942972293 23.451905174612765 18.34789473621364
Rb 20.59689266956556 16.66123560735053 16.483726394951912
Rb 15.994217370753676 16.75339783426735 15.067844698480197
Rb 21.536856291443097 11.498208757205331 16.522896476294637
Rb 16.60053155451736 12.120214315980814 16.244428127309806
Rb 13.860484458220926 23.02470200785005 19.494441337374745
Rb 22.20927057941914 25.21481786558928 15.369440182479588
Rb 24.34709197282226 13.915074367317857 19.615436822372075
Rb 12.068884331683524 13.937477042338026 16.307611765956114
Rb 21.58071772121591 21.230918134019532 18.110137778973282
Rb 14.531117860198087 26.813448116898886 16.386509706995486
Rb 12.141236480003288 18.68697497712654 17.513722373910745
Rb 19.031317995168564 0.7720852984673248 17.1093990654256
Rb 17.934717617975153 24.026586160403816 17.393580948435922
Rb 16.68048116425088 26.665365793599253 21.02706851273676
Rb 17.09510830376315 19.416827568749515 18.426304873945234
Rb 19.29554949761146 13.40420403796098 19.988913277101574
Rb 25.49412731084992 18.459013502575058 18.485080585975098
Rb 15.121486690564886 15.43261635260296 19.538325791419243
Rb 18.15030825955694 8.875359292761377 19.50855182054897
Rb 14.083890712707696 11.238697111284557 20.512752468004518
Rb 10.741120936271198 15.073391508300983 20.828064554431798
Rb 21.430771181975487 17.63267467305329 20.939791431895543
Rb 21.347010155861508 25.499512868793975 20.364198769708413
Rb 22.18967204002429 10.018882234468919 21.526434977988533
Rb 13.72320755568857 19.089952076456203 22.338689596334078
Rb 18.37516958765377 21.53917364460552 22.029929886155546
Rb 23.477139844375905 21.64395068626443 22.506222075468017
Rb 14.804423414400784 23.61168368548575 24.314325213532896
Rb 25.448463360323913 17.132404370568484 23.161451576933402
Rb 17.692961149652703 16.506506054891187 23.130989070936593
Rb 17.73772318719401 11.240995648116463 23.903187139513776
Rb 13.898645239770653 14.369827603655793 24.49902981536132
Rb 21.75441992797311 13.95020743517564 24.17711102915255
Rb 19.82900664460956 23.850613118123373 25.402528554751694
Rb 21.153702923110266 18.73937088838216 25.550387316824516
Rb 16.536733041262952 19.595665638171994 26.367663488012614
Rb 17.93930688291843 14.809231463378605 27.290841798167534
