5
Energy = -2.48665875 eV
Rb 10.492859563630219 7.640111637465264 8.938962182513485
Rb 7.4310326872879715 9.160396716822326 11.875387260601016
Rb 11.409609638796272 12.098814218553835 8.498254400801105
Rb 6.714301852593243 10.419615891623863 7.45225419726132
Rb 12.973473615661938 9.702338893504622 12.256419316792568
