54
Energy = -40.66952228 eV
Rb 16.210270369817454 20.214081734390586 7.9611876814040645
Rb 18.04192893461899 15.73164630424386 8.63455894439866
Rb 20.95608718525151 19.807939040498365 9.90265145957626
Rb 17.604520273072993 23.562813439230094 11.375854973976054
Rb 13.312053580778809 16.57014088316234 10.0545824288079
Rb 16.438402788189737 13.873433071182829 12.954977789528185
Rb 13.101079940221254 21.531435067057387 11.62440411823146
Rb 22.56802931020022 23.884975628775027 12.496132374734305
Rb 14.397139380115211 25.827884239330885 14.647282189720976
Rb 17.07544329581558 18.545670391589468 12.006878550920776
Rb 19.519739358477096 12.732348635711528 16.56583900540782
Rb 21.172379772660097 15.872638992494025 13.29194786035966
Rb 19.06486522898396 25.09692955827937 15.877324251259727
Rb 24.640185771473888 19.386785961021793 13.807919079122856
Rb 14.503206912922336 14.11417223502734 17.722478587374816
Rb 9.452576802719937 17.941412106601923 13.146516158138844
Rb 11.630067997337834 13.523574973300228 13.927646071272871
Rb 20.33757492869387 20.629393293768953 14.492495236194245
Rb 15.90319732388584 21.532812440082555 15.481108994634049
Rb 11.228629915276713 21.60243187256248 16.20254518079961
Rb 15.361063835587526 10.118411848381843 16.003519970840703
Rb 13.542456828122623 17.668617167219548 14.772907869753018
Rb 23.409729472550154 22.782075255017727 17.166979369628557
Rb 16.506621312258925 0.62947419864505 18.840784537922833
Rb 24.562054528673613 13.890135419177913 17.44289030799758
Rb 17.888383399085782 17.135258387029584 16.582994652262542
Rb 26.90375572168947 18.93700854175607 18.1062525400359
Rb 21.801748901833754 9.635523989455812 19.43648859019259
Rb 19.10569304202667 20.950304871545413 19.011853597434992
Rb 22.407085233604317 17.82065454460056 17.98135326333313
Rb 13.91625064362885 19.023926247683328 19.528440639212324
Rb 14.974956479235948 23.79933141725645 19.318447781425387
Rb 17.15934425064988 16.29722380168027 21.106861509762744
Rb 17.0290519467311 11.278545050610996 20.697126596365845
Rb 12.963002685227528 14.30798160416311 22.01348824398743
Rb 20.14172855931376 24.95804676407386 20.74848897868254
Rb 21.187241612131707 13.989367867668935 20.88924830520329
Rb 24.128614413879482 21.32421116697786 21.621158300077468
Rb 10.249233117422518 16.46139727931974 17.812467413179082
Rb 25.35010697712831 16.554804587586602 21.77607940398969
Rb 25.019990744596456 11.86045337167024 22.430555717818567
Rb 16.92300770851123 20.86462648330588 22.867893629950803
Rb 20.9390848199495 18.28920000317444 22.741693468652258
Rb 12.487874238706892 21.984484686099695 23.19392284603215
Rb 20.68778859925877 10.360570746482399 23.982067097542643
Rb 14.376701213941443 17.76469697101354 25.018436030068468
Rb 17.493605685158677 13.844461588087327 24.932249061693845
Rb 16.39038772080009 25.390352168681574 23.576289901647158
Rb 20.5207466110154 22.549667730396514 25.150530011344678
Rb 22.18385338159215 14.581180300463519 25.667577877206732
Rb 26.854566997644422 14.881266756718256 25.80335456427273
Rb 24.076458565813656 19.01360625530646 26.089618495604224
Rb 15.929483150986528 22.036865789506205 27.136614295051746
Rb 18.912402622876012 18.1855792208489 26.91848828811166
