51
Energy = -38.55489477 eV
Rb 16.65444673318222 16.09204014664017 10.716864339134068
Rb 17.355829303153 11.430214740072254 12.077513428050716
Rb 20.842749595285934 18.856318070615053 10.84916172303161
Rb 21.46641941630936 14.000797611893864 11.75103708224157
Rb 13.104664038322204 18.91730473526555 12.664315109115785
Rb 13.540448986734226 14.07530481473044 13.881188838910854
Rb 25.343087826437856 16.907415688747427 11.815939508436543
Rb 19.497187105592126 23.520591507315757 12.67031750464559
Rb 14.531476009544662 23.484318708774268 13.936714568381992
Rb 9.856491933222788 16.72141695386783 15.86369485997512
Rb 17.56887638252355 19.511999607067327 14.064587600570322
Rb 24.03836993850523 21.520660064526062 13.504477228243193
Rb 18.08720841862478 14.7973961869987 15.226466521267188
Rb 20.895750788873478 10.82422847854266 15.50634719190076
Rb 15.956919174849096 10.83035555865836 16.811171603805395
Rb 22.080289472551666 17.4770650258696 15.170733236124507
Rb 25.003628947236084 13.54569574077343 15.268464752118382
Rb 11.201070278540522 21.358351863143938 16.743109510848164
Rb 14.282453559231604 17.611586967470544 17.280225115198117
Rb 12.253204066823628 13.478185873514335 18.651218221872544
Rb 22.758481806834467 25.939376978280883 15.362189630476813
Rb 17.860301787568037 26.10105826246397 16.635629995933815
Rb 26.579714001405794 18.218462087777212 16.35560142682903
Rb 20.853054653362154 21.986487878809186 16.887863548551536
Rb 12.767484438172128 25.62161142261836 18.330309034069455
Rb 21.358778446790154 25.514907937795588 19.997337992607015
Rb 16.24956857638333 22.022620426025522 17.861910046446784
Rb 23.286320378610615 18.882697054317138 19.921328221345128
Rb 25.29408175459904 22.858427474233313 18.232768231345727
Rb 0.65431925635681 19.547540493149032 20.619551021085446
Rb 24.257852106853107 10.502711352598237 18.96244816010923
Rb 8.906939199276955 22.763905645947467 20.92821433567069
Rb 13.223277752744576 21.953398374304985 21.05307515311967
Rb 16.562334290344857 25.529758886149803 21.46660639723584
Rb 21.577937742443364 14.335439835521575 18.785463154132085
Rb 19.517929515587863 10.348362434936655 20.394188633955356
Rb 26.111174600826267 14.958077194371992 19.906925212157784
Rb 10.64382245153621 17.97689694821969 20.47358140873235
Rb 16.788891321457015 14.188922204499573 19.9728373744763
Rb 14.699306712393213 10.373407346430408 21.534521213885135
Rb 18.850376973857873 18.13465838733634 18.525233377522728
Rb 19.393798303567987 21.566019252560707 21.72829591628632
Rb 12.02098784216762 25.11880063863883 23.816855008770634
Rb 22.788173500171524 12.858408714139722 23.053648131005268
Rb 11.739239254169046 19.73019192020697 24.817835618483148
Rb 15.78548127864962 22.164646792049723 25.04971653596513
Rb 17.776051769472616 12.909311747371913 24.436451547016322
Rb 20.02593122010438 16.771224937059085 23.01065676133559
Rb 13.189062985985066 14.762644307203619 23.372892739936084
Rb 15.652741984726463 18.35899200207674 21.977051703356185
Rb 16.26824744595864 17.314117826040494 26.34979963190865
