53
Energy = -40.576587 eV
Rb 16.23363491348784 21.246011511988844 9.919712393563824
Rb 16.222923899602378 16.536209099779487 8.460140681524374
Rb 16.756753794150814 12.183473329967722 10.903884235890967
Rb 20.631803923427338 19.647779998108938 10.237387437619377
Rb 12.333842384408266 18.93116068068558 11.46411020394665
Rb 20.821485666897495 14.722853809548214 10.577031832165378
Rb 12.559909487398784 14.082626034540665 12.02174844808513
Rb 24.969679462377865 17.309454187768537 11.451750035983194
Rb 9.778235898534318 16.676355685185015 15.276297980834173
Rb 19.33429780545888 24.644871386471877 11.879672024449125
Rb 14.182469110911855 23.586926755910802 13.449394081918493
Rb 16.689442084952713 16.931146826286614 12.898215676384245
Rb 17.919927975177963 17.321291321808115 17.517794133996613
Rb 19.0197400636172 12.93276226727 15.239751521381045
Rb 14.777865021077789 10.15220081107797 14.770038207493531
Rb 23.769554484402658 21.58237780282677 13.718891510695938
Rb 21.399281657116028 17.4248608406202 14.455464221428514
Rb 14.146073338907936 14.516078236490317 16.635229395059234
Rb 24.17116828524924 13.59409402846444 14.809489820880342
Rb 10.29152000040826 11.805678349896736 15.89941730491649
Rb 21.856165914625496 25.04771749310193 16.21052489494318
Rb 17.18380269524454 25.774558153235958 16.75634584707088
Rb 9.802375310961807 21.6002846014503 14.817941197139364
Rb 18.439072239418074 21.338051785060475 14.759612999117639
Rb 13.856854405721627 19.52897808891326 16.14951431339073
Rb 25.95764850964475 17.922203305013095 16.365333510320493
Rb 21.764908645615694 20.306155158106215 18.474731802573523
Rb 25.446324033030848 22.839720415927463 18.85761922331288
Rb 12.727488898895363 23.824095863474305 18.29717359484756
Rb 22.020016570902627 15.430896869453626 18.961006975378652
Rb 17.103724489716573 21.633704679712896 19.580848816672564
Rb 25.993839107087457 18.39311700187376 21.029972118516618
Rb 20.837231546393706 24.60731923657264 20.8626946590411
Rb 18.02652104572766 9.201496369602415 18.452742739633734
Rb 10.125715354757663 19.56133431678552 19.402766263268386
Rb 26.05311191220611 13.636409533261 19.809271570158266
Rb 16.034519118823358 25.775778445014964 21.611309838385008
Rb 13.4173177623014 10.544755603636812 19.66315444186929
Rb 17.391241738396886 13.578512850412855 20.348331517320783
Rb 10.423460176085563 14.603857451007768 19.994353929817574
Rb 14.36436285508589 17.524327154521405 20.77112712102346
Rb 19.179280171842553 17.921608938325743 22.221369298972352
Rb 22.86314241826923 20.95817233486488 23.366858474886694
Rb 21.59472970871599 11.408972908139015 21.61702953221255
Rb 13.3416144836825 21.75010072498002 22.88406161801782
Rb 23.248383643622066 15.559197463776085 23.793270423030442
Rb 18.188904768695323 22.28010299658059 24.44489437094566
Rb 17.03463065850933 9.77990732544974 23.15733715135374
Rb 13.839142595230612 13.567127249201615 23.73458137757737
Rb 10.847584100182573 17.538367114030738 23.969521537672232
Rb 18.744433787499606 13.900685228238894 25.18137044897346
Rb 15.522257857801295 18.02982682886199 25.591434091971262
Rb 20.292027802859103 18.33588713183407 0.2686307219756047
