52
Energy = -39.54903882 eV
Rb 22.917678683292745 13.536003033825653 25.483234863822883
Rb 22.88514312209881 25.408288268277886 20.889659307585003
Rb 14.63256569750698 13.465622924176 16.71547923239617
Rb 14.001105464063915 23.044287246330956 21.602073843389856
Rb 13.518745049577445 12.869629924270457 21.53394444294178
Rb 22.989501832526713 18.25320175984649 27.31122410519477
Rb 20.331670006674198 16.615294183883577 12.569300020792815
Rb 16.767453768529716 15.60862232532275 20.61274527972573
Rb 22.552022415977685 21.016223504402454 11.622634400669138
Rb 10.28320995636062 18.97941415561011 13.163280877062533
Rb 12.722283325281968 18.06110454623216 21.406897576001906
Rb 13.625618944983616 20.558507042945386 25.974343890608377
Rb 20.50722133311692 18.330462339890442 20.071531574044055
Rb 17.996753016394937 20.206172266127876 10.409064061635753
Rb 20.989326353205577 21.539905346404538 23.71322463409762
Rb 16.921643483689227 19.899574416073595 22.78174110995847
Rb 11.485983081996208 21.373834116551777 17.537008429409283
Rb 25.84112617131747 20.10106157626191 15.015819212497535
Rb 25.10006193945913 22.58378227870544 24.80586870245094
Rb 17.101537258447774 15.529220791971458 9.437946620230193
Rb 13.421213437413194 18.744783017658598 9.767775748369646
Rb 18.525265114799584 23.259675902581513 14.113550219458231
Rb 21.791377099841103 17.393936958867645 8.344442380024423
Rb 24.087050346150328 16.39367126266222 17.375513811721802
Rb 21.810439808438595 13.651185613315242 20.60643393916937
Rb 12.63759818343042 14.60533156042091 12.370516651357953
Rb 21.436409607912555 26.26027436793379 25.311783707926903
Rb 19.36311083973276 14.910194050124646 0.3654308986150678
Rb 18.091644020073076 19.414765345359555 27.58959916112749
Rb 15.872474840140713 17.48703471251989 13.76551269778604
Rb 18.25034960177014 12.122690838064715 23.633040534042493
Rb 19.337658494399296 22.720384719982707 19.187711891181305
Rb 19.69158018723026 27.03477132116806 17.489449230195987
Rb 24.802000159044688 16.100281113128215 12.38517189519781
Rb 16.00953330220557 19.634329319483612 17.8721538561472
Rb 24.21590970242702 21.081100420724194 19.547444446988067
Rb 15.335432303362296 15.857339186287044 25.318524199470694
Rb 15.333055696013624 24.65871506230062 17.383158497921226
Rb 18.240586800216555 11.291476480213976 18.713337372525825
Rb 11.741168710517801 16.77349711658632 16.997985832331295
Rb 23.038363162002955 23.953783722572584 15.925209917277739
Rb 20.84877038851952 19.724749228660055 15.754067903755612
Rb 24.347556318678347 17.558455747209393 22.77857429390401
Rb 19.021155877950985 15.513836272344756 16.74611439763448
Rb 14.033770451241729 21.863226798213358 13.387561597007517
Rb 17.933665413007603 26.21387664426635 21.9302840657437
Rb 17.625149547821664 12.577921355166174 13.213022879185928
Rb 22.181945406255178 12.561222699896474 15.179735864347068
Rb 21.5688620685529 22.677806020833394 0.1372185724447977
Rb 21.46888882185239 12.942511238380286 10.157985512192319
Rb 17.235278551146312 23.785319534221355 25.912962693495064
Rb 19.883868555312024 16.603424043703843 24.22597216286292
