5
Energy = -1.86324554 eV
Rb 12.307081755298325 11.115640821404597 5.785660037484592
Rb 8.417711481348547 9.718272114600142 11.157865975734516
Rb 13.300958157971907 14.546400936246418 3.457410980583884
Rb -0.7353735078087685 0.6070409565010806 12.105739986233017
Rb 8.509887434202136 5.812910492259917 9.293588340975898
