53
Energy = -40.44994886 eV
Rb 21.137144778681737 16.72584421732885 12.919005560197084
Rb 17.588617036178285 15.591750541510486 9.905551114853797
Rb 20.070142737942753 19.979098491037227 9.575992224337496
Rb 15.166593218279084 19.621205426155047 10.91190293710459
Rb 12.864841874144915 15.259353025955944 11.126205838821921
Rb 17.48131693252711 24.100998820485042 10.873185811435627
Rb 19.458271606316874 13.05395864786671 15.80719924658381
Rb 24.59242284245613 19.677906178292005 11.438685230519141
Rb 22.088014958621933 23.7529384048943 12.518639939538955
Rb 11.77519471148872 18.341970794709837 14.704727184568707
Rb 14.159735338260827 23.017743952771863 14.377546142381156
Rb 19.45924235849052 17.560205390166242 17.32877855054007
Rb 16.176832094471138 16.408196836495808 14.249326027313106
Rb 18.549328924435006 20.83545063792613 14.02424977489732
Rb 23.70785994922379 15.445151784191832 16.918920253106243
Rb 12.34312714570271 13.577918862227106 15.691515459469723
Rb 18.49652236995602 25.410059632245645 15.450927884139798
Rb 15.871568436142667 11.909610969115379 12.823050198790606
Rb 26.520585122947065 23.038703124158815 14.48543910032942
Rb 15.926667736315116 14.688602645321186 18.83935034546016
Rb 23.027149457761134 20.32728550732125 15.893153912923704
Rb 10.982650373652586 21.72576321515473 18.04286976579843
Rb 20.35810123595576 9.932664681566461 19.259645175516784
Rb 0.11408392015323035 18.279911724729033 15.515024576552443
Rb 15.324156873708906 19.9196136353854 17.624480804774358
Rb 23.069188400841515 24.86505745026722 17.30876565441564
Rb 8.642453008050811 15.860866875651356 17.759955770440133
Rb 26.38760063209301 21.66423491691028 19.19755554323754
Rb 15.748921314961647 10.24214029383398 17.42135658359526
Rb 13.15483591676899 21.60591758337817 22.35469864622026
Rb 26.96159033817612 16.88017708670194 20.218404164323562
Rb 19.443669347882352 22.144374935990637 18.820550703456668
Rb 24.629200116303775 12.462744867880483 20.515910428727064
Rb 12.288552029438488 17.35184715626765 20.04368290101928
Rb 8.41455034513579 19.503914298664192 21.33413904706839
Rb 22.59627547107142 18.876592951852487 20.558761501186883
Rb 15.117962882733947 24.541852459416866 19.07031931010667
Rb 19.44959520523844 26.578646667768542 20.102587852304314
Rb 20.379148291967986 14.439663942837674 20.598913841610937
Rb 9.078182346978604 14.939527506852368 22.539867041968108
Rb 22.628324690119342 23.479841855958817 22.09667468408689
Rb 12.140832797827445 12.215309144390824 20.236107437821044
Rb 17.391330551188073 18.45267905686262 21.63966955726908
Rb 25.76583815575898 20.15109243902057 23.736898432283596
Rb 16.751752112413573 11.336695593497316 22.12888693660917
Rb 23.618946824367168 15.700617743688436 23.931237645900715
Rb 11.109181377177922 18.38814015095417 25.12284104739577
Rb 21.35656882368712 11.25233222918591 23.890413289553553
Rb 17.672481264878435 23.203561006028885 23.23834719515142
Rb 14.08202998192489 15.00641780843698 23.755344945561294
Rb 20.810695563437072 19.85434241697284 24.847796165367292
Rb 18.76162218566207 15.218308939463675 24.976571406441433
Rb 15.804301717578003 19.22690345199542 25.874077184666053
