6
Energy = -3.37209491 eV
Rb 11.266838242524623 15.148681375498635 9.947766384438468
Rb 14.708357653032142 11.74540926464566 9.510024453869478
Rb 11.827065687890189 11.815634820617317 13.165890892762478
Rb 16.217000883877645 10.530781131567545 14.010945541046054
Rb 10.741767157718677 16.08154831645872 14.68160442661952
Rb 13.753343522356069 13.19231823861174 17.198141448663744
