7
Energy = -4.10333922 eV
Rb 7.643220176385292 11.900123922784095 12.553955794161547
Rb 13.640764326740205 9.23044878000482 8.681678971271111
Rb 10.07157038388882 12.289289726951885 8.613848305578596
Rb 5.9555360850656065 9.629178612951172 8.778870931396458
Rb 9.808067120870367 7.806288210753077 11.179476064567657
Rb 7.158527950966871 5.104810817996396 8.250377571226775
Rb 9.895502460400595 8.213048432877091 6.1149808661163965
