7
Energy = -4.22174399 eV
Rb 12.03375080868984 9.733454718131004 12.94240028696336
Rb 12.82964569363052 12.0399144646128 8.841783735205365
Rb 10.988724381538606 7.5912849179587445 8.684990636440453
Rb 8.056478151050685 7.133339680746206 12.382836510194622
Rb 8.349928684268175 11.719965153185818 10.657391058486224
Rb 6.1274007132529 8.308405823612143 8.193106595578797
Rb 9.222586355338306 11.082150029522044 5.906005964900616
