7
Energy = -4.15210122 eV
Rb 10.49738319802159 6.950871075383046 0.6445307058819691
Rb 6.211439903475537 10.35934767338727 7.92851036257711
Rb 9.024403844018332 10.92792469848484 11.669762226681732
Rb 7.635032749521237 8.893961211723099 3.699296689942195
Rb 10.247456929753636 6.690469948581942 12.979667791791156
Rb 9.902138419581703 7.625337472362855 8.057481403399061
Rb 7.374323899879629 9.444266864328739 15.91292976397883
