8
Energy = -4.95650214 eV
Rb 9.603283350960075 6.400066436555841 7.975347848789746
Rb 7.801864634031883 11.011565637848188 11.021621075010035
Rb 9.53208254710774 8.11920405522211 3.883838147971268
Rb 9.059604510948507 6.3355965567763 12.510323315527717
Rb 10.587538016721632 11.589134553519798 7.219683080667372
Rb 12.328547376178076 9.35246930109977 10.894112447616317
Rb 6.107976413099652 10.234436075027885 6.678723124108889
Rb 5.134144006449574 7.112567383949985 9.971390104811649
