9
Energy = -5.49104524 eV
Rb 13.708460425101997 11.465855837050777 13.582768194649898
Rb 11.141251359518053 8.90346102480163 16.674512290038127
Rb 13.21745261148542 11.467716000157363 8.82715909480763
Rb 11.056601542516605 8.25857752512853 11.503253757622556
Rb 8.738084021107156 11.898060267033962 13.987704165247301
Rb 8.250246508525924 11.673068660461498 9.248649519890142
Rb 15.353888474072589 15.134644329044951 11.010860642297262
Rb 10.643937440967836 15.151940177373483 11.265338630247188
Rb 10.395144187120664 8.551742749363706 6.404820275615812
