9
Energy = -5.50343606 eV
Rb 12.474716151350204 14.342391105744895 9.779408413050517
Rb 15.51024470261268 10.57114047246909 9.989788603750386
Rb 11.423723967812062 10.34373883441819 12.073014880371694
Rb 17.166400612895472 14.970616840463306 10.724888925352923
Rb 9.606250483003203 14.32102835610749 13.326888265804707
Rb 13.787491427396386 16.53038139745281 13.638373308918545
Rb 15.398586136650476 12.03068459283189 14.261801292463282
Rb 9.365493736336028 10.443643011264204 16.31090054526898
Rb 12.520634010971046 13.699916618275683 17.14847699404625
