26
Energy = -53.39746453 eV
Ag 12.4448781603399 13.502904347759406 9.385715897855972
Ag 10.946048681647905 9.444878212988638 7.211869965412363
Ag 12.873134650680765 10.848044992930745 8.66873777338984
Ag 15.204407208055832 12.296440043141144 8.83765755760118
Ag 11.202010151266135 11.414870129682901 11.10616993450042
Ag 10.172458692683753 11.79185199015755 8.57055814853039
Ag 13.486170508359521 8.19951677695364 8.195544637001053
Ag 9.846736829827162 13.864339410054962 10.46446120255959
Ag 8.626664060892244 9.473040068010304 8.891650838444273
Ag 9.699966760618475 15.479406580702282 12.710746189693168
Ag 12.156389723158616 14.011401216552743 12.156898359544018
Ag 15.120286653935967 9.749132764464191 9.977256575084365
Ag 7.905184106529162 11.779109329582408 10.32524267929749
Ag 13.983024713662484 12.01040329660092 11.280467131360545
Ag 7.5156545524922205 13.848399655474163 12.210400840695923
Ag 11.185299241257619 8.755165231007137 9.862653756759729
Ag 13.651921671427772 7.646730683866483 10.91922886848238
Ag 5.545526131975414 12.018845056519831 11.706264192011432
Ag 14.443779602372503 9.60726653712555 12.741253931893597
Ag 9.104458022903964 9.593888466210828 11.677249238315389
Ag 9.848824482963403 12.768616455103404 13.293770597390836
Ag 12.469852786821983 11.529672835752532 13.604048300380898
Ag 7.532382052784897 11.221918667177336 13.444513417401494
Ag 11.726942344223636 8.922674653393155 12.520286909072036
Ag 9.971428809797473 10.208725007719043 14.33666885917512
Ag 12.525413565191224 9.201601756938961 15.089528364016356
