38
Energy = -81.30822456 eV
Ag 16.258812265314006 15.27426382965851 10.251272833708656
Ag 14.823783297343313 13.279233363263074 8.738584820803622
Ag 15.392382334713043 12.925638121145973 11.46310617067393
Ag 14.105009098514222 10.860354366636692 9.86442279129483
Ag 13.147813449750668 11.39760621900922 7.2825907373922645
Ag 15.236652295117633 15.441101531685149 12.870526148427404
Ag 13.526426761386755 14.969039064800418 10.649949345341502
Ag 14.478793882723782 10.60573592374937 12.648641144364255
Ag 11.39433981125106 9.580270301472893 5.941262337977115
Ag 12.707464093914808 8.824984297005193 8.28459250979281
Ag 12.018499872168679 13.322398001705071 8.931945279228561
Ag 12.421188231634412 12.472788975186807 11.747913702835678
Ag 14.054793121250473 13.159544540113632 13.984988630108187
Ag 13.457693491892337 8.332580160923866 10.986574080592163
Ag 13.635736701923587 8.301262886740497 13.933949535255971
Ag 9.64330280988219 9.140469222026395 8.050571161528532
Ag 10.31380508574962 11.779561348233631 7.309810358487803
Ag 12.353326638236839 15.253103695547942 13.212165225607158
Ag 10.725440269210639 14.752048135878614 10.945069733146974
Ag 11.663428214116646 9.766187554063386 12.696796274124676
Ag 9.27755764153018 13.979861948208057 8.725808992022836
Ag 11.165356101213773 10.57149784204304 9.955465759718816
Ag 11.626657883108287 6.834103181733261 12.615403102663306
Ag 11.199059861921226 13.019614928521273 14.41865385626756
Ag 10.934501850799924 7.5574657055931205 10.01253811361778
Ag 9.72979415060459 11.639174327484897 12.16517748507507
Ag 12.917744387931608 10.824961845579113 15.019191037218226
Ag 8.381978811219708 11.50097311976699 9.39188844176299
Ag 10.101976179858044 10.579104015680059 15.004417732796282
Ag 9.537393158504512 14.998980874232144 13.412087474239618
Ag 8.675036725205196 9.097393421161447 10.681062863690224
Ag 9.428028770414665 8.265603482066053 13.676948483933192
Ag 8.072210081001348 13.706624496797561 11.299450814705635
Ag 8.102970714331487 12.750646812083238 14.123004099583932
Ag 6.980572916381395 11.106985010505731 11.864112016171646
Ag 8.948258234235531 6.493057053587175 11.640008874144229
Ag 7.4632747600932285 10.093362809681128 14.424863861046207
Ag 6.781744010555407 8.225225551433391 12.457992135655813
