9
Energy = -15.25876313 eV
Ag 10.679150680754237 9.183832814410627 7.888648186554947
Ag 10.416150769247013 7.047867452441911 9.581272353752684
Ag 9.631363461490576 11.423654857755448 6.685485229648933
Ag 10.80495058089701 9.647807385225843 10.654859075888119
Ag 8.773661901414002 10.854467270851824 9.304527100739167
Ag 8.173375525358793 8.987212144099235 11.228527828952702
Ag 7.193490444403618 10.187842561865116 7.157563569459458
Ag 8.107295410887355 8.096055932710277 8.56447734160759
Ag 7.958928221284847 6.287922018313402 10.631402103841673
