26
Energy = -53.22975386 eV
Ag 13.54798536865377 11.78269455135523 6.973105642162219
Ag 15.94900657206408 10.193945993130074 11.739593267868754
Ag 14.67667677533423 10.714606603148122 9.311458882160487
Ag 14.00168381541782 12.252667332622476 11.806136072043541
Ag 13.121574105079562 13.048870586049667 9.409988695145655
Ag 11.619618149583387 14.061072547768799 11.490696986169494
Ag 11.032045218582606 12.919049861186476 7.700632157607982
Ag 14.12843950741096 10.446147656332048 13.894589883681158
Ag 9.221940288696818 13.00160711368879 9.994881769834619
Ag 12.029157419630979 12.380861500580036 13.82017636021372
Ag 11.850830624445566 10.407637258982078 8.757849513414229
Ag 13.255460669960424 9.515030656012156 11.374757523980268
Ag 9.35539559189302 13.10862612224687 12.88628100957503
Ag 11.099307558546176 11.406626835543465 11.284699655266138
Ag 9.016227550809043 11.126294861666224 7.812912101002165
Ag 12.244206283261779 7.737126609205029 9.526138864078812
Ag 7.113845272053731 12.031507355668237 14.406488272662724
Ag 9.741415427333338 11.501687012587809 15.176736917992866
Ag 12.105220800286784 7.109835173725563 12.309994541262547
Ag 6.711486356665948 12.239459572080339 8.90163868861226
Ag 9.703297024060134 8.499594639395353 8.50367063022056
Ag 8.694872507061962 10.318335639478613 12.8944626207325
Ag 6.931027684138583 12.295656438124775 11.674333472418649
Ag 8.082018316795114 10.185316221001 10.206383787606315
Ag 11.388049293498637 9.65805347652387 13.59506491726058
Ag 10.233383659578378 8.73217581311777 11.182055459361651
