54
Energy = -118.24769412 eV
Ag 14.570912529528023 9.749873758955026 17.147483470247415
Ag 12.381157294147911 13.585649157792714 8.991016076767313
Ag 9.094792503599665 16.411277567426215 14.87602765360359
Ag 17.556434815412157 14.905026296457562 13.228610233027467
Ag 13.973101576615726 17.32613979060449 11.664112107607348
Ag 10.264504051358548 12.12951321758956 7.990191298365054
Ag 16.700989539656078 13.766990971528116 10.784019608116683
Ag 12.685023758266064 9.585113355151055 14.995094760924925
Ag 14.048611399653034 10.345181685082128 12.505719019308637
Ag 15.868736766347864 12.668848089058983 13.39210973969191
Ag 12.870359861384328 10.98868915927347 7.671093401291079
Ag 17.502954035072452 10.34914830778905 13.530394010149552
Ag 16.05384504913187 8.440121706233887 11.914622653141452
Ag 7.739840465886842 13.278305040044124 11.62728331298478
Ag 13.319516361366379 14.343795103870509 16.420949577528933
Ag 13.968267787764203 16.979515844567672 15.674513014622764
Ag 15.971654167730879 14.914608966977466 15.532744857091894
Ag 13.902538510094272 19.116696281618598 13.838355853361357
Ag 15.291566688885766 12.323224735524922 16.33082231231136
Ag 8.017469052260282 10.545600239053789 8.055128701789931
Ag 12.07684034011615 8.227386021345952 10.56079265077854
Ag 11.335749726158964 14.583219696654798 14.28387791552588
Ag 11.345918239356832 16.37960311849934 16.49995308907558
Ag 12.065127856539297 15.234491137738996 11.372693959829176
Ag 12.045891991470034 18.98960952703354 15.90671197336789
Ag 11.108831640916131 9.870575988320283 12.666228133863292
Ag 14.504053825982652 15.197953678886545 9.872227439896943
Ag 14.943857854235494 12.332517050005208 9.013432249128337
Ag 14.403470570702671 6.742850781672437 10.509546139527448
Ag 8.208651304718611 11.608830444574753 16.153828477161667
Ag 10.49922809529862 9.410274132832438 8.60719202581228
Ag 12.553033381429588 11.689997494782219 16.945748665161254
Ag 9.165353784399036 11.078842816538394 10.515011602690741
Ag 13.164513749354851 12.403214509885746 14.210247176963858
Ag 10.625312514071409 11.541620568116551 14.920954274723695
Ag 14.475834929647995 9.495313560385869 9.607820119224488
Ag 9.494975406917854 15.47494199247326 12.288433327756156
Ag 11.789968774280775 17.243180039246734 13.616159360112816
Ag 15.401846543247306 8.831755146066389 14.642416663034341
Ag 17.90549892708908 12.819475159245243 15.197683436337302
Ag 13.834567598972825 12.978789945870703 11.494479864935693
Ag 8.503956683036588 11.053225757394145 13.227326870733696
Ag 16.406859483412205 11.0596148715759 11.04263146475568
Ag 16.664795362531205 16.548856333230866 11.037349929615411
Ag 9.780222836547283 14.08942222129074 9.870964828075945
Ag 12.125781079676637 11.018784861737657 10.291170577466671
Ag 10.350960989980157 13.684212309867103 16.72531016382789
Ag 14.058099334873274 15.06903223047043 13.460038735741534
Ag 13.404386524994793 7.701128723716632 12.973773169564037
Ag 8.593732726388417 13.659372068050997 14.384256133602562
Ag 17.217943264671604 10.316940467679887 16.289799759573704
Ag 6.9061309157464725 15.505469568764168 13.18772057665488
Ag 10.785974252045229 12.73085301108003 12.215332443672507
Ag 15.957974433948033 17.186316381228 13.697101238142311
