10
Energy = -51.61167415 eV
P 7.1811331081790595 11.188827261228898 8.981846779546789
P 9.216820299298458 12.126477396927479 9.13881933837366
P 8.676863798759326 8.109467386585694 8.42060085884932
P 7.807721775099476 12.329074136612375 10.814523916970359
P 10.786058021388975 8.792453832031184 7.937082356932901
P 9.38253591237892 10.732618972967295 10.891745644341897
P 11.631583717416586 7.89747089145144 9.816861881499852
P 7.822992966845488 9.31759049440425 10.057725262271932
P 9.81526600097522 6.586730052003674 9.62788956522088
P 11.396884643918868 6.637149820048491 8.03076464025305
