10
Energy = -51.60254106 eV
P 8.60110133385881 9.215493753329335 6.40624244178152
P 7.052320148634357 10.520531624927886 6.573517845248523
P 8.948797337955048 11.028602910988667 7.629840460355779
P 11.08295321025735 7.8287334458217925 9.783069414532694
P 8.927463672647672 8.11582874109298 9.502183037679702
P 8.402816516806846 10.23748381138859 9.684438558929733
P 10.061266460826003 11.067911946845356 10.847936127143955
P 9.630541430639296 7.586718037873462 11.497652283505161
P 10.430817551645132 9.58098667908826 12.400521772347199
P 11.842519266116174 9.798305978030227 10.65519498786256
