10
Energy = -51.65751712 eV
P 11.055839785321323 9.693424473081917 9.295233485906184
P 7.7582829571096195 9.196226338271204 8.630830120996505
P 9.249857767847274 10.858756222747257 8.710897292316693
P 12.675854571194762 11.284533443967517 9.033236920981837
P 8.29991680705664 7.698835326023623 10.179882219121339
P 9.913909994067442 10.820310926579529 10.798917008617856
P 12.578359599341637 12.178379182225425 11.070999772595455
P 6.744867914733481 9.222008970033597 10.620037701351329
P 13.911126740567507 10.66751905268181 10.754695547726563
P 8.65889766115801 9.226919862785532 11.752183728783654
