10
Energy = -49.05855079 eV
P 8.791858706395347 9.87114649590177 12.264864858249611
P 8.77749233359412 9.082821256283637 10.304904019402821
P 11.11142575111063 9.476252221667478 8.041522264898012
P 9.302553363481026 10.653018923040127 8.8668230402432
P 9.888428036244818 11.674638369079029 11.85625580797082
P 9.341427062097969 6.896975021525712 7.882348277731106
P 9.749674616181913 12.455881605519817 9.845157042911309
P 10.106203744301537 8.237965643030616 6.484814237350947
P 10.514890083735951 7.881913355224015 9.47475025050846
P 10.875856816032394 12.58094641038345 13.30423300588918
