10
Energy = -48.74241698 eV
P 9.264778155194897 6.008155889970761 9.735452404846406
P 8.52194311864825 6.906999197255769 11.353737118186057
P 9.310529087992233 7.658897531762641 8.216713343578775
P 11.056302101689234 7.486182309108748 6.9241635541479205
P 11.375246119380785 9.53667226891195 7.164574129217828
P 10.238620603746895 9.49066286762145 9.036467378103335
P 7.151279470382473 10.172528808442417 7.584787018877819
P 5.774300229133691 10.128884641407922 9.207605408198361
P 8.636556532655321 11.02635256087963 8.985617162256188
P 7.408361503426554 10.127320509759214 10.576322693002219
