10
Energy = -50.45007429 eV
P 10.254814456022055 8.59806029118386 10.755433217934462
P 8.840396331874599 8.320778309291518 7.747194408790118
P 10.158731069301705 11.263248549876328 8.281803278629571
P 7.371628758152335 9.457309078053957 12.559928075301542
P 8.99140932859401 9.713696508968802 9.378757880009298
P 7.6396558830245915 10.83590336169366 10.919789865544011
P 12.138118432789339 10.330391198293306 8.406502802456119
P 10.324705634263676 9.564874033745983 6.826769733873221
P 9.253475878234505 10.351514875403137 12.371911467108626
P 12.19183131395221 8.861257104825269 9.920428345362257
