10
Energy = -51.59812618 eV
P 8.40384717038559 11.301324553866456 12.178770594218438
P 8.258754196865542 9.508957652981982 10.874037632121086
P 10.521356367929226 9.533960545841293 10.919759725197325
P 10.468632657246316 11.450122070208979 11.987456905795197
P 7.7466508387915365 8.631231689820655 7.732420431199617
P 9.059996659046508 6.925101273487136 8.318124580272636
P 8.475178767256907 10.415067441602604 8.796394991620259
P 10.689737813313299 10.139352231667068 8.763615933021025
P 9.391749179180714 7.960545492398074 6.387709400417517
P 10.931422191004168 8.081662889146099 7.989035647156975
