10
Energy = -50.97304557 eV
P 12.625927561360076 10.388295948081527 9.568028269444511
P 9.888266551598543 9.655392353150269 7.877510473884802
P 6.603133408219582 8.244061418632596 10.293269251046283
P 6.709001644226217 8.271609677916661 8.228967431839825
P 10.188375106873778 8.02083560584963 9.412949168804861
P 7.783163683062006 10.21266953931479 8.211106037510655
P 9.74454549746434 9.59504438800861 10.978645035248649
P 10.51610127369161 11.113617263471468 9.488374921001702
P 7.680961785970716 10.1781613951498 10.476416413113805
P 12.388724376221246 8.34186072885174 9.52088897136847
