10
Energy = -51.44597693 eV
P 8.984921818386752 7.3040059948689136 8.14716756006274
P 7.031509181872208 8.10797198484959 8.802144541128277
P 9.07911708842623 8.696116271257479 6.197160493599183
P 6.919395282379287 8.732208856220476 6.4066618904820025
P 8.239329043080039 6.91996603396258 10.781134772365437
P 7.133612842804413 10.85037317247424 7.192141506707405
P 9.148571970385706 5.418107905278738 9.517217013165848
P 7.829405613422922 10.160406591320392 9.204476087750209
P 10.247641756248045 7.275703907697111 9.984813775780177
P 9.321253314635062 10.490319030757282 7.561181826471531
