10
Energy = -50.2102643 eV
P 11.167839264116756 8.358829932328527 9.178693951966158
P 10.546206357537027 9.254396723277882 11.323166346139514
P 10.733843665961318 11.380190807355866 11.453995750994231
P 10.218447642908297 11.700902571335044 9.36985980330111
P 9.44725954508921 9.762080027690706 8.820836176257915
P 8.364847308324206 9.155793131264646 10.637727206646776
P 8.262427847397337 12.306036900556016 8.3710262853803
P 10.106327372332917 6.504930672866147 9.443043849663724
P 8.1683859741618 10.641636182194862 7.165021463119667
P 8.269054579967786 6.996134110321411 10.317036205538118
