10
Energy = -51.52887738 eV
P 12.360886123656487 11.606840748842778 7.45506514568454
P 12.647329852828179 11.40046682906391 9.635712567676864
P 11.765100651397518 9.746778239358214 8.48954093291882
P 9.983358820649865 7.7766092932354365 10.45473460651658
P 10.619891703149587 11.59861962973251 8.802740875918353
P 8.3473091789833 7.701786725912812 8.911764540915373
P 9.28216929540644 8.9639247661052 11.935909465553536
P 6.445794953618368 7.931819409531542 10.053242210008612
P 7.3315318505968765 9.67867772601531 9.033036389729578
P 7.247430374261473 9.62527943675024 11.25905606962556
