11
Energy = -56.01902157 eV
P 7.543771828984693 10.038148533834335 10.346986625142158
P 6.287267518536409 9.801710583554716 7.234635722293276
P 9.568097394921512 7.518955399346598 10.675291893442232
P 7.613069361490848 7.818672567093785 9.738886361490495
P 8.161757976253034 8.80972927493101 7.831993576089267
P 10.84553973803884 6.9077770082274865 7.151561919702438
P 11.293244991887411 7.328201098408988 9.197987874122777
P 10.705353057893767 9.350392170132297 10.064541426371552
P 9.095019667078038 7.682053220311148 6.265634228427309
P 9.251198706426294 10.449362122900936 8.856757804471924
P 5.847824141589324 10.664894823796669 9.089686870328693
