11
Energy = -56.62832823 eV
P 11.226527777197825 9.080972972725384 8.638169551324978
P 11.232991231412287 7.745521569915823 10.367004981462118
P 10.539309847281332 9.927352604908904 10.543514888780434
P 9.676272666352654 8.224785444106287 7.305867630426643
P 9.057038735841925 7.032226105456257 10.578920187014653
P 8.769442964460673 10.159705578774158 6.652891850885089
P 8.530443059659964 9.127878794008458 11.23800421893619
P 8.057046144665517 7.368205203130258 8.56201292669162
P 7.017095690085457 9.06016752534079 9.57856992200562
P 6.688633515943635 9.563542905260705 6.417520450913785
P 7.250032093393016 10.754475022667016 8.162357117853407
