11
Energy = -54.97357821 eV
P 9.250177348263227 9.993076682217461 11.47356694009744
P 11.773129156904584 11.463782059951356 10.048441250187034
P 10.741905323549076 8.516331360444138 6.902412224783238
P 9.0750841061021 8.928683013566275 5.888611480458147
P 10.159169529439703 8.443228866979208 9.054184241266205
P 8.751892590389183 10.17242181801353 9.338426894610883
P 12.073351359596565 9.26391098127208 9.838231005830673
P 8.176579597506727 11.335860168110498 12.781467074491673
P 7.938826589207766 9.283532048070532 13.02292319332644
P 9.873879265712393 11.993814276243807 9.145244776033216
P 11.42714684004872 10.066192178426352 11.811321469362221
