11
Energy = -56.90007884 eV
P 10.434263413531324 8.383574990268254 11.558530332914824
P 7.422382256677231 9.156201901427147 9.726120266954837
P 11.905012867524231 6.743993629659172 11.573243869643873
P 12.585770725347547 8.838356665072405 11.490481657748917
P 8.276139375695582 11.0683709096331 10.356750609401141
P 6.578193486586666 11.087686227493455 8.965546715958522
P 11.600860602345172 7.935373119758813 9.743527578199751
P 7.525581399554619 10.670619831731608 6.894796001273627
P 10.097298726902013 11.37322506769968 9.222481257835936
P 8.38283171214506 8.745364580555458 7.65420791648426
P 9.673750435476686 10.479318078487172 7.296398795370302
