11
Energy = -56.88804186 eV
P 11.765428575613646 12.974959578826814 11.329811018110723
P 12.353972055543514 10.928589854604638 10.92909265580219
P 10.570133273787137 12.840217926052404 13.12926262056698
P 11.325312094503557 11.168768308423976 14.333370005923104
P 12.519866436018875 9.86126297220935 12.838284751861393
P 10.698487745375273 9.638948405404202 11.553711451927157
P 9.494860307433838 10.93116021466209 13.06717392117312
P 10.763693596957614 9.154504909173909 7.514389138721769
P 9.282413937716068 10.608724378376955 8.240877156648137
P 9.294612811016878 10.019204254335218 6.117833115603329
P 8.642244001330257 8.584684033227406 7.657218998958752
