11
Energy = -56.85358638 eV
P 11.98743317581002 9.653345440643028 9.835521742356201
P 11.14533611925259 11.623202469674693 10.513062184982239
P 9.646228659668784 7.952660234916479 8.158003543858563
P 10.614850252955438 9.916088950824165 8.113969855156851
P 9.273591586474895 11.3475921394236 9.178626004661908
P 7.812851543879373 8.41266064297171 6.905759728959004
P 10.66939636550552 9.742724949106899 11.644502486716908
P 8.351549352993242 7.991478170987554 10.044481714043835
P 8.618789872709616 10.014001497521711 10.84712004774407
P 6.528618550393516 8.341069821813809 8.738653064647378
P 6.888568908138393 6.542390069898401 7.557514014654699
