11
Energy = -56.85280878 eV
P 12.741122877860569 7.542377167153245 11.81721933641339
P 11.912378854655852 9.48616440219295 11.185124095650401
P 10.726071312709498 7.6542462030736 10.934752226048726
P 11.08395606464717 8.466685106101927 12.94457221559624
P 10.321300412823373 9.850539617111574 7.952760567767918
P 8.341026207319885 8.87513319968917 8.159456894144615
P 8.753101154576287 10.835409635743996 10.885621818271808
P 9.48273214952408 11.90102640214779 7.783193000787288
P 7.885712059296996 12.124764475032704 9.346474612125213
P 8.717632555177975 10.27715055080368 6.472770260070566
P 7.134890345369311 10.08642723490995 9.61797896708442
