11
Energy = -56.66495612 eV
P 12.305238711164177 10.735237747841644 7.669851008111787
P 10.519646617285801 11.979261490755805 7.2880435554560705
P 11.090916059333532 11.476320919202266 9.383580755551872
P 10.528789225719322 9.848999322610126 6.607939762384385
P 9.446429076028938 9.232851282214286 13.172273764429583
P 7.7559779092572985 10.562046332820312 10.310756801764452
P 9.682062309541807 9.802010639795968 9.745080455067992
P 9.489317306763652 8.563399623785918 8.003899862548192
P 7.481355465848992 9.33880602423594 12.075252804479971
P 10.582053496808237 8.592655557425871 11.369757877705457
P 8.745325038409478 7.495522275474212 12.000674568661749
