11
Energy = -56.9354966 eV
P 12.857803481726158 10.302793101309897 9.628863007328746
P 11.446244032688659 8.624890534420349 9.992305112629214
P 10.175949993605984 8.67687602215726 8.205710645890711
P 11.953994184797061 11.487546127009827 11.05825823694801
P 10.402667943292125 9.948246908478476 11.500139201610555
P 9.291754442028742 10.694998809783193 8.314076701182783
P 8.649744813431827 10.719020567837838 10.426414091940659
P 8.659814906490844 7.399313860667077 9.218592377517849
P 7.333138290108639 10.167911139475464 7.4827591381229865
P 7.657170093415465 8.740568397921718 10.677475756389379
P 6.738839124679783 8.404955837204186 8.662527036704535
