11
Energy = -57.06364187 eV
P 8.37309809478633 11.326363060483507 7.59494961184265
P 9.484367030095388 9.79614060557592 6.505311176490824
P 8.83567126896949 10.450023462316565 9.500387952192822
P 11.034005790526233 10.29450138467767 9.587963786751406
P 8.226860494583743 11.150786982878767 11.437060587288885
P 9.38894629646819 7.811771573130532 7.640143959145011
P 11.242138623670686 9.057299568859253 7.775804875405518
P 8.135701083642628 8.364504881026052 9.366841078171118
P 9.237550497768881 9.511073859677394 12.461074691801487
P 9.232250419184986 7.642527631646497 11.136614082357891
P 11.092086838073554 8.877683427497814 11.276524636322357
