11
Energy = -56.9086687 eV
P 11.076726686200395 7.903114452668512 6.101312648791022
P 11.636107184675556 9.123452875736284 7.836151163060441
P 10.0832553925653 9.87259620514665 6.480476923135719
P 10.673073676342941 8.257688178147658 9.572031709543877
P 9.141502775330954 6.804555504063955 6.763584815597293
P 8.790360201084672 7.502721107690724 8.811640887230961
P 8.607529043318625 10.461373371208348 11.570342594824545
P 8.15335425566562 8.778414873623188 7.1460825094331835
P 7.0991669709756025 8.888808666822497 11.877182461344429
P 6.697906758998859 10.536929171169778 10.478165129419656
P 6.736578654889555 10.920728740876365 12.647185717075265
