11
Energy = -57.01904395 eV
P 10.05696163953318 7.580244985023438 11.389207133764664
P 10.733821498212215 9.269875658262471 8.580739793015837
P 9.053915387808015 6.470336378513757 9.84852490482453
P 9.843445031570445 7.347424917535358 7.898933495586129
P 9.92982031913413 9.625363486707242 10.601170271712752
P 9.680462614474925 10.86412717624259 7.426090268842607
P 7.762958466698711 9.71127430177229 10.208447910732032
P 7.770160668038841 7.823992907390276 7.148752891731805
P 7.800514659834801 9.98233630285156 6.619931382892584
P 7.227839609785074 7.7337554148274545 9.335458091819506
P 7.706603628503229 11.157771994466877 8.509247378671123
