12
Energy = -62.41725863 eV
P 7.955702355669405 12.769142086384067 10.515494364179895
P 8.172898953504438 11.130212750372955 9.015134819696486
P 9.111611436298766 13.119699466249232 8.64568726761544
P 10.157282417054995 13.090202400127723 10.613029728380871
P 9.895524387842302 10.019732612915613 9.88009265367536
P 11.246662660846049 11.223609434696874 10.933996450919254
P 10.791719599406488 8.944598491542331 8.127138334402124
P 8.900165870805154 8.39535484598961 11.07096794611898
P 9.732913414403837 7.073660266482886 7.821851786841897
P 11.61985712919749 7.154113375775722 9.048807196152541
P 8.47680906715492 6.717607705890637 9.759271596087993
P 10.361607213769883 6.784821069525662 10.991282361882885
