12
Energy = -61.33192838 eV
P 11.678391808139992 8.204217769376175 9.408929020569103
P 7.561032310588913 8.827087484859337 8.172976951232497
P 10.8132456527995 11.059881374792225 10.540266069345714
P 9.240838869640534 7.770438809229537 7.531101589823113
P 10.571661067295526 8.982827297977298 11.166725214029766
P 7.876276366683531 10.914060984468485 8.64023082469977
P 7.210016139740363 10.35334578027218 10.788476965594844
P 10.856445651352065 9.248008360337284 7.533697344219543
P 10.122180258020773 11.195945635558848 8.43544230723183
P 6.798425140710941 8.209381842579162 10.189852912628687
P 8.392476013532688 8.67498286507135 11.635812479475085
P 12.619237389753273 10.193060194742886 9.570186998818444
