12
Energy = -58.08483885 eV
P 11.97983934009442 7.598479438423079 8.803319116302983
P 10.800831300268504 12.844064734287869 10.992674050002378
P 8.721929551103333 6.004319782974624 8.335627899851
P 10.493278399483737 10.204222644261833 10.538580684107204
P 9.887141252937223 7.1847161468892144 9.37249064761437
P 11.92597431326196 13.78438955874158 12.25395506122914
P 9.863863314448063 13.044072122544181 9.121220820318156
P 9.51586048780117 8.39883806003358 11.258081815831703
P 9.242119068026708 10.947030841128397 8.887667487584766
P 7.364169194012656 8.980993404115853 10.971261923230912
P 12.296502550458746 9.543064892761661 9.348985447999441
P 7.245809268822457 10.620300769623194 9.756406110789666
