12
Energy = -60.50167228 eV
P 8.509380600133769 11.65775979039486 9.505332109635033
P 8.620146224977347 10.802725580489515 11.613914994843077
P 8.48438671169883 9.588964969856745 8.458205227169993
P 10.29184487335435 11.960788468825108 10.76163736100427
P 10.35556363730883 8.47552418005488 9.145503202687207
P 7.519657452614307 7.253658296001969 11.330755207546865
P 12.159332698113225 10.953073497200364 10.009463693719882
P 9.529645867970483 6.526554403559273 8.513661118280696
P 13.048918646230762 12.977865956362114 9.59481672111068
P 12.150624238072751 11.986055967645603 8.062869447488731
P 8.68016575023383 8.833534915088661 10.526028026897848
P 7.959416058413716 5.920653747381366 9.755319916159408
