12
Energy = -60.60484523 eV
P 8.247645072566534 10.306649376565394 7.502027676114252
P 12.91895924381903 10.432192994962113 10.987982662292895
P 11.529009839501153 12.125988776123862 11.355467427863658
P 10.368455289163263 11.192122292616355 9.90154209523382
P 11.081065142494534 8.019825780683117 11.070307943238575
P 7.648075962596092 8.573376615714567 10.237105405305856
P 6.443893883120626 9.764213295916743 8.767393477928124
P 12.19310578203642 9.01931131809018 12.511384166096427
P 11.608186737444502 9.421223470829675 9.41742490454772
P 9.005816982140194 8.40066997010283 8.460205740598985
P 9.109176112559412 12.073437050633375 8.51034681905407
P 6.9072449415792905 7.600238484207817 8.39967649404423
