12
Energy = -62.59483399 eV
P 6.335141784596413 10.420611405571329 9.697231840435627
P 7.51782937699269 9.337455957512525 11.280928038313462
P 8.151491813185878 11.730935411084532 9.475673612553095
P 7.063311939246567 11.539487887832811 11.430702509997122
P 9.35368820569979 9.948812884829525 10.158519117310503
P 11.136217283252916 7.391504505314934 10.3453716394639
P 10.088879021911785 8.421862484269852 8.779956470472714
P 11.571791941653034 9.888810027509438 7.841213178309135
P 12.414992674977313 8.959746197938461 11.0916754520481
P 13.29772985298377 9.866662391022054 9.17042810269151
P 11.069170864507946 10.73079616953833 11.262129940761035
P 11.82101517178452 11.584574608368966 9.28743002843641
