12
Energy = -62.48621835 eV
P 9.93436514167816 11.358846148933116 10.083774145700982
P 8.95730043613783 10.0141999299777 11.578699318503313
P 11.120183371980218 9.884603538989197 8.974210094295954
P 12.194651838918082 8.868141709808677 10.697236017106038
P 10.589306484554541 8.606581007364495 12.210523951157526
P 7.883290379956085 10.951595620271696 9.156051320078328
P 10.785825877688296 7.111155634110969 10.585987867091218
P 8.072613855168058 10.704460769496462 6.9182001149557495
P 7.919128683326657 8.86819952513518 9.98629406397064
P 9.690270524995436 8.182755550366696 8.876680436464342
P 6.560090660318347 9.141827898389336 6.676874875717351
P 8.540889242654213 8.555549164532001 6.503384292334627
