12
Energy = -62.58699097 eV
P 10.84962727011026 10.591114717924405 8.47297928013243
P 8.091464369747012 7.8288524366325225 12.212801623715087
P 11.849802912313214 11.637936955032542 11.321671492260462
P 12.789385877214544 11.250293741609509 9.30392251191353
P 12.623883117850244 13.217341701592627 8.208870648645593
P 10.579721833661702 12.53606838820262 7.358005520278763
P 10.72693505723671 14.052837094426176 8.941286509117868
P 10.030078952633012 6.86581546167007 11.814754733007526
P 8.698422857197455 6.054585274224 13.37107916159547
P 10.234457579844502 13.057676168317785 10.870516419314809
P 9.820799240552416 10.938570509656948 10.451502968938653
P 9.71872505819907 7.982211677270334 13.685913257639807
