13
Energy = -65.83878334 eV
P 10.809064729877395 8.411984265734487 11.253159241797738
P 11.939684809709295 10.612474235034544 8.954688085060567
P 10.632536307053558 10.63073428056042 10.681876884606012
P 10.920753407342668 6.9535655310071425 9.6204231313586
P 10.784422824559849 9.636946082481277 7.376077019061535
P 9.212626897684865 6.894662029751767 11.122987493642231
P 9.614087807703392 7.817329735769886 7.971175044097117
P 8.032752462685586 7.922493294650054 9.534702138126594
P 9.260973998145763 11.286385971737648 7.329120935973954
P 9.274136401808555 12.014756302189522 9.452753777663183
P 5.985716434791758 7.78918766833103 9.113530500181822
P 6.804909474829732 9.58461303799492 10.09500852293905
P 7.431526683109468 11.177646522018499 8.577633030494875
