13
Energy = -66.33189536 eV
P 8.031917914421161 8.74427674739817 7.878136520963035
P 7.857367130448309 8.701142431712967 10.056999076438352
P 7.995705467573383 11.85014688465808 9.404693270577443
P 8.837036113463853 7.070757155834276 9.020971405133178
P 9.454453511296116 10.130970543270568 9.145190482037881
P 8.396651880762576 12.240341795557605 11.551497630983816
P 9.107800354169255 13.689961252483712 10.048468758036718
P 10.97394196771498 8.133758396077184 9.389474443203298
P 11.536018066280683 8.354092793362362 11.503716048598553
P 12.262281208830284 6.633477771631855 10.354771122236794
P 10.617410086240344 12.53746203414085 11.215067466624856
P 11.411699337707889 11.368223689034725 9.518153032968655
P 12.655175199704928 9.644651090190568 10.013016346142196
