13
Energy = -68.13124892 eV
P 7.306655179863823 9.587339595660836 10.024427969687201
P 8.78195871695574 8.896053828763788 11.499456347285063
P 8.779206121309363 10.942723533459825 9.026505436808145
P 8.131887812826202 10.947836691167868 6.913935426879388
P 7.753329082037513 7.03676264940174 12.069221842082843
P 7.083247532065037 7.806425636171097 8.689971129596465
P 10.04974834681923 10.85502153555056 5.780533556276999
P 7.301129095544492 6.105937119216469 10.126232421609824
P 10.7016880058352 9.791096033415775 8.970665293214083
P 8.775180867682844 9.040065629629964 5.959139153312166
P 8.999759195918369 6.721245827331196 8.8151909865479
P 10.27487909575626 7.941788531363367 10.183144775063653
P 10.802627408374626 9.068523635809507 6.878861139927981
