13
Energy = -67.51800502 eV
P 11.1768759415348 12.443913667699244 7.863020515910852
P 11.30940780057735 10.241737358498792 8.240682916669781
P 9.231928146515752 10.185460311322371 7.434645379138421
P 8.83444513799325 12.320742204301764 7.844979526500274
P 11.220834648805065 11.662648938262294 9.959719690143189
P 10.81073625804995 6.664909024322593 10.339332148422613
P 9.098586336722063 12.337640893352447 10.040095983369246
P 8.022787461008503 9.121800892654552 9.001104569993535
P 11.701234328667637 5.9195184312370985 12.21135130375825
P 11.470034604093993 8.08602034507317 11.887615035068503
P 7.94308929616713 10.537239945936681 10.722802435356252
P 6.425980418861995 10.58764690515854 9.166748786816285
P 9.693907930082023 6.830569391260386 12.227750017932449
