13
Energy = -67.59436518 eV
P 12.35196088582238 9.864305464956045 11.397444991414348
P 13.08728631346122 8.898054854753811 9.543064343961447
P 10.998375268957396 11.546812064308574 10.690750243605095
P 11.37554531005447 7.963378862019095 10.686265496153638
P 9.20903904544092 10.534046557236131 11.515434430525872
P 12.532472202447378 10.125231351121318 7.851002049292423
P 10.793438569953143 11.288180685059473 8.470917883252413
P 9.353135420888647 8.785315045184117 10.173787906689338
P 9.316000881677281 9.680312537947538 8.132248084389461
P 7.6124229772923995 7.6353294225302095 10.413345134933223
P 7.422644038553472 10.762400776428516 8.437526907397956
P 7.395458757695517 11.37465878574377 10.616662746476846
P 6.420553426032858 9.410306690988207 9.939882880185431
