13
Energy = -67.7389322 eV
P 12.08875613442854 8.747356698258066 12.291282174927414
P 12.827323151816234 10.833005050002164 11.760606629955875
P 9.981919745369245 9.29798110837197 11.695111269750708
P 13.251607376955633 9.10480886810174 10.420612590412818
P 10.718203737295532 11.366649240202063 11.192697324037773
P 10.11755342887996 8.14200453225498 9.825474415797572
P 11.122983201621295 11.335869030702401 9.049724700657203
P 11.726749339381454 9.21273357489027 8.770371480119053
P 8.645294344526755 8.873569756880038 8.323609879306815
P 6.743849690677856 9.351906088691841 9.499110303313692
P 7.4895082074209 11.336123754488936 10.207147978444402
P 8.862598572253695 11.100866485406689 8.458941289328935
P 6.276508789754645 11.149981532130877 8.358165684329634
