13
Energy = -66.73094273 eV
P 9.666211845210585 6.695497008975779 6.251711127260269
P 5.6238953531262625 9.581395681014337 6.863773798413881
P 7.457307754609935 11.039554775638676 7.424710280573931
P 9.233247492869936 9.793083327424085 7.289354896590983
P 7.531894544272485 6.159729846992779 6.756415713315271
P 9.999106320463536 4.89901423368911 7.576585111891788
P 8.024886739316662 5.28443915726879 8.709234625193327
P 7.103478201468894 10.484015394466619 9.576579743623473
P 10.749811554313748 6.927688082312507 8.17191982811914
P 6.246905626518326 7.76120057373803 7.8493937262361895
P 5.0686937435638715 9.635356253955207 9.03065923328438
P 8.116142293284126 8.708223901034545 8.737353876124192
P 9.137391281026597 6.989774513534208 9.721280789417984
