14
Energy = -72.32514262 eV
P 10.791742318686849 10.176747176973368 11.463953911249721
P 8.024131140906945 12.400258017336975 11.09660115230034
P 10.0106793193476 12.798018841618424 10.664952680101809
P 8.368258796854354 7.774315680029739 11.203691910243885
P 8.095813602980519 10.768629832028662 9.246560685995256
P 9.994345901699113 11.673878670364479 8.575840610374433
P 11.653771726258768 10.576077389768274 9.479774023472784
P 10.597413738961308 7.789714310807518 11.45423591526387
P 8.613570413354216 10.06549795228502 11.248547167244467
P 8.607127326672991 7.200909222154215 9.024406234889511
P 10.813836578900922 7.090779786845533 9.317420058579652
P 8.183532036336697 8.92579983265395 7.699736175903995
P 10.065457454011534 9.552052683403797 6.8990150925304485
P 11.717661585027775 8.744662780799027 8.162606321849555
