14
Energy = -73.43319594 eV
P 6.38249292573353 7.263942663611363 12.809178841243984
P 7.230095197991507 9.274624220314275 12.497620122249973
P 8.548076128654904 7.511048192097531 12.477811680083835
P 7.1394492012894775 7.846492870547452 10.821900030638142
P 12.03350308109532 9.624616836346824 8.460402451708248
P 9.167258734699722 9.30405023132615 8.091436136607678
P 10.437085711691324 9.257471088986845 9.906430019209685
P 8.948372794545355 11.285775389415479 7.544268523909715
P 10.18854868953439 11.248843271157728 10.824563160863834
P 13.547187564834058 10.23372533413894 10.04716379762266
P 10.070368874922528 12.508576696779139 9.016953610741142
P 11.790511644332184 11.797146282331738 7.867853593807234
P 12.353613547597433 11.61982491116307 11.326672523100411
P 13.314452527705505 12.374878636411278 9.458762132841123
