14
Energy = -73.41493548 eV
P 8.315482026992036 8.018100636759874 12.583346854515343
P 9.572660691479097 8.882815215319688 10.893776320274426
P 6.407332537320776 8.86018362474588 11.75521287867954
P 7.115201331370423 6.902011089236092 11.054894458030812
P 12.726596871754062 10.155256173527931 10.73777988645237
P 9.48233267200997 11.07198112295982 11.318047236269818
P 11.603080756940553 11.552018323428662 12.012111045500877
P 14.28880305533629 11.61649476519572 9.9753632199736
P 7.5701935873320085 8.739670057559442 9.838365210098646
P 11.167153446144278 13.173043776438652 10.547432781676413
P 11.631644504567834 10.293155520338368 8.792879723632868
P 10.052222473891412 11.768588715708468 9.22739967382862
P 13.102408619194172 13.428554515158163 9.472400227899767
P 13.182391169065045 11.755630207020902 8.008494226564121
