14
Energy = -68.2981816 eV
P 13.879052511695374 10.727806943466765 11.465357017971904
P 11.67362992218752 15.423668611457249 7.912597836955382
P 7.5091989784051405 11.155981067888495 11.484674729529745
P 12.359057246104614 11.178507568360518 12.844671697252506
P 12.49945817020514 16.50316493437965 14.790887332630334
P 13.075589105662381 14.853277229669976 13.21476664936109
P 13.146936617145725 9.467022956947499 9.924287894672721
P 11.450465859396333 15.774798490485692 6.058984848512892
P 8.805675807925454 10.107782610309359 12.965059276670809
P 11.981682450427407 14.431037442721422 15.003680828846754
P 7.598665444426272 9.131771785908246 11.37958280568754
P 14.385066762868632 16.457406042738505 13.779104741532647
P 11.093167089930946 9.090798570725322 10.164101733790444
P 10.770401416990262 10.189602711031293 11.91619503778731
