14
Energy = -73.24074212 eV
P 10.923403738326876 6.278065526575264 9.48869576686918
P 12.046999182124658 7.967437948334485 10.322074972412365
P 10.52452168373935 7.007154493101785 11.617901177932618
P 8.985789320522239 7.223830940331824 8.789108693409553
P 11.173191707486822 9.893463689728021 9.56113524545107
P 9.636469690274962 9.204435066128218 8.086894655317979
P 8.42607140494144 7.536123702304016 10.946929989319191
P 10.0376590012987 10.586738377528352 11.318809120139873
P 9.467869566368902 12.581822980732264 7.351281761661171
P 11.036217138256012 12.626008674957669 8.730813932834579
P 7.7262730038998475 10.02325386838497 8.872120701466994
P 8.006551064274682 9.748636423215862 11.061256771789342
P 7.925737183900153 12.237870483754607 8.921122639455913
P 9.57702180568637 12.578933316023535 10.425630063040225
