14
Energy = -71.71478648 eV
P 7.227513862440368 9.701697127082806 5.948452959283083
P 5.871352471831866 7.990229302909176 5.935157184591965
P 10.739701443257394 8.07526113509393 6.446401169407056
P 8.510021870697763 6.069338482304536 7.615322029859867
P 8.432567025357967 8.295841196952782 7.493223815895455
P 4.906643193131776 8.931048675982172 7.672009508126322
P 6.243409693553009 10.672830796280122 7.640936734590247
P 9.499779820852119 8.908343232900323 9.436127636719359
P 10.802125071440006 6.193754876023568 7.626266443686417
P 11.560057463202055 8.127830151039355 8.409031745686026
P 6.63220450095834 8.208466169085627 8.895054516865331
P 7.365604091474078 6.101786099711785 9.511042324551042
P 7.524741423205343 9.334839214037416 10.532776602253673
P 8.68185165801732 7.3863071300161005 10.83577091790371
