14
Energy = -72.99015752 eV
P 11.917040326467436 8.044089585368173 6.995601033449897
P 10.956480288687793 9.526160246649573 5.635176485588135
P 10.621108596629151 7.326450129052122 5.2952195534875095
P 10.221737093372314 7.570528735981185 8.416414406120786
P 9.635575673000256 9.729070445703258 8.650645268692275
P 8.884143722748853 9.665926041075272 6.535499673609093
P 8.79573381257534 7.414538089263109 6.683313156314152
P 6.960829436796765 6.1594295283604845 9.483582168408478
P 7.639727907727926 9.670904978687034 9.76488522564517
P 7.7694056508953 7.730504709853064 10.77726285119212
P 5.760013699315689 7.242517360287571 7.876608702450389
P 6.046963866097828 9.36586467317792 8.276653404468718
P 5.683966689124781 7.162248046735226 11.066956712791287
P 4.516816464023584 8.328174935456529 9.44028039928976
