15
Energy = -77.02683616 eV
P 10.438106063980575 10.862352233660284 11.957937277456923
P 7.430158147546587 10.843012841800647 10.325867660272463
P 7.987513156695024 8.661338247660082 10.59051099822527
P 9.067066901365031 12.236859042793164 10.873146246860962
P 8.393969104913314 7.928062485690173 8.55600332461723
P 6.875568633462443 9.162421901801904 7.508201049761682
P 9.69663733369101 11.04388365537999 7.565830550122873
P 12.146736197046303 6.601111806511361 9.58177647460585
P 10.018371874119444 8.4133324947351 11.433916798244375
P 10.40844481473724 6.133755263119575 10.464949661535186
P 11.944116588875278 11.033025324807856 10.343736514668176
P 10.28570202014027 8.905813187748453 7.8677426999602025
P 11.39706909801482 8.836298689022406 9.794276755167743
P 7.541476016953823 11.164357106055114 8.138413300071173
P 10.531571578881108 12.336883249636026 9.160198218852157
