15
Energy = -77.6419974 eV
P 9.94565427676573 8.907522494617039 6.97320120127953
P 7.948442344356233 8.364074979355612 6.177071961146665
P 9.129948926740717 6.841667937484878 7.321718778865234
P 9.200565028743735 10.306138218403838 8.538987055571985
P 8.960471805567742 12.088741316344334 7.386185980373091
P 7.06943592371858 11.507188712134758 6.506447894539073
P 6.425135154449456 9.542994140921211 7.309836778475509
P 8.59523798785836 6.501867720048421 9.46501809015643
P 7.190626495318169 9.937823949467148 9.32723362190995
P 7.526576350481874 8.122084335366656 10.572815824292622
P 10.6645461390864 6.570477545387196 10.27095928254804
P 11.76101318747877 8.478354309775204 10.305414136468903
P 8.992521085124284 9.26815311135143 11.76981794990878
P 10.43084953391194 10.316875774777527 10.379303072560393
P 10.61215160776679 7.699211301934655 12.149164219273217
