16
Energy = -84.35677586 eV
P 6.4977632518712864 9.7356418984607 9.656564610057558
P 6.1142272407345395 8.44524745613527 11.206651142753529
P 6.433148427018209 10.572723935173567 11.719953550154175
P 9.26979545576457 9.274340288909205 9.422837885839522
P 9.573483789463742 7.618239735468476 10.851401131244135
P 9.708309371219276 11.097698918668788 10.613314101474597
P 8.605548075698172 10.684525161838932 12.453318813628405
P 9.077057474952237 8.540324553737957 12.831988958462018
P 13.152902538018134 11.860635963887647 8.79732775075558
P 11.191221668347891 8.397508298259643 12.175424664956846
P 11.327525816959788 12.591322751272882 7.757277043076656
P 11.632396483940692 10.479131092381966 11.475245755197983
P 12.915394972951747 11.540627010813985 6.60844612532813
P 12.753705352916581 9.860298640333296 9.660505579750346
P 10.897921895550436 10.623376727145796 6.806381329201667
P 11.181629025161579 9.01038840808062 8.29539239868773
