16
Energy = -81.94950653 eV
P 6.164862546743012 8.630314737485808 5.612067394376831
P 7.463662144470231 6.933517807685863 6.326987342470686
P 12.266254921136438 9.47531293397859 8.885718423376934
P 5.235090847317367 6.7104529754967706 6.352489945463447
P 10.36622327270958 9.115786689705015 7.730392293186876
P 7.21394583849063 10.459927873234967 7.710727199680483
P 5.2500127581218 9.548961906031955 7.391987333644695
P 10.529961619363126 6.902009283066876 8.291519983453691
P 5.107995870698506 7.547646640318379 8.49329120993514
P 9.6336959235347 9.945423444279617 9.614412064041778
P 7.443371202158264 10.165884380568375 9.734478710550274
P 7.069884552468708 6.537156469927566 8.46487331797994
P 8.941371396763746 6.5687090170606055 9.81035579476111
P 11.64516307096323 7.496810157469463 10.159085080095174
P 11.392434948059604 11.202796808213122 9.830901581821106
P 9.75715359828801 8.240373386763972 11.071796836448778
