16
Energy = -83.96792623 eV
P 8.8351447672295 8.044500372549987 12.877467827645674
P 6.897327822139984 7.394003056436309 11.878830925891048
P 8.858859525496408 6.491832077651778 11.26829824775943
P 8.7690666272395 9.964454361235152 11.7077983055071
P 6.858580481813171 9.312478194010954 10.719151304432202
P 10.375728938915403 9.253677340911354 10.369336119028866
P 9.418998724201046 7.519851624006574 9.378132164947234
P 7.494556243740088 8.44539284199229 8.789692710990519
P 13.418999277460362 11.104008888329663 8.603912880037248
P 8.195255952664162 10.038766553434755 7.497295924110861
P 13.050265829044532 11.12832164798126 10.785282414582216
P 9.904430657754325 10.603791973167283 8.649244107973693
P 13.802127787701737 12.970093716874697 9.781473460095171
P 11.548103597751801 11.609343885008549 7.527520393372192
P 11.781654583938902 12.941708950014293 10.73576519918125
P 10.383666095982372 12.770541429468537 9.023564927518727
