16
Energy = -84.67402394 eV
P 11.294801595757768 11.37146256946281 9.90969822243762
P 9.632326869434472 13.850764300673793 8.049936891641977
P 9.782547870766734 12.976399952026842 10.103020974647682
P 11.151246780103465 10.83224993115974 7.73947895288528
P 11.494241061943294 8.238772101849888 9.756342199785768
P 9.319661919240376 11.877822649530577 7.066411837853855
P 10.386816518684562 9.660904538374314 11.0184959663191
P 8.053404242576171 12.473226460521234 8.80301945865721
P 10.57605158361616 8.665375735873308 7.761038511380512
P 8.293757502210616 9.563595016586659 10.286885138654968
P 8.417569160077571 8.578296281474033 8.274201626687208
P 10.418105255464262 6.285571354310685 10.03446003568845
P 7.5808080047458635 7.955760853494077 11.648349438738476
P 9.075685376655587 6.3349702640862855 11.857461218565717
P 8.632015894644411 6.426764762383011 8.67140355732288
P 7.27113055300447 6.1375925185651985 10.455836723213125
