16
Energy = -83.68610402 eV
P 12.082904988198717 7.239528336943998 8.366226740113598
P 12.596151583095413 7.121830094548203 10.548834699589973
P 9.95919178685658 7.9599970366917265 8.924259733290619
P 10.457779292947839 7.848892603263215 11.066853428643036
P 13.43102676502783 8.740727822981908 9.287674429072736
P 10.524244385168144 9.989414616239175 8.252396073925441
P 11.304636727906367 9.820107408753174 11.610122911484554
P 12.12185519279556 10.546209606480788 9.685059238014121
P 7.589578106085792 8.56705966102816 10.690741216779834
P 9.213789179653968 13.37230329421529 8.636043794464362
P 9.60113774619152 11.22787295746654 11.439274258757164
P 6.96209157589363 10.390186012324211 9.749415578888305
P 9.07909669285366 11.321356073724457 9.279181497894601
P 9.529155783241105 14.365420981823291 10.457024165603778
P 10.096972998696364 13.209941126441192 12.113893981839665
P 7.488414548793136 10.317179720480725 11.931025605044265
