16
Energy = -83.57307947 eV
P 7.861614934501362 12.79169777362475 9.167089944510776
P 9.706065500302207 12.73540096401884 7.902487453156445
P 9.859483918091687 13.122484748313875 10.090443288397456
P 7.243729661938844 10.639528347059333 9.481370249570233
P 8.441828072934042 9.73415471187724 7.842774320536907
P 8.416800423360751 7.465880123805701 8.078156025188683
P 10.425037079897502 10.59335222195637 8.179726679944888
P 7.888654396328872 6.866378930926335 10.1482726603704
P 8.387523802548689 10.502423816024416 11.343149177394162
P 9.97837459001882 6.561041152580269 9.35410203109728
P 10.425153773504023 10.82671907322211 10.352102073332201
P 8.685839712989786 8.321724018316793 11.733689645449985
P 12.79613598093032 10.526231672055363 11.081441932144045
P 10.55629056163094 8.417330343407714 10.528537029390554
P 13.338811347061776 9.06876657808472 9.67124117339093
P 12.523554339598148 8.361783620363944 11.58031441176282
