16
Energy = -85.08530277 eV
P 14.792865882693768 10.364916549035526 11.060695753879655
P 14.126298368730916 9.190323446801793 9.288899076813491
P 13.889999997831897 8.294391115839119 11.327516019437853
P 12.866530342981743 11.253224267484446 11.804077616460372
P 12.099351601723718 9.964373666340817 8.741415659155107
P 11.953870330225744 9.188334449565144 12.04621015960468
P 12.309522578188087 11.892996050804486 9.80654771838386
P 11.055442525256204 8.624660440189857 10.137474892529163
P 8.877938021748925 9.341071045415228 10.049000244433484
P 10.145176243068363 12.622097200062058 10.08417361769386
P 8.956804758764106 11.216350782994827 8.876307506890416
P 8.557502066622561 10.071384905367005 12.064692991072048
P 9.457455140515775 12.15627073550204 12.10223538652978
P 6.9911444568720835 11.996047864722405 9.610100478774138
P 6.5470972676330605 10.897136535647565 11.49720270236164
P 7.435950396354344 12.98937092343899 11.566400155192062
