16
Energy = -84.88830078 eV
P 13.97574574776634 10.14186424104714 7.10535646307143
P 12.155760528064064 8.914004806532974 6.742760043670995
P 13.369248431928751 10.690516558018027 9.175245195076542
P 13.39844331690427 8.558518414500739 8.5581989907732
P 10.460077102571448 10.22809472475442 7.285814806967653
P 11.340861256471486 11.534093756561852 8.896980711631603
P 9.26839050386128 8.705909723590207 8.355494821405138
P 10.324878623521778 8.654673594662036 10.32419850313566
P 10.368904649466394 10.810929735627498 10.756541272416309
P 8.566944669178964 7.923093857445543 11.521021703460452
P 8.369850474596147 11.57569257635759 10.149076315434426
P 7.495341757603946 9.94685502791156 8.863601410806435
P 6.7811260781078095 8.38181992913256 10.241046057508605
P 7.906215044408433 9.45022514714135 13.062969266519728
P 7.280726423482187 11.326093260733856 12.071689514453666
P 5.917598206700749 9.607159178236914 11.928019205226072
