16
Energy = -83.56658377 eV
P 13.094181677975872 11.791830776138653 10.855125173240115
P 13.506439649374718 10.807422645865207 8.886280961767103
P 11.948837613155193 12.4526037154603 9.034760647084923
P 11.701146714140055 10.475112442666289 12.009938812264695
P 12.001314067277347 8.471489781926135 11.003157753176112
P 9.744474060525121 11.228041244796884 11.350639532802498
P 12.367642685015555 8.890420649002568 8.8403665431353
P 9.931830168660248 11.442052767651447 9.150737592317538
P 8.884327059033525 9.315675305831062 12.054237848724695
P 9.89296449450178 7.684113061286369 10.936098662933365
P 10.471625607500112 9.640012552373829 7.971588414633009
P 9.250398694563176 7.9795264068156415 8.743657943399059
P 6.873838229425511 9.051704812569588 11.17589689583714
P 6.4378803738534955 11.21588864350152 10.782102518824725
P 7.232825301677964 8.955650564142973 8.957207915610025
P 7.250939180873766 11.189120207524537 8.838868361802568
