17
Energy = -88.91192127 eV
P 12.886854677882399 11.43623267881608 7.174562315051678
P 13.295061094041689 12.481288941036166 9.108817829692493
P 12.088035163295535 9.422008192788624 9.510824118905047
P 11.620541600305403 13.210907150068024 7.797538195618674
P 11.137124830318356 10.127915024546628 7.688904601203741
P 12.278549586878064 11.310633631707086 10.715138354283315
P 10.202366410001117 8.567689436421464 10.355858013374394
P 9.887452593711405 11.883687271103062 8.363204712533538
P 8.35985385934958 8.535199414001143 9.147797707469827
P 9.826253557817962 9.215669251004655 12.405001573755836
P 10.353174193357482 12.317524619901704 10.46836430121691
P 9.024915898070567 11.259851900930482 11.989419686925242
P 9.314481691870705 6.576664800302222 9.920373822469733
P 6.8823741795426026 8.923451485099582 10.737692499274049
P 8.402875218203592 6.1433551755226405 11.824000264919981
P 7.8927138939502575 8.117705027382831 12.560749744818487
P 7.1604384484642 11.083282896428674 10.844819155548262
