17
Energy = -89.1154615 eV
P 16.77806694024085 10.851542779015226 12.282772439181121
P 14.966944096270224 9.591161663113798 12.304886005503713
P 14.845873748784502 11.701398788707548 12.920096082215055
P 10.37977115279721 9.68051544322843 13.655326317927484
P 15.169065983514288 11.185116072401243 10.808457154294908
P 9.95420833422846 11.927107108097601 13.649991447720467
P 8.394889986151666 10.462471168472065 13.153040130285545
P 11.52848356152824 9.870414465204886 11.708128506038754
P 11.379436625957574 12.092497744252857 11.883153514932369
P 10.02179268337753 9.345585291370531 10.165342362107246
P 8.100976735631134 10.226537275707022 10.913857241576599
P 10.969276977789923 10.90512495422319 8.89970939258517
P 10.373363937836789 12.743229600455976 9.97456280586257
P 8.236579951983297 12.362197224365175 10.385532180211946
P 7.880820537032674 9.939829697164875 8.046415276020854
P 9.478258446519805 11.165651741237257 7.216875417089346
P 7.709914066266928 12.117342748892797 8.199577492357635
