17
Energy = -87.85464653 eV
P 10.106436532676426 9.809531719876992 12.378366898509558
P 7.39843623094651 9.600638415698423 9.595083518082841
P 11.075981391855729 12.808179097062204 8.924997579989437
P 9.649063635856386 6.839422003762052 10.917940299787519
P 11.144162808371561 8.377784127534113 11.101696222095988
P 8.838496425490824 6.758589856920169 7.800703839088547
P 8.07264824063648 10.429821389220685 11.543189730884095
P 11.534567935917096 11.277154961049098 11.596367702496737
P 12.001589577592386 10.801096502863004 9.438657483667043
P 7.825585641645923 7.4109551680241195 9.725338563373525
P 10.867775879468727 7.627917503824419 7.564931886731886
P 10.565936535913929 5.993614524837058 9.065763074376957
P 8.26578428987348 12.47850853282668 10.740619453011934
P 8.610379119713592 10.364418824305549 7.9005691004464085
P 10.73428059167422 9.81669583782237 7.963307575921353
P 8.860432482492254 12.44435570471986 8.56460652640083
P 10.417034040297528 13.129907057435359 11.146452038198552
