17
Energy = -88.63961221 eV
P 12.121983493492422 11.015568259626841 7.120547140572992
P 13.457589691584072 10.402283560080892 8.815525230951321
P 11.94821941645887 12.067851903835573 9.103783894411206
P 10.415511804747544 9.575672279147788 7.03316408905075
P 12.547958333130671 8.59571314039478 9.763451411333053
P 8.947808105325349 10.54546224107134 8.350007112846871
P 11.237763211367168 7.79490543114346 8.145493444380053
P 10.152663882068508 11.142126112979133 10.118469905751954
P 11.247752386337512 9.576478746894681 11.252440154960794
P 8.288713214823932 11.127321545294809 12.006915416954985
P 7.9609270798329215 8.540367377842475 8.525058421184312
P 5.494900172010363 10.214375786909244 10.085110009383502
P 9.458295539087493 7.12877949721762 9.343386383838899
P 6.533422165996368 11.785061874260979 11.00196829487977
P 9.892537935150653 7.853034037025765 11.492948693903124
P 6.712367656270728 8.405299461888925 10.351385153441822
P 7.99370915502826 8.945686803089282 12.071491625193271
