17
Energy = -89.26327901 eV
P 10.167856006813341 11.657445489899386 15.994821879589555
P 11.448695966149543 11.224823184857652 14.256281914395188
P 9.273004831856495 10.90489150385238 14.127317261620897
P 10.085644728595536 12.94812954763759 14.20867983524669
P 11.739482104381322 8.365886467500635 11.535101011444134
P 13.742776772383733 9.202823424730727 11.180139876184901
P 12.87268387842825 7.621327947080073 9.800200257199682
P 10.238104450320524 10.0099230360896 10.582752260974836
P 11.64569558901122 11.733470091717926 10.558964594705365
P 8.168830642554783 11.247215057893381 10.434064299743515
P 13.37182792899518 10.790407252111484 9.5956609980881
P 10.33640072073 9.336554030697972 8.465302144308062
P 12.50774843194507 9.20947319639635 8.214620747048334
P 8.788170944225758 13.218485213905925 9.676501368938274
P 7.932169245873942 11.64317149178671 8.279731905663228
P 10.86264547783047 12.828790986759701 8.833686398447156
P 10.008873444312265 11.247793241489164 7.446784410808284
