18
Energy = -96.05160944 eV
P 12.88369435630014 9.677835883929468 6.756547058732646
P 14.170405462204842 11.328308501089026 7.543760071898515
P 14.369538732836121 9.289099224278813 8.441710912419243
P 11.205734325194566 9.57081140983362 8.253024159796357
P 10.916735681275586 11.75563347923584 8.20300070710217
P 12.875062648981974 12.475485605700692 8.93827196242784
P 12.665211097989378 9.202435078692783 9.907970555241597
P 13.146567479841917 11.194137020043526 10.720436196589338
P 9.85164547463108 12.43731096214179 10.036811742239514
P 8.288113830428214 10.897687193613937 10.299143216645145
P 11.353878065927134 12.02190843962754 11.757628813725034
P 7.394098567383211 11.740007273068873 12.11804312054913
P 9.465623861406154 9.225568714987077 11.14003197460139
P 6.278900732825424 9.855453825496868 12.604929809851491
P 8.87199303740727 11.289828255657502 13.774666456134304
P 10.531563139607314 10.247444214742767 12.79174210017798
P 7.838879632049353 8.271234864455677 12.328568367892391
P 7.770151366107398 9.39760754580083 14.261510266373143
