18
Energy = -94.19084394 eV
P 10.851648863537827 13.206875454450078 13.165776029948479
P 12.9373814899359 9.00155323358659 13.259787513971824
P 8.813042716219124 12.350683251091809 13.523578682967454
P 9.015391694901393 14.497052024556044 13.083011164836028
P 10.707509025576902 13.026919129817488 10.917654254892081
P 9.964674559859706 9.460913833327117 11.674861929072314
P 13.34392067130604 9.539815593027559 11.288405725962603
P 11.262305812496788 10.900974577187764 10.581430162429982
P 11.783140984843323 8.006368671624687 11.717209107729998
P 8.500118244483861 13.058040971373181 11.421583434703654
P 10.82543846598283 10.77313316456959 8.425685994591053
P 11.543723859433147 8.762462415953427 7.888187506347419
P 8.735485301368572 8.616658319022351 10.004214712568697
P 10.130328673318958 7.336436095381435 8.88753682760128
P 8.666526070105979 10.414104213375643 8.724525610578741
P 10.2581496103596 8.737961478905989 6.037639589728486
P 8.818673625065715 7.293670539501299 7.053338447479361
P 8.253554973095552 9.427391675139305 6.756587946482628
