18
Energy = -94.40179047 eV
P 11.553785928563727 15.563371669215394 9.653260721620947
P 11.853804022666926 15.91319443511018 11.80845388972488
P 13.327543302903125 14.673416027692396 10.618351705806804
P 10.04629963235449 13.955844124591078 9.328298154048754
P 8.434681721952574 13.704102464980513 10.914074106397607
P 11.40813711065778 14.0215152012505 12.993268654594885
P 11.126443069282324 12.14824656601342 9.987819717681042
P 12.52754222003136 12.75791294894379 11.571968875810159
P 9.31287835624177 11.64771912618234 11.283772704231978
P 9.342658306716531 13.195208285986006 12.85649497451049
P 15.293165228503302 9.540170649502437 9.829997773373515
P 13.239909897501873 8.772848516735843 9.632431027905739
P 14.079790604903867 9.171104199220373 11.627868340792899
P 14.827960020993256 7.474647701187568 10.43722149908766
P 9.309899005795616 7.844190189147126 11.329451856814792
P 8.024664186304577 8.159036788997835 13.084984194622672
P 10.211249441599152 8.297999016364198 13.285116339454829
P 9.261461450907309 6.341345596759205 12.939038971400397
