18
Energy = -94.2532359 eV
P 11.783434949224294 14.509621890699844 13.674230192441154
P 12.021723319473312 15.735241049301063 11.833235686138478
P 10.057275356848974 14.799495910717503 12.289369068541879
P 13.108220489247376 13.054850518080713 12.631033074861717
P 12.611937010651559 13.725651884963842 10.583591570883664
P 12.220770732561387 11.007080643839249 12.587597729876236
P 10.400103784174819 13.319908283576467 10.64314147290286
P 13.329257456927536 10.954252122575227 10.659619728272641
P 10.12326967680593 11.660689660484497 12.097606670035287
P 9.792895775750235 9.901674226146541 10.796061264106978
P 10.219295606835919 10.35733596128132 8.721392763207747
P 10.93737475086915 8.104200937642467 11.452880800591906
P 12.446883123498838 9.892788264167033 9.043766341832404
P 7.811210389407647 8.849422460127602 10.891969942354853
P 8.984355447018538 6.947185360402433 11.306198360003766
P 11.846745653196447 7.684859055429079 9.509423401498625
P 10.127791949872929 8.20044532736823 8.163421292014545
P 8.310973515744324 7.428815431306406 9.248979628544003
