18
Energy = -93.9587148 eV
P 7.923072731437871 11.138811381345453 14.007352704005779
P 7.3494406460843695 9.570780143211937 15.44697815716628
P 6.9481495768185 9.30014215957134 13.29699288062376
P 9.09058925382002 11.078344724356972 7.094004464216555
P 8.02602068282519 10.511068489377214 8.970874088618926
P 9.591424476266978 13.211605999084254 7.506079591350182
P 9.033305025885209 11.72743826757758 10.551665876139849
P 9.014843281747654 9.22768905158147 14.045088554561717
P 9.829106171242604 13.494035375506465 9.519731384572797
P 10.777170233589386 10.293852850798764 10.819616566946877
P 9.164253710187017 8.9097246327634 10.094040388879844
P 12.120595553467552 10.747071470906064 9.104503921963309
P 11.231348566327734 10.482441983728009 7.0576641254034165
P 10.879435423095774 8.34495260122846 6.743288238496949
P 9.945462529284724 7.460329763875464 8.589257839379322
P 13.251014775693488 8.862846090402458 9.292226708680214
P 11.971202272604996 7.025334500367083 9.4440157579997
P 12.901190647162235 7.666863614221927 7.4602209713354775
