18
Energy = -94.0762181 eV
P 14.426683737745151 10.036998499443508 8.821034804335513
P 14.396866963807316 9.746854757680653 10.99461445907935
P 12.86345437078492 8.68037637281344 9.721273415581779
P 13.534682605257519 11.622147358749718 10.131228336437728
P 7.07706324333461 6.761804400224775 7.8053443137245235
P 8.151083604351788 6.401298243955276 9.702955057739128
P 6.08839122276173 7.228835582012923 9.77034430825006
P 11.594439696954067 10.507788514597381 9.901058773155736
P 10.305373394608893 10.767449281447494 8.23194067178607
P 9.460756528497045 8.238493367829214 9.19772973114473
P 7.978202295148365 8.94261341071416 7.732799335419967
P 10.448150911174945 10.616651928154745 11.805925499209586
P 9.006833799605795 8.99648102851522 11.238871589196911
P 6.291570198068176 9.374661312170485 9.139510398006909
P 9.627355721077606 12.658435783500776 11.268930524399131
P 7.137386906576456 10.206733118045621 10.973985095078524
P 9.39326133932692 12.623491422512467 9.020746351949452
P 7.639644938328352 12.292225478639116 10.362503909617143
