19
Energy = -97.6522767 eV
P 9.068772906532082 8.904242887240436 6.005077557959868
P 7.191750804484938 7.830824954487595 6.261034160540072
P 10.081651204129493 9.088147449002971 8.054205012775407
P 7.720576195214529 10.637435534986817 6.44148505672735
P 11.803144566217975 7.9152899694655865 8.808378377159652
P 10.236712995359749 6.767526706637426 10.007737001669387
P 6.248592317122261 9.390780338197999 7.521536660826242
P 10.713440686917938 11.199664162763058 7.921872411934812
P 8.636927871998084 11.99177557967196 8.076793368736686
P 7.6662958021466014 11.200000956728646 9.95002125094558
P 6.953211243368472 9.077818148660109 9.671771787758301
P 11.39054556964464 11.487885654513647 10.021479874237523
P 9.083091435480574 8.660404362994996 10.046503076455103
P 9.50668919819814 11.655592633492692 11.232749237543485
P 12.478352577290158 9.536297205777373 10.274727630996187
P 8.790027539582626 8.342169295103808 12.36168329057929
P 10.699941942596706 7.11655170548314 12.19970608180199
P 11.867272360074226 9.079505783018108 12.337026948852849
P 9.945992432384195 10.201076320516304 12.889200861244033
