19
Energy = -99.2419219 eV
P 12.18964626169503 9.579472528257632 13.506637893472137
P 10.335983374969672 8.893401429441202 12.455106449372467
P 12.355979371960688 8.121218183330758 11.831398226172478
P 12.5964346503911 11.740871365973693 13.199425793234827
P 9.976003777084355 10.43600656960629 10.872094104554348
P 14.377404043492254 12.183544058580303 11.915802916985097
P 7.829008152479008 9.970195100820968 10.544044898204307
P 12.977467557005513 9.201919657377408 9.984314963913434
P 10.902523008127787 9.260638576018243 9.177520153797918
P 12.33109004687227 12.759919574887833 11.242666335689092
P 13.548061742589404 11.351395656404915 10.022533585225254
P 10.80265122708644 10.981067969916186 7.816950850518376
P 7.468701711797671 11.353453501509541 8.852374758495598
P 7.753144441634484 8.006099956003373 9.574107320868627
P 8.731614644181468 10.52032984593587 7.224972579644603
P 5.579807455503188 10.370139397325001 8.177543153332774
P 5.594041035824554 8.289026471565316 9.018471174971708
P 8.372063959055907 8.367303794030613 7.450524462410682
P 6.215352479236503 8.667031560173646 6.869508804253377
