19
Energy = -99.1526454 eV
P 14.194007566421096 8.51642577748779 10.543164774701973
P 13.87811968204498 10.33941975156424 11.79735225650933
P 12.601639605043161 8.63715916569216 8.982494760258035
P 12.06893720168252 10.785567713605282 9.054208147724733
P 13.130011604040314 8.418006359903465 12.52940805628169
P 11.695767447135086 11.085358593701608 11.236655407389026
P 10.946220153191417 7.731560916120253 10.11898786796392
P 9.274208836065306 8.483572012013745 8.811734254138912
P 10.999818953440938 9.114110397595391 11.864144857663911
P 7.812583325697144 8.57237629839721 10.493869692961624
P 8.685811899863019 9.66323312696065 12.263706972041103
P 10.23063015614563 10.308923637768855 7.929741180638862
P 9.033143708714755 11.724007359604865 11.678412630698599
P 7.41392690180244 9.084698917665664 6.842232521954038
P 6.43360009225824 10.236589961994602 10.071952313537121
P 8.903436056185507 12.050149859736376 8.100068067217762
P 7.680715950099727 12.050147112915447 9.976750560524072
P 5.791719797782581 10.107531519189578 7.903945004618038
P 7.291977815705868 11.28237437285317 6.714211122043474
