19
Energy = -99.30456296 eV
P 9.977214927183178 10.767299791375708 6.49140848246502
P 8.541453917473541 9.283341823113904 5.548320986347366
P 11.230485536297456 7.475749199287865 6.830781263815995
P 11.358977866361275 9.529862991383878 7.686587573670471
P 6.837382025387569 11.129336088855979 7.9431333063058736
P 6.819205546295662 9.172773125542985 6.983365755923795
P 8.967218320772606 11.357413724427659 8.527508541406233
P 9.108640387888668 7.301178861116655 6.338028069000859
P 11.011349278728739 6.219614602699235 8.836227935120569
P 9.795867194341518 9.353193774375567 9.337777193663719
P 11.125795584702223 7.774003231646473 10.41775675566954
P 7.751194699789142 11.52927790824683 10.890661882813527
P 8.822946183725074 5.937499874867345 9.26960268101366
P 9.098034285678397 9.994249607014213 11.507801846261666
P 8.170258594115893 7.96486073153608 8.42033389635841
P 6.051146149131906 10.381760091073481 9.948762623634213
P 6.550270157997437 8.217834141829556 10.082235112332542
P 9.447479992173013 6.6027471629520615 11.31184193839103
P 7.825391687673143 8.23777591726382 11.871290068170373
