19
Energy = -99.16335702 eV
P 5.956232714362753 10.246041986574985 11.707262707713939
P 7.307946952612308 8.901013905318727 10.509951900930401
P 7.66449651262631 7.8876461037870875 12.448098125150944
P 7.0753415521658125 9.659272091376026 13.646091525020754
P 7.8815138797989315 11.030423989854352 10.833588629780476
P 9.894852440042719 7.761037098198989 12.790482813252536
P 8.601844963149878 11.105311182514757 12.932080087303842
P 10.508788915312554 9.909701013756983 13.120625686285315
P 10.577570405388967 9.020469684814218 11.090662460644754
P 12.657542185643731 8.350473106470261 10.926897550558484
P 11.114077108681276 11.965283578967753 9.841011484946712
P 12.169824421154079 10.957631717219819 8.139370551690357
P 11.313315959710456 13.982414786745181 8.835753959308496
P 12.70362827268743 12.143171056602696 11.347117314028365
P 12.365305111540078 12.961072260294777 7.106461726230514
P 13.817181108322028 10.183382828076653 11.023335981876551
P 14.240502116283855 10.798975199939303 8.883034156725593
P 13.50947673670951 14.180684194654585 8.582376805395555
P 14.404598869381939 12.720034440407321 9.999836758730279
