19
Energy = -95.8396508 eV
P 7.536816983270156 12.742054743598286 8.587360489515614
P 9.164763529052431 11.872024556924194 7.454472251917884
P 11.326704485772767 11.722857462036696 8.422078997075177
P 9.293906614793103 11.600267286317695 11.027488144994045
P 11.52097257650062 11.838400390347878 10.6700648997309
P 9.660382871074724 9.195080822539765 10.23598777804114
P 10.975289337565336 9.548797559388198 8.436357391734623
P 7.991487982046979 12.755547918572654 12.174787620120386
P 10.093030256955519 8.627067445251914 6.7520410503815835
P 8.742792029194145 13.593702143225693 10.269673545738536
P 7.630401961823626 7.0516842877151 8.30730649007316
P 8.636084478462546 5.913493974014774 11.612932770192073
P 7.6332781995894825 9.029517787683073 9.31303622545388
P 8.342765648706601 9.82417908052403 7.286370883257584
P 11.839765255809311 9.774597967838437 11.318263442536214
P 10.537824996773232 6.535119680330485 12.147504697438375
P 10.70991179196657 7.117818459541214 10.049091119598993
P 8.880337410171375 5.78303152586205 9.405985708841277
P 12.588018434868207 8.57929210828758 9.633731456289528
