20
Energy = -106.1068125 eV
P 7.617626001641648 8.697696827215527 7.2046167615809695
P 13.266665513536912 11.253601687842444 7.200895150189039
P 7.580730763845456 10.81549412561938 7.809491225858326
P 5.935656501621561 9.473168442617363 8.39616507265311
P 11.73575042890643 11.848973254008481 8.847184232353323
P 13.928147337414897 9.490299003733854 8.428753123292326
P 14.950762084033338 11.458351645573455 8.675028745260223
P 7.926163571546362 9.245373830191678 9.314481483540304
P 13.535290922194248 12.698104500350452 9.85260582883655
P 11.977381435112733 9.722152420976217 9.462749363073112
P 12.625433575799827 9.720346363566588 11.568575312303963
P 13.703447646417542 11.736424442776718 11.829671073985622
P 10.354601222008736 12.192447241300568 12.082597573608886
P 10.639738522591736 10.036896285787481 12.496926631002696
P 12.239047721850053 12.995446966061058 12.91447343814543
P 11.213138924254235 10.07110340592725 14.612184500340005
P 9.015870528953535 12.683361721967495 13.798328351643194
P 12.291142913999323 12.037879080112694 14.887722639986976
P 9.283606605485272 11.01644711176 15.262682141815441
P 10.372958011610356 12.999591875435497 15.548027583354864
