20
Energy = -106.19682557 eV
P 9.626210464904736 11.141614761344709 6.404151129583085
P 11.110569089658844 12.879108447543336 6.518957793400155
P 11.64401723012588 10.889222029140024 7.288541807387851
P 8.273024196939424 12.331929244690855 7.787117053830529
P 9.904405641421192 13.817622395722506 8.186497692169999
P 7.975606160227175 11.305033749638143 9.771546701720544
P 9.51545089205362 9.739099886827473 9.653606849584605
P 11.418184466699536 10.881910874646417 9.502631379074607
P 10.951318861090483 13.012205365403828 9.9468071668754
P 9.021480963333588 12.845699350779066 11.037313703752718
P 12.96733097594005 11.36332077932989 12.389089599543313
P 12.925520043720926 9.232496655150781 11.73467472191122
P 9.23021899667628 11.451372908935705 12.764922645830504
P 14.27054771119088 10.777363881132251 14.135650451128496
P 11.223870957561951 11.648212928806133 13.733684997526503
P 9.24240694031384 9.37115291554595 11.819603015195831
P 14.197216540488068 8.59944403092028 13.491218655548028
P 11.093321949873067 8.4065796278774 12.64095584164405
P 10.958000756051735 9.596266075361061 14.511828382429796
P 13.029380174546468 9.288427104021613 15.259283424680957
