20
Energy = -105.37317233 eV
P 13.144067406617665 8.558470460242548 11.96193432761966
P 10.435151343498516 6.778043685236489 12.115645725982272
P 14.12672423582774 10.433792718422742 12.644213955040335
P 11.248230189680074 8.587888651468138 13.084081062684708
P 14.362195374234242 10.8562997277534 10.447684341598192
P 12.666960855397102 9.353632268157915 9.939586476926419
P 9.748602672826088 7.316882697704242 10.05560673636964
P 8.297435824086874 7.243683840368493 11.731003853265587
P 12.95435636551563 12.074662804159987 11.712139682852039
P 10.057325253015536 10.247169882924313 12.13632191075135
P 8.722827843772073 9.1842144264691 10.738015509592625
P 9.883886242010906 13.319105552174618 14.500871906584914
P 11.360210437380111 11.047515630899877 10.55032888082124
P 11.985799474071921 11.713052729918076 5.551275421997617
P 7.835921990159437 12.71733341141424 13.985668889207767
P 9.942862511310382 10.987166155081963 5.17011281659447
P 9.012609169790469 13.91860251223706 12.572492389935096
P 10.294516685451827 12.532480444726726 6.699428596501718
P 8.279334061396089 14.829932220780824 14.440734325234768
P 10.51824668606036 13.024000261267462 4.563425702923946
