20
Energy = -105.23654588 eV
P 13.78788311136453 10.531622788673761 7.307954929497326
P 15.680978800724976 12.002755328136395 12.40757409092424
P 12.054672650444191 12.262237176731348 9.792383596799665
P 15.564206472191623 12.972150379626484 14.387160207356859
P 12.124395920715468 11.977598927505618 7.60549624076039
P 11.68404783442972 9.857373875717208 7.097492396002128
P 13.96083015035496 13.278558329971922 12.906915138957206
P 12.939607667765262 9.06211810658121 8.7548830599379
P 14.201801743309966 11.316836995170114 13.879409995422472
P 12.495861305647347 10.209725274756991 10.581159461017567
P 10.279626473697888 9.79108526842272 10.706436485688677
P 9.845117330682696 11.902328809867416 10.089771238075993
P 10.535314921637957 11.836106084349609 13.668601923691202
P 9.519407488666895 12.922009652158225 12.018589912433516
P 9.967058987269974 9.833575605710893 12.884375266412015
P 7.1715268475821565 8.98032597433848 9.229209787035229
P 8.40587999972122 11.395869318587536 13.195472679131226
P 6.465750078267061 8.262822709749505 11.184384484405111
P 6.186668096626848 10.374178507208217 10.62257576122222
P 5.00639101006069 8.805795782823163 9.623531275645943
