20
Energy = -104.72408927 eV
P 13.465263090246157 10.12952585658127 10.374290411302306
P 14.40905933761719 8.213574750855704 11.336675229496363
P 15.511967736832851 9.954574611236035 12.429236433726171
P 14.177455004552302 11.681311490486754 11.86812728620489
P 10.761448761238725 10.918550706741446 7.518805476918119
P 10.835838112802259 13.132707145494983 7.361112136309801
P 12.188037754532084 8.841514071733615 11.492615642242095
P 11.099898499241158 12.159055466699218 9.343829967653473
P 12.673616336155927 11.735288300912796 13.381144136819236
P 14.271821267153104 8.665584854737116 13.606547200922313
P 12.247216875142607 9.65931288994025 13.611771937831035
P 8.937216743430598 12.065658064978434 6.923402221353129
P 6.866449833181895 10.333965302631363 8.74485025907757
P 8.458374448161761 9.058117550058324 9.632163752124224
P 7.681188148741095 12.381857078959326 8.713433517814519
P 9.175358847881732 12.446416336607566 10.39895230696881
P 9.092301946086133 10.42073744149358 11.270071569374853
P 5.635506132186242 10.36242371829987 10.597522048849598
P 6.7807760339146075 8.503876440834693 11.137945333371675
P 7.101516823091968 10.424334194038838 12.265789509183257
