20
Energy = -106.19097723 eV
P 12.894240983051267 11.0282434702649 6.666980741336486
P 11.410122586995135 9.371547198786272 6.479484536595902
P 13.594081739789885 8.928246843929344 6.944965100770109
P 12.632511282727863 11.884018166263889 8.716123568962685
P 10.8720722257989 8.961061946943797 8.622801809238737
P 13.037741218415285 8.513980428162295 9.081919796045844
P 10.612714166956387 11.08317579611787 9.114218123931474
P 13.85501174508673 10.406445590876983 9.82430623981403
P 12.093111541066982 12.417740570391388 11.913195847242633
P 10.66025466224892 10.803832895835622 11.32317882654346
P 12.812461895832778 10.31197525221944 11.791194665576961
P 10.592666614896336 14.274287850234254 14.326098241264175
P 11.507933757941732 12.19518358521937 14.073684104065077
P 12.727697076579508 14.897121167446127 14.232322963219016
P 13.387082273130192 12.971262014605086 15.114919606075729
P 12.94224888503775 16.34250884487025 15.907980441851127
P 10.370202948070963 14.009385284451023 16.49772777844109
P 11.122988583590702 16.03289218734902 17.153097053491056
P 12.340391267323623 13.062558167880638 17.05417690822287
P 13.104677946857091 15.074746139550111 17.731837048710265
