20
Energy = -104.34045073 eV
P 14.532289651867654 13.420833026676313 9.041570164162659
P 9.091338812496724 12.695299451056696 10.79688988758485
P 8.011375780244242 10.199313607853032 12.929809174781287
P 12.834352555109595 12.059922532787548 9.374871301806039
P 8.501879895720908 11.118243719110128 9.52287368039103
P 10.934921872727147 8.52744141066512 11.590291361970838
P 14.504685981967926 11.444241646605528 8.07434217348137
P 13.108973642849898 13.010955638202548 7.411010985940907
P 9.011194633467747 9.501275584007603 11.103903707347364
P 7.82981744522688 12.405309497258967 12.531315057690902
P 6.039872420657573 9.806078606049187 11.90258221557578
P 9.005061346311937 7.293576345306577 11.465017139183708
P 6.287860136803648 10.78251356928553 9.900771604605836
P 11.964247990826813 8.108190145406347 9.625063036726344
P 5.777255421446825 12.045946672445229 11.61468300177704
P 10.908153918932973 9.031583738607889 7.908430753802563
P 8.976119481839174 7.944716569277992 7.776492892465241
P 9.04600809163097 6.4237989374345466 9.391976623170605
P 11.219271600115095 6.065223684736881 9.157693486422573
P 10.862159828199024 6.9506872865422284 7.043192257505106
