20
Energy = -106.25052028 eV
P 9.525674528006013 12.243952331862474 6.826054695572649
P 11.474194009502124 13.314258146592437 6.4997120861370465
P 9.814755902883213 14.382344425345034 7.543691556517457
P 9.69476565395693 11.472084509191466 8.939169731013509
P 12.812557661459932 12.585648631191328 8.124403641121162
P 11.73754425085246 10.722040687844283 8.564782328730802
P 9.924766933181488 13.58175705263613 9.647907938490583
P 12.090965767686738 13.896530657146695 9.779930968099382
P 12.882081190189865 10.473107008014054 10.456340141721597
P 12.606490194807272 12.496533196602838 11.488381656904481
P 11.254074165031772 9.65103313137946 11.769015250775752
P 10.553954226921041 11.798858488995045 12.108580594122904
P 13.896052829488996 10.74308613888037 14.08013794336483
P 12.397950215136138 9.190964330291797 13.620401116977126
P 12.738189424943489 12.579620230874873 14.633218943314755
P 10.635838099066767 12.026305287501838 14.360258156115616
P 13.935238211607654 10.159133368834807 16.258376056557648
P 10.696273433071495 9.850474478834446 14.845589684217915
P 12.718254409299453 12.001147798004382 16.809727173200727
P 11.762351423651843 9.983092630720604 16.79629286778875
