20
Energy = -106.04533298 eV
P 9.872399105338452 14.73935601284779 6.675539717206316
P 10.683962417049376 12.657422836377071 6.985813440371266
P 11.952437343964705 15.597274434814889 7.014994069628907
P 12.747475460254277 13.507601870852076 7.316127714533352
P 10.375654050018923 15.786554493491895 8.57595818811707
P 9.972095514766803 12.343073113050096 9.047089688630662
P 12.886731085187595 13.538046383335832 9.512728432405314
P 11.981951749853016 11.44981926206238 9.654890400838338
P 10.812300487442668 14.154747012533713 10.022210247671946
P 13.624493383575341 10.190516065126747 12.102504373739892
P 11.64168433249158 9.109286059064019 11.886576476449827
P 11.72963039278477 11.338114489948625 11.885058912289363
P 10.96497871994433 8.763318929773327 14.00141731303727
P 13.923790408159773 10.38417906915205 14.320587501151351
P 12.982910490208301 8.457821268825443 14.849322663598143
P 10.453236174812192 10.744264228924095 14.788151622023756
P 12.409549438722186 11.81906743601403 14.994121763639496
P 12.511973993561941 8.912497093334407 16.98605055014027
P 10.586509643004009 10.050500308442276 16.928848283960374
P 12.573788918258568 11.14409274142904 17.139561749966045
