21
Energy = -108.98222779 eV
P 12.748789393087815 8.11853178615037 12.124571987776068
P 14.840120403655371 8.783336410428609 11.466468926141689
P 10.227546270126792 9.375071625267074 13.620495316165602
P 11.18786656413744 12.609292820044917 14.04241234058206
P 11.673960731876672 9.024078819064732 10.425412027441421
P 15.165820525642596 10.261413471265627 13.047578175861162
P 9.811933687687466 8.65289413709045 11.548409341478836
P 14.54299725107037 10.951788056753754 11.061051568694028
P 12.372407785784548 9.997879594156956 13.452784835133922
P 9.305216631964209 11.455288001425387 13.9183040743992
P 12.307010662760236 10.978890791162158 11.48214016998147
P 11.712602437637415 13.120517446923941 12.040127516657742
P 8.314442730883924 12.0030147179386 12.001137130773714
P 8.236942410227988 10.086454976423065 10.833774901683432
P 9.193966657875514 10.588354113265423 8.899183183508224
P 9.448915672599774 9.664046617661768 6.369512080903652
P 9.77057513300215 13.402874784896436 11.023543295918081
P 10.254666603330607 12.547050698792283 9.042531036621705
P 7.657519074664067 10.205878772006496 5.514426214463958
P 8.232881292166397 12.381895005844731 8.114723749745263
P 9.031553199419639 11.829182473038362 6.00914724566945
