21
Energy = -111.27536874 eV
P 14.029887140985874 11.580649841415676 12.631895212152562
P 13.500951604803646 9.977899184362716 11.1940327089576
P 14.764887609091549 10.43217727751602 14.387474399111486
P 11.741929032398472 10.902038014696148 10.220762779381698
P 12.772265527231045 11.41688316705002 14.4557711534077
P 9.585729869257381 10.134202986319222 7.690417433253439
P 8.832036469242833 11.801897055663563 8.959175023750035
P 11.309970639012136 9.117771176627063 8.982465445246063
P 12.620240885941616 8.377386903148007 12.513006696748866
P 12.921098144004029 9.19431294515022 14.543172513660307
P 10.43160420153514 8.662123041936445 12.39320027323347
P 10.300977622026961 10.824628200676763 11.899385090563802
P 6.7522044747369545 11.861698718275944 8.280794848306183
P 7.121078040664375 12.329279201669745 6.087092701751474
P 10.158179157561124 7.769090420608252 10.38926980510266
P 8.046684801366217 8.573910133315135 8.052151579078565
P 6.215464292734004 9.726503084236693 7.76199486201222
P 8.312837837645878 10.769007622760638 10.85912966017761
P 8.092531731870181 8.552312501120893 10.25850896005931
P 8.651822399332593 10.872228462264088 5.49462646626021
P 6.565014148219884 10.191288783651766 5.554251924484832
