21
Energy = -109.58833949 eV
P 16.476336223061253 12.547549024935176 9.970205174514279
P 14.736374188758806 12.74774767987653 8.596512867207537
P 15.539877043254215 14.535145983738069 9.655106183004175
P 13.21517432203136 10.154215479013258 10.192372868548604
P 15.458596649560175 13.56641277221537 11.660944876585587
P 12.868746410886065 12.313859857755531 9.683227594481858
P 13.606333093842236 10.722660551249355 12.353028686714598
P 11.203135455661906 9.30345420691249 9.89700821230219
P 11.329509389891218 7.539485333077607 11.311335883932252
P 13.363598117420286 12.89893075581615 11.798217937435307
P 9.651523749330355 10.152740042120584 11.242097089489226
P 11.491982867697885 8.313455819777975 13.390080423865282
P 9.496921194505132 8.197877391953291 12.463500339939394
P 7.745136624816792 10.630354748990237 10.282121442793715
P 11.773710654263837 10.533061620037806 13.551349251780374
P 10.203430031419847 11.914474029741916 12.397131210634608
P 8.370639685264013 12.551809196857592 9.482399076782167
P 8.886621864469317 13.6339300805705 11.218036281966807
P 8.467982827651667 11.543363612522432 13.785954086855654
P 6.8203181157933255 11.030569041590905 12.334669938894224
P 7.270790369857474 13.145641650684876 12.711439451709335
