21
Energy = -110.14633723 eV
P 12.971811374095365 7.35148487788605 7.475148677562089
P 12.972822408093926 9.114855419166215 8.8354161630717
P 12.830348275363244 5.502003163666182 8.655707754785212
P 10.883955986681482 9.786566325826536 8.431502446281497
P 11.919515999586181 11.07838081814465 11.349281159063382
P 11.00669122639891 6.341553315499817 7.550502432049158
P 12.905822566618763 8.135233063022428 10.857125255121572
P 11.936938139369348 6.184119293587065 10.6133865166659
P 11.071538808113164 9.043356749150826 11.741199316800502
P 11.057087019850957 11.76367450562268 9.413387672871178
P 10.041075346295763 11.084788005985244 14.125066762511596
P 10.005972946702137 6.652035470032494 9.576032692732973
P 9.669639542883385 8.832624102619874 10.000839346973386
P 11.170392953778991 12.50649469278973 12.906712018584479
P 8.84017696169537 12.095060698821268 9.404225983346333
P 7.827642991181437 11.68697095590367 11.329220373034202
P 8.95157899661584 12.623458199246734 13.053923947649743
P 8.737050062869546 14.299922959377685 9.144395095065049
P 6.496128902114268 13.470667770477554 11.332290564248224
P 7.834374833774428 15.225589822735444 10.950056285049367
P 6.532669192263207 14.462760541347269 9.32431381604728
