21
Energy = -109.32014004 eV
P 16.78951279990669 11.90388916040334 11.687228041131972
P 16.748288906749178 12.16282450369999 13.861940908539083
P 14.976230341832336 10.690217824949594 11.194954023667858
P 14.118633032826333 10.283899012282388 13.214423422697024
P 14.611558041154245 12.114124706377874 14.334207406279164
P 11.95009265577609 10.762604233126886 12.976494983417549
P 11.709215753582848 9.824868847253686 10.99890569494964
P 11.986789674666374 11.472402896428894 9.465510098478118
P 9.998543178172472 10.982834750124162 8.519252770123074
P 8.1014364298553 8.374542608127497 11.093587679154437
P 9.53918069188348 10.004036330569008 10.588390803489295
P 11.86432542862729 13.02008666569069 12.655728558160318
P 14.00503767137645 13.645314456739275 12.866479975155636
P 8.377621965976145 9.336293219222314 13.031611514021515
P 14.912314536202562 12.895664300429786 10.970119865398594
P 11.650235103680936 13.420519430954977 10.504107132264542
P 6.7057561662847025 9.973514757884187 11.831242177415527
P 8.074396771587914 11.627433704927268 11.024169916360684
P 8.387306842842 13.309224466943599 12.227998011672915
P 8.522174015009044 12.59020276776913 9.004838851257873
P 9.443757704084616 14.077909068173101 10.421215878442354
