21
Energy = -110.12099798 eV
P 10.605920879234562 5.294011963609315 7.5474934126517885
P 11.205934230865475 5.9080755317563005 9.620424623568745
P 12.764003251355083 5.332503511883692 8.172945828777129
P 8.2298358685231 7.935931491783804 9.198395353731955
P 9.402125103495413 8.814747049104621 10.941029391549732
P 9.014413277087387 8.350360151471818 7.1793747494035
P 10.93490295509973 7.358550810373257 6.708341192424019
P 7.418396332169998 9.882871042665446 11.309174627458944
P 6.8234756880123495 9.678216574397668 9.14339141704891
P 12.31657312201693 7.506050830717049 8.498672659687008
P 7.9426777663324195 12.023791042283625 11.33158652624309
P 8.01885263428186 11.354995269103656 8.147263898761336
P 9.568871020753667 10.42107778853107 6.907789423144118
P 9.291622622055561 11.883304740802354 13.076506721680824
P 10.697449255992819 10.437386367249609 10.177131436331878
P 9.412367971824628 12.168181840825056 9.685996329613946
P 11.187819269455854 10.935819304342811 12.277978005638907
P 9.835332176914559 14.01641277296095 13.244970957297879
P 11.330259124585726 14.523749743719794 11.672936262052852
P 12.522981079289863 12.676516698644084 11.992513507053044
P 12.009389390971604 13.980156928678607 13.72002714391801
