21
Energy = -108.98291058 eV
P 10.980683757215806 7.008849187313043 9.070544734391571
P 10.376999458960977 6.563491300133429 7.000372316315533
P 13.972410354608005 10.674664760824681 8.086950901953385
P 9.136972074452984 5.869017300333269 8.68539548892432
P 12.772670355939438 11.961131249250139 9.21527138217529
P 9.225961648227893 8.011385092889832 8.195952634614626
P 15.827750901992125 11.583613391210807 8.45322883387289
P 13.612831051333838 13.545010118154394 10.292889976611118
P 10.641723258555587 11.387874766005284 9.39989940918094
P 15.613523082998649 13.278162793444851 9.717983191444782
P 9.628851326360692 8.806177534399021 13.784210713944393
P 10.888855661396503 10.222244451124507 11.26974389950693
P 10.614465727368431 10.680237846913068 14.503855806239486
P 8.89408114833787 9.377941407419463 11.727001606486109
P 9.743404742911979 13.336016061087854 10.025976805345566
P 7.726183630376174 12.442670612137166 10.156337627207934
P 11.260103691897212 11.845014613336213 12.709391753068765
P 8.413158799114827 10.471342486119596 14.737285703424742
P 7.467923363289264 10.780993135928249 12.73951058451905
P 7.689598228396584 12.94681939410934 12.307254277208697
P 9.858818015687866 13.554312777288489 12.267912632986425
