21
Energy = -110.0128729 eV
P 17.15432660479894 9.279104217677823 10.49051874457217
P 16.644906834325948 11.385203893394273 9.987784134831287
P 16.203899134025868 10.576216841892252 12.017627466869266
P 14.830107414116444 11.248081547705693 8.752972672012788
P 15.107023354775993 8.808099562775173 11.225535259373792
P 13.7700342808481 9.460598044591478 9.604011184275402
P 13.555949182799784 12.640477681479707 10.016114784674661
P 12.507898419064686 10.859389156320006 10.877499924065496
P 11.636203840402512 11.924857956727102 9.145238038584798
P 10.887995305816384 12.997789286770367 12.434440817784711
P 9.2211476510681 14.45441526888152 12.812278189137768
P 9.319504328765392 11.587435206937004 13.147665517010124
P 10.419545844096392 13.443572118829993 10.304994266317363
P 7.727390317250458 12.87339878953892 12.26565311950669
P 9.372820903024447 9.771635182699692 11.87904026052241
P 8.314697274333236 12.685909262763147 10.109242430788605
P 7.58474086878244 8.891251657789303 12.837650590418368
P 8.581001776276642 10.500405863795022 9.909369418316471
P 5.772329412552451 9.983080091042824 12.121077866916997
P 6.434021770081339 9.976427147810629 9.992194433187741
P 6.386568209188671 8.081623061129333 11.146047224489392
