21
Energy = -110.19026517 eV
P 14.588143614770878 10.928275110150178 13.79297929367087
P 8.975474379647466 8.874254130900908 14.319235532757583
P 13.468621128409751 10.267291451478728 10.662285982712092
P 11.389801131159413 10.625482243110364 11.351166350960856
P 8.800762913030379 7.856693555469888 12.378057992664896
P 7.017443471591062 8.115285021963363 13.648093974282608
P 12.567035562736319 10.246645443604285 14.428519699718372
P 11.81415241021076 10.326036042933845 9.185666481132902
P 13.755664308972836 11.588546610446832 15.748324644423041
P 7.929516709575851 9.856342703601545 12.65132223426684
P 8.629548967121144 11.547395322718797 7.623641792647624
P 14.487758084793862 12.869508325163865 12.713769406953144
P 11.830934884516687 12.301324378970651 14.868030152805586
P 9.990017957268021 13.192430754098433 8.26145988461714
P 14.369634762959317 12.301427052979108 10.52249272992048
P 11.15436848123059 12.833885036122691 11.484949024754014
P 12.092783447159858 12.341959538748934 8.249652462443235
P 12.421392651997575 13.585314516873725 13.167249876495832
P 9.26930134416703 13.073334932972003 6.141266229904371
P 10.217843746072361 11.10078723844062 6.175965695937727
P 12.625640097476834 13.563620644120512 10.02171061180038
