22
Energy = -114.83754235 eV
P 13.475782901771257 10.327328307621856 7.955036995188602
P 13.571668766613882 11.805473486629474 9.67935693280347
P 12.286623932599475 5.592876029558609 12.46265257309342
P 13.01953541892843 12.50015614568723 7.622546352098482
P 11.626950504245068 10.990357600125005 10.45763140101449
P 11.526869943076168 9.534795576591803 8.731384713005838
P 10.376133872809532 4.527576120952844 12.196791688938992
P 11.066837253450034 5.944927078932347 10.660461747894894
P 10.381374363459004 6.688154533594586 12.615412185655028
P 10.503594094145688 10.541939019438626 7.085998147682643
P 10.79192474284883 12.67475504925932 7.594170619676493
P 8.716209642300365 8.077678634126272 7.641648874614575
P 7.90895186855912 7.356623882663564 9.381706651772902
P 8.29265019902241 10.168950058349962 7.142211338258613
P 10.637334665343188 12.80410443919835 9.792495805792846
P 7.469985980691703 9.547619257277828 12.229655471114663
P 6.525957739073463 8.688665397696722 10.406915756102213
P 8.152952166895373 11.647960219768104 12.002975947391104
P 8.419456055391617 12.697715347274682 10.111796015632347
P 7.336020472584283 11.709494635576776 8.440645146405458
P 6.008377491129797 11.264071202873538 11.80420981036218
P 5.7547073293301265 10.614399993492706 9.592554299121815
