22
Energy = -114.62932596 eV
P 13.539172578216073 10.8374650413085 13.738173871920518
P 15.283487257578487 9.363514241240827 13.42547381045834
P 14.925301858910569 11.074124300877022 12.042711485822174
P 13.160466897063715 8.695632307246232 13.373796760912494
P 11.957542901219435 12.905800910206807 10.74379844957999
P 11.161028464937795 12.466851588410144 12.75141945032737
P 10.18426224857268 13.857840254763513 9.833301319773529
P 14.13296995526477 10.005296852393139 10.286619566652663
P 12.941302732873918 8.347276276250335 11.198189144275142
P 12.23258457901653 11.061135825246652 9.55693359821642
P 10.06777701605364 10.675392671821363 12.465961475776954
P 11.106885823111032 9.632751921482557 10.812876721324896
P 8.489736238520143 8.345960946343554 13.467940525506906
P 10.623783200087518 13.791614078206992 7.669308115414447
P 8.380999049020854 10.664216246713472 10.956186785324267
P 9.239004288831065 8.986463554141102 9.84299038448554
P 8.271269150824164 12.647360314617426 9.945026421443284
P 6.825298077247992 8.891546696393378 12.349541052114093
P 9.89637196849886 11.880068049439865 6.796385029331937
P 8.282912820521808 7.504939440886312 11.459445880385557
P 8.631952189838026 13.708757419794292 6.6907179843223
P 7.956511062055055 11.94661142048112 7.88382252489517
