22
Energy = -115.76984328 eV
P 13.142011447921305 10.971158078045763 14.35829309467159
P 12.619130126900895 12.1011734281572 16.242778735102817
P 12.502040027614589 14.13756562839119 6.221706506017403
P 13.806008819900448 13.402430831438814 9.80871712521243
P 12.01407657713482 15.326573519816666 7.823393548071058
P 11.513816969822734 9.516876295888903 14.521940297101251
P 11.760009007254624 13.796886851057376 14.995960210175976
P 12.307923190295758 12.656735041305746 13.120713805229997
P 14.284010232690424 12.127006979459882 8.073586416884195
P 12.358439298826195 12.023601622784657 6.9039569987891705
P 10.425985509892913 12.369000308575329 16.050884589285147
P 13.744123881605315 11.193411340608137 10.055001389283134
P 11.667028773180293 13.972833566476211 9.572786705810081
P 10.222344657920862 12.123977614412386 12.728185450997726
P 10.825417219433598 12.26022498772756 8.467738096256113
P 11.673351490664649 8.802202414238256 12.441924925712977
P 9.794248732795424 7.385123445890645 12.215487929312685
P 11.669911900181324 10.549123467214782 9.537027357474852
P 9.719643861303247 10.860311097288172 14.49612158224364
P 10.501176181300613 10.355495593201507 11.39959859737425
P 8.153656194764697 8.443718586679557 13.12360528660351
P 8.561687738319385 8.890611141066037 11.106633192115735
