22
Energy = -114.99135101 eV
P 6.252528330765734 9.322209225599778 9.904310822274939
P 9.145931020694993 7.733058333472774 9.707351170982774
P 7.847613932004519 8.416231842798371 11.152871790774244
P 7.186780745439816 9.611547783049405 7.895195871939376
P 6.52031261290195 11.28431988109743 10.8492689518211
P 5.8977386312091795 12.65292826369255 9.305048081209005
P 10.691779023927321 6.880396512073344 11.083569512986884
P 6.864475101565183 11.769036661901879 7.4926069393986365
P 11.990000796223537 9.154521517479067 9.786880536820947
P 11.455803714348368 8.865808990169434 11.926144279039612
P 12.358918766104965 6.983383990666178 9.526209228860452
P 8.850067591323562 11.02401273976629 8.241204750303922
P 8.1569756830984 13.554769830305093 9.99602416286337
P 14.028778525541796 10.044473447726386 9.830253576816625
P 8.77868438251196 11.455394142145495 10.446955965661768
P 10.013274910407356 14.57617685960045 9.16580617021652
P 13.983185035215348 6.706544374502979 10.983099322579195
P 13.353707947715465 8.056457297334138 12.672483083998753
P 15.374736755756388 8.312879705555455 10.216147936935975
P 14.723177735824558 9.686174266933572 11.911576730148127
P 9.60103990178629 14.794187944427938 11.325191661981982
P 10.881821379620051 13.211905391007742 10.598585000416206
