22
Energy = -114.63934976 eV
P 14.799741617868309 9.564236194455257 9.602785387319573
P 14.307785191761658 8.167589431953816 7.950258190758982
P 14.161974198596198 10.361758135534528 7.584205951167436
P 13.052579849456922 8.226509711920919 9.805070967891243
P 13.163316988622999 13.31176769487064 9.963107413869297
P 11.9956930787281 10.700108823115311 7.530557224847568
P 11.809626335624849 14.154629451276737 11.524358555158548
P 12.511826085046005 12.046861287974089 11.670382683620163
P 11.328624271605957 9.54473694186512 9.325188773823609
P 11.792865578397333 12.8388897493886 8.267588949233224
P 9.696537083578084 8.707052539066959 12.716482818937918
P 10.582463690426447 11.131506295824504 11.009908332993518
P 8.681711328260045 9.483515691562927 10.886423928142774
P 9.912718070776775 12.35458437710938 9.277040777671697
P 8.790304499746725 9.865199454352942 14.367850950397392
P 9.467346187614021 8.473070065214193 9.110603172256585
P 8.190739970412846 7.737788231972349 14.062297384974727
P 9.684567711783679 14.032795639766913 10.703973224166655
P 6.562260524636538 9.579508772738086 11.515790758392333
P 8.967673726866234 12.485901249749856 12.237931187530469
P 7.511209645574128 11.54544735347169 10.863946956204574
P 6.709371940321627 9.367480482520207 13.705183986347054
