22
Energy = -115.73110536 eV
P 10.139776506867747 14.535371798866139 6.248477192476849
P 11.751181996948647 14.176001714057074 7.744319484488217
P 11.618351075917952 11.986460851873785 8.013383310611868
P 13.89845573769635 12.421437372479692 10.94713924255348
P 9.843689911958663 15.098716503915304 8.386307482498793
P 11.803975090898055 11.803114163490653 10.229759886543404
P 8.586347557381272 13.51017722720689 7.468181796345962
P 9.424586786141672 11.552065058603251 8.042905854970158
P 10.286119692868928 12.881240385864668 11.260527126923924
P 13.276806664006125 14.030600732389445 12.310997359174086
P 13.719233298387591 12.201031854567976 13.149368303083525
P 9.489154602209187 9.982208704957852 12.966627777914583
P 8.79193946945691 11.731943235177116 10.215501291141248
P 11.67795893888366 10.435643552322748 13.24536012078727
P 9.301053319848945 9.587625117142593 10.780522532633666
P 11.422494730366065 9.533220622509862 10.07708224134229
P 12.174119015050257 9.354913502895542 15.151361084003176
P 12.595569630099828 8.978231093334577 11.873107251770907
P 9.594328579613997 7.829051948524548 13.353465672351096
P 10.489918346871972 7.935084931708268 15.41696793881823
P 11.571656604074212 7.145782749392236 12.48607703544663
P 12.468581733635135 7.215376167902643 14.55785930330319
