22
Energy = -114.90069952 eV
P 8.752853676721761 15.531697698887633 12.470339321563452
P 9.814530823245414 17.46438486764637 12.76850997446867
P 9.635235728912486 16.596884303525645 10.725318429641977
P 10.6258252543872 15.595803773895128 13.66958769750518
P 9.607258226222541 13.218462046362854 9.661382645111878
P 11.723914946917507 15.938583201079219 10.378857227051354
P 10.116396034930961 11.07703024291076 9.917228196198886
P 9.982914238448732 12.413902836538213 11.695697227399261
P 12.321895640027043 15.073856728095542 12.353907144978253
P 11.534336373058524 14.137686840606097 9.028387561157503
P 12.371111656538934 9.513784106960395 14.45010537003198
P 12.119781542771966 12.852742265706103 12.135734700136565
P 14.506958323046677 9.164476421786206 14.081318364842058
P 13.021547721736319 12.932135930384936 10.126971111797165
P 11.44863834524011 8.197032572046576 11.245159148441731
P 13.514040899747027 8.110578119520452 15.707989707403524
P 11.227424772939848 7.864844171783289 13.453694700652282
P 12.288050392732197 11.007440427458603 9.327491789425435
P 14.71581757360798 7.636597173212444 12.483661825782807
P 12.9630020780844 9.863284573067606 11.132942018260284
P 14.85230383613509 8.972319648914455 10.724826833944167
P 12.681153527180854 6.661463662244883 12.2858806168395
