23
Energy = -119.66643393 eV
P 14.172300896377228 12.51798579450645 10.046425534484158
P 15.486679000118466 12.991484528152194 11.818422833666657
P 17.13175031210661 11.976378876014588 10.54470555935742
P 12.021588883634415 9.004409479592129 8.48965703391714
P 15.303309046427453 11.032122848481489 12.83162271214068
P 11.287934072172321 10.661865720888493 9.775052732180983
P 15.585637070738848 10.947374187301442 9.289603127315573
P 16.327403137666163 9.978819994167646 11.170507050435491
P 10.261297293785892 9.38802322226032 11.247873788966647
P 9.17656933041268 8.070703209887744 9.818527164791359
P 9.977657926643635 8.449243520165643 7.758518251318785
P 11.051901266026126 7.078370725767357 9.122670337794004
P 10.338653948456743 11.64939856686502 13.58308377936464
P 5.850164108266968 12.907219061638001 13.109763605992448
P 8.890316186361037 10.963804182129744 12.0602403136725
P 12.91940766131333 11.147990718061406 11.274127635816688
P 11.843814052222237 12.763658254238162 12.415818619291105
P 7.24128516474976 12.58943491381964 14.787788431869025
P 8.715614169742869 12.624561324846722 10.624731241717889
P 10.56388700472362 13.808916427511171 10.899437845023344
P 9.2420764635124 13.476953027097512 14.077754189284493
P 6.584302090850678 10.991634109456022 13.380172479104994
P 8.735049254823508 14.323040491128145 12.072484419426214
