23
Energy = -118.82962509 eV
P 9.214877641835079 13.498255320544022 8.689621100820393
P 9.977230836961677 12.026566911902155 10.198475328482518
P 11.872342721920361 13.056558295451088 10.731315536767822
P 10.520194368458425 13.234301749524576 6.90020453132309
P 8.527061606430575 12.226802376094653 6.996825749240766
P 11.024483980576154 10.731743572335095 13.142456034617322
P 6.349993219878559 10.09113838459737 11.54446722023753
P 6.412412066086275 11.202196078200263 9.766137676441115
P 13.64854358957972 11.66375241345388 10.64809671348194
P 12.296563081183464 8.950840180731076 13.463057314224095
P 13.134863499842096 12.952875291964677 8.873338770307104
P 11.97529897833159 11.639262939866287 7.472546009046684
P 9.134879844671561 10.12353064112719 7.45866100039754
P 10.800697299526792 10.443710147522541 8.909290709151783
P 7.386831271740574 9.511890695699524 8.777464812581368
P 10.339125880287257 8.887346473571464 12.490496719676662
P 7.899131188443613 6.859557233384321 11.492131295529552
P 8.095271415110611 9.028450165101248 10.831291365540814
P 13.062342512636222 8.185312032218022 11.371832211413658
P 9.121146966726013 7.2073787992031715 13.333833330699461
P 13.294832374837425 9.688267572739631 9.77928151052242
P 11.00687697235348 7.808092851048349 10.586937675741105
P 9.97802769483752 6.055198885974878 11.615266396010881
