23
Energy = -118.61468803 eV
P 14.90118913538385 10.261607448049457 11.843089031745638
P 8.183222169781097 10.406966756963286 9.702446261151705
P 10.647123812380434 11.346922081871318 16.119533260890897
P 16.01852513817248 10.790944895125907 9.191823604401675
P 15.971304834925776 12.983177904252452 8.886672929933564
P 12.009144980043695 11.254111580686049 12.813416241478302
P 14.341514454724452 13.85971780607217 10.118218367008142
P 12.514924845386936 11.249453311099872 14.987818773164099
P 6.9769843748079925 12.7290284814591 12.1717556314869
P 16.879722054832865 10.558455425143576 11.219276764146084
P 7.2668830828873405 13.882089015241212 10.199014586173716
P 8.55515266472671 12.523956681885858 9.048389685794307
P 6.833047719892798 10.569369638679417 11.45862861998919
P 12.899115191624173 12.234510390269458 9.659313684537103
P 13.97111847799431 13.306071829041617 7.995316591893978
P 8.857542309099653 9.647457194416276 11.703069766790918
P 14.471028484668398 8.925496788870324 13.383401426956741
P 13.943493203265875 10.300400540214168 9.804021099196017
P 9.095568213790884 13.211614788494634 12.563138295516435
P 9.794769521758768 11.181251095820931 12.989675887901642
P 12.350367039253017 9.309904529412226 13.837184005871027
P 9.046616944028314 10.641670705006154 14.934256118005933
P 9.54011436806179 13.89429413341598 10.439012387458247
