23
Energy = -120.22323737 eV
P 16.78398389782781 14.057199897626798 12.934112825559545
P 16.267147479581965 12.849385825634688 14.713620845210457
P 18.223067278365054 11.75526787581227 14.120012359352291
P 14.667566986068834 12.44128696882023 10.624568379888489
P 15.333164503490217 11.012840440735554 13.878286388644492
P 13.34664873235427 13.647309225650503 13.173687348920337
P 17.975965552546672 12.438565226537165 11.986339183471593
P 17.09480887237801 10.503893925096378 12.632909322837383
P 13.69054946701446 11.536560895145561 12.446520031104404
P 11.839104016713048 14.193597571084906 11.634701107683147
P 14.907373293365444 14.406470982652085 11.707041698375004
P 12.74369609671011 13.20060911425285 9.805412928169371
P 8.926449496333094 12.988820158959793 10.487027564330926
P 5.491777778228241 11.009775984385142 13.689772130704462
P 10.098575359995182 13.01452470769092 12.341493932412135
P 11.874241962660616 11.212728226958893 9.272124048469864
P 9.663656655981924 11.296729222884583 9.206305437756939
P 6.46882674018178 12.7993960823805 12.888978229575999
P 10.489575428418645 10.86608485873686 12.638392111686425
P 10.699684949891541 9.906553785085435 10.658871265603922
P 7.322757535581909 11.624650412026138 11.136631253314922
P 7.522554735417227 11.482314793726138 14.345013611416446
P 8.371385285954705 10.227434635450729 12.6399512479085
