23
Energy = -119.78627228 eV
P 7.061569933089972 8.868938118497091 12.577320995589105
P 6.970234940068424 6.641009346931488 12.427201591941406
P 9.88940260105145 13.355603060450672 8.950394361860349
P 6.54338994872599 7.90674278017356 10.653387362470728
P 10.07997993433073 7.906710134310386 11.015458825615145
P 8.812609283859588 11.859717867784873 10.20580882508682
P 11.548010373834986 10.161712433855337 8.739597120495347
P 10.182196848456748 8.711335269288451 15.314903333319679
P 8.355156961778617 6.56805450656639 10.665131073621327
P 9.274676132847267 8.917523279912484 12.808458935457113
P 10.980267804581326 10.764566413655919 6.66956185740448
P 9.845611539617872 8.774430622009682 8.968781807206497
P 11.521988287594839 10.344562413258052 14.665072620114781
P 9.937630954273933 11.006938188438474 13.175167037777301
P 9.527128719138025 10.817161032736877 15.405475391910663
P 8.694687456259123 10.782604037961388 6.7230820757170004
P 8.176631877216446 10.225224486886612 8.821316642388387
P 11.046765189753843 11.854893045395414 10.116142949845369
P 15.058230475711191 11.342965976748852 8.626493645280288
P 9.862357796441453 12.662485199574661 6.817612731282916
P 14.110889957087105 13.254534892521761 8.071821875919266
P 14.610892030051028 12.84227752318011 10.177448190524654
P 16.21886054962306 13.217478290630472 8.712588939873628
