23
Energy = -119.14034787 eV
P 16.753912167559655 12.77774070963922 15.13055303399053
P 15.495550351380551 13.679752922809394 13.604496788804187
P 15.343245467715027 11.72243051313668 16.357763769445953
P 14.782394466945677 11.686253528461899 13.00736642854204
P 14.005720173277988 14.606635471720324 14.989214610033576
P 14.06958623732626 10.585234979021843 14.770573966529904
P 13.5456401465412 13.101949217476943 16.53492816498592
P 12.189049304671803 14.728124126182792 13.801885302975018
P 12.6053372253522 11.554327095324457 12.457839205180425
P 12.945053573250801 9.193148182696 10.888087480973521
P 12.428321893451077 9.451020356505863 12.953429940781188
P 12.374469441973073 11.278655315162247 10.249962685158964
P 12.158040777097622 11.588978424719844 15.545057410339862
P 11.293552075377564 12.722003218922417 13.820403009472107
P 10.186152444953164 10.789233205923138 10.46236864551995
P 10.117236045652708 9.112368012802127 8.973615661969825
P 9.135979199526066 12.415758802697553 9.424152934733147
P 7.309507404335449 11.198620193222736 9.313940097354095
P 9.863538073838265 12.225530567468867 7.360078871299549
P 8.015958423269598 9.345524196030379 8.242998562701075
P 9.692044240761966 10.036021390656444 6.980570730710318
P 6.405927672880868 12.092691794747077 7.481065693669501
P 7.9530663161202995 12.777280897930792 6.318930128087885
