23
Energy = -119.63911783 eV
P 16.483310574800242 12.723190571658263 9.16057843630107
P 15.522140127267898 11.810345605246752 10.92881257915834
P 14.83884910924968 11.27601227698556 8.905556449924088
P 14.423986145793473 13.280582345744998 9.717228403961752
P 11.1548363586425 10.234921709575165 7.622435044631926
P 12.760122443399652 10.426987412695196 12.676819606541128
P 10.54502440132898 11.186116046325308 5.674645648949578
P 12.225443899709644 9.3095041645119 10.875764222144012
P 9.515107510536247 9.371817110686212 6.352465903280022
P 11.635924942346389 11.46947984124114 11.125717619527101
P 9.782220419856067 11.703113558028415 8.636802369568661
P 12.048071789243325 13.109467079932598 15.13165512788835
P 8.582793398098412 11.366773245799829 6.74964937755658
P 10.506772530235253 8.159226685369442 11.725125759646051
P 9.838550802929909 9.63345840709501 13.21282277974884
P 11.033373335499764 14.14862027608537 16.788514345089393
P 9.992411011412585 13.852925255815837 14.868747265540962
P 8.979475232361727 8.456193588226133 10.147463417385229
P 9.546268339972306 11.426966317401615 11.96372235725115
P 10.382224853295911 12.131916634896838 16.18419243494365
P 8.494258794231548 10.636278990624016 10.138686111324807
P 7.687535894022653 9.08325729881866 13.329448667839959
P 7.185222932191306 8.413407234156253 11.443576571725314
