24
Energy = -125.4528063 eV
P 14.164599723178403 8.140340482156914 8.318204595522984
P 13.62042118914841 9.137400189603301 10.190413929794738
P 12.755763421855749 6.39165978675696 8.103489372844093
P 12.559242564050802 7.617222014498042 11.376459760004863
P 11.419386503023606 6.533765856674467 9.834553576997353
P 12.402455531643373 9.626115008543657 8.428402321414797
P 11.315962494025348 10.354632515944015 13.382724569876506
P 10.97907401117437 7.9346967882169865 8.213244120108051
P 12.518439940632753 13.970172640486112 13.074282223513947
P 10.016028899638611 8.597777198023977 13.757253524173423
P 10.801318571779404 8.996314551405176 11.706120823619772
P 13.319439380396995 15.703268392924304 11.979109755012649
P 9.106586628678896 10.613965393544639 13.58613124401799
P 12.942766503453493 13.808158634915205 10.920818569998763
P 11.253781569360418 15.027930776489573 11.617572204594268
P 7.864499950546595 10.801346943011215 11.694316801328926
P 8.003319428221133 8.964992820091629 10.381630016766772
P 6.050098185966231 9.320581725196673 9.390721906107533
P 9.51405585714692 10.032321035372284 9.072096476468442
P 9.183637975133205 11.944469452787512 10.314324048371287
P 5.701029004858907 11.444791645900231 8.937050431420305
P 6.37370712265761 9.94143900764006 7.317495671718891
P 7.675723812692376 12.56232520195615 8.710610322832604
P 8.411142211124746 10.957002398368147 7.3437236669584305
