24
Energy = -124.64035594 eV
P 10.537546530778853 12.93096200851348 7.323663707878061
P 5.742519239124835 11.198646203797871 8.447921631508024
P 11.956880729400625 14.15301196659727 15.331378993681628
P 13.079133945808637 12.561360548217916 16.355364185777717
P 8.357731883294717 9.57213141947975 8.773936499232908
P 6.376522640250555 9.723698528518804 9.775703012205804
P 13.85256487215528 8.502159105095917 10.252786393203717
P 12.244392887127004 11.786760360969696 8.15069179719152
P 12.170121114719294 9.883902777882163 13.038034952757853
P 11.732734168398025 6.578294867558505 12.458386783373335
P 9.26333165547801 11.119455130845035 10.17712032694237
P 10.794933184019488 8.449416022916836 11.989418034508057
P 11.92668727464389 13.893627250394646 8.843025492092554
P 13.967999779922055 13.591342934091282 14.627637012936843
P 7.711826182138828 11.230029683978145 7.4379264526003235
P 11.4427176219399 10.695944910411917 9.879454846740476
P 10.584428888006098 12.857857465206267 12.086780640217327
P 14.16143273394541 9.20562569490886 12.36747115533894
P 8.852024894890048 12.77301886435479 8.78773686383806
P 13.811157614080306 7.049397655134205 11.987246265808796
P 11.6580726990209 8.512767536527294 9.963306631360041
P 13.729273589478558 14.65849694577101 16.537206238092658
P 10.368311831666714 14.14198420287155 10.42485121648028
P 12.374395483996723 11.626849360241089 11.67969231051716
