24
Energy = -124.38244284 eV
P 15.300819316372603 11.50465537514151 17.96625920789635
P 14.866331332957854 12.676180814430584 16.14962271666366
P 15.142933281004137 10.50106546273491 16.00772817410779
P 13.341405195899856 11.322996382480307 16.958603618046393
P 14.909776996323608 10.708879775423824 12.330677415485086
P 14.65610389075401 11.696488742629594 10.301643882361288
P 12.660918860924099 10.224593302605935 12.357305029807351
P 9.782167485706807 14.942137651220104 15.218485483999801
P 9.286837784351869 16.660034923077056 14.572305810957987
P 12.774567033832598 13.490724874613182 12.856980270934669
P 14.879103590599508 12.883099402664557 12.177616121546361
P 12.466604914629722 11.090845908565015 10.290638336949321
P 11.866390536436167 11.726899473348956 13.668663846462254
P 9.672547423358019 15.727025351420622 10.471964362734822
P 11.621660237772728 16.226101641454253 9.31427970090163
P 11.475494505833808 7.233633819790613 9.704645623562737
P 12.766200986150206 14.36677503097561 9.167758162782052
P 9.761127961295799 13.597878482883694 10.960121267124508
P 10.141462557964187 7.313983586809591 11.448515968450785
P 11.933742540569865 13.144804454894826 10.838728016657326
P 11.115500779707641 14.66218723572063 7.775310361596384
P 10.071534772425327 5.580927087628579 10.08906178465334
P 9.169996843258335 14.160305438077065 8.93159405935343
P 9.314210946400136 7.535215555936497 9.41893055149323
