24
Energy = -125.08067921 eV
P 7.976013975340177 7.93028875796526 5.6101417005697884
P 10.128225653195141 8.240073982022166 6.001661747563582
P 8.697416322031797 9.907167406593173 6.394709064104646
P 8.953896954660655 6.780534680759975 7.248993363904917
P 13.90530806203916 9.24304681399751 12.454107796062132
P 14.244881287834303 10.851127951523349 10.934231911748544
P 7.987921791075046 7.821673423147171 8.957274819468449
P 12.325487556357558 10.998063882795229 9.877419666225068
P 8.995074159011805 9.770341805303804 8.587134968834862
P 13.730435082292585 11.406604625812635 13.081304151617783
P 10.969666389401585 8.323964874404673 10.378108416516147
P 11.794146528460457 8.516825169254645 12.510034798525453
P 10.85612852826237 10.309743201640433 11.57741190545925
P 12.465033925882185 13.18910768896199 9.92211922470821
P 9.154096706435386 7.18454453028088 10.762037734962707
P 9.502979145704614 12.1383467946633 10.22963020032503
P 11.561538680112971 11.861590924048892 13.126979678387595
P 7.589881137734707 11.265718659266254 9.53472226598902
P 10.407051630264887 13.78231107278494 9.110590835245418
P 11.715806232279125 13.744327455198066 12.023252002794477
P 8.87244843963962 10.02824488382943 12.902787913446792
P 7.695207024813549 8.368405245619323 12.130576396583246
P 9.588097818490148 14.08465776590248 11.228294700975715
P 7.103885945575369 10.473917381119593 11.637103712876385
