24
Energy = -124.31847474 eV
P 14.705834781380938 10.320113290315506 9.607403650077012
P 14.965013955669324 11.169368803640618 11.716133209252913
P 13.566548230267792 7.970430422686989 11.929127378862923
P 13.776275009878749 9.823013286576215 13.028506666299439
P 13.180431670327339 8.749280466833932 9.892566901279265
P 12.898375019081227 11.70340778498362 9.22226396777295
P 13.66676478564768 12.873496926758195 10.981204754297917
P 12.124846524080068 12.775048828827366 12.545310632027963
P 11.708416179695526 10.595887998291609 12.319844964016259
P 10.624980856052831 14.001107095579469 11.426013024605242
P 11.461608039734951 10.198239358351575 10.157822363444687
P 11.057904170811621 14.422305056953634 6.969426492025357
P 11.425129850864836 7.864504778855687 14.467187101775664
P 9.267989400397882 15.459742122034966 7.723103818004979
P 10.702517676025423 6.110305071802057 13.470000852711271
P 9.282276788707888 14.639679860185982 5.680103533983828
P 11.148549741458739 7.81236469614276 12.27098210265235
P 9.229557804282875 13.279793495134177 7.409628830152665
P 9.56950611905134 10.590436756587113 13.140955039054791
P 9.352926794577948 9.07607815465899 14.670342219957975
P 8.991401534873553 14.45473017274224 12.86203574129638
P 8.752876057182888 8.711143200281647 12.572765961087436
P 8.555742044577645 13.231497654174314 11.05684904208531
P 8.1884684843244 12.371966236554835 13.084363272229705
