24
Energy = -124.23059289 eV
P 10.391664747974398 13.880280440483094 11.355024071527472
P 12.93477591113892 10.929045677375296 7.729491721981286
P 8.103101729085308 12.308383797335141 9.129299092925455
P 14.57701142295279 10.640152393414365 9.160193059037587
P 8.367074496538491 14.52593786012559 11.714443238825877
P 12.856110214928517 8.699656775690952 7.568046282440839
P 7.11147485869205 12.892572825909369 11.074179739480353
P 14.424660007539593 8.47181490745976 9.171327461251206
P 10.166584008150945 13.200160534478815 9.254290368858861
P 8.872144036508987 10.297118475637214 9.647126450524834
P 11.09736501043193 11.114437584361323 9.235363026947905
P 8.328692012375459 8.680466257443019 8.156518564552078
P 10.989641221451247 12.171222466526396 12.669988380352594
P 8.086665699289474 6.971868099288173 9.576088065687586
P 7.078159333761458 9.635993750055274 10.9895461036671
P 9.898989278283002 7.063567254842386 8.298067836987794
P 12.311875445781121 11.220636739686212 11.182016203265265
P 11.364625547400594 8.445769386550454 9.224207472523103
P 7.339301974907392 11.189380826599486 12.528185231801592
P 9.435299482453054 10.624016429385124 13.181067406696602
P 8.257934746743828 7.8569531364783085 11.665282980790598
P 9.980883842115759 9.267311571898901 11.502007184729731
P 12.768754856814024 7.618735108993281 10.695008017748348
P 12.126393304967209 9.163700890268482 12.162415227681599
