25
Energy = -130.5459959 eV
P 14.798631801821914 11.077460795897148 9.314489054980054
P 14.019312238328567 12.119135221377848 11.175165408391797
P 14.46556111836434 9.937613596108665 11.199584773539954
P 12.742607707848537 11.12403856474404 8.39908527617216
P 12.484892337143124 8.986088901786697 8.783817164131637
P 11.964171741327096 12.188801706707366 10.243992157692858
P 9.980697262844782 9.607640509718463 6.497230534544803
P 12.463998220969732 8.940609897511361 10.991496412606832
P 8.766512738192025 13.088612689506752 8.482311354592674
P 11.210770479364141 10.653462576510746 11.57166705905441
P 10.268552207378784 8.612705945638938 8.461798807382053
P 10.314072415477009 7.428793125815293 6.561900691798959
P 6.991877425475664 11.847464960175701 7.839639483787666
P 8.47351962601525 12.657794353180654 10.651529659149794
P 8.256163848246135 8.224398330927299 6.249668872126418
P 6.780173299695936 13.429754895986276 9.39540281011851
P 7.304158671400137 6.851420254552145 9.801172932315664
P 6.946423520728895 8.286755816584359 8.10535231834472
P 9.263028729844189 6.588252818788787 10.857580290458534
P 8.630091171230838 10.435874432236709 10.461876890153617
P 6.762576406356495 10.159680815464712 9.240400988224632
P 6.344230175237071 7.854302600070128 11.516659564005622
P 7.807687771260792 6.415036440452677 12.584586442131345
P 9.406316444607453 7.994327114660201 12.560932688286501
P 7.767487566126064 9.448088592773905 12.26236975792049
