25
Energy = -129.78610107 eV
P 6.645227155860035 7.503821707434572 7.654167222904544
P 6.259700227932138 7.201047290316269 9.907154124572534
P 8.254169429297269 6.336047786127952 9.738990702675682
P 6.6559015635023835 9.423105292291908 10.05512893710393
P 8.88903376615212 7.682122049870344 8.047654750820923
P 7.611142257148644 9.490403337555776 8.058072029252093
P 8.11867322986941 8.336375583940494 12.91270277295291
P 8.7784135990705 6.432351195883849 11.95689346002238
P 9.010662284112168 15.893082049879382 8.88198911337385
P 8.42341899543321 9.892859475271461 11.302347350702847
P 9.326787504925646 13.6711718508865 8.587990571846667
P 8.451563885999752 14.494120544920328 10.483007912812717
P 10.266019711640993 9.01297831376854 10.297672342501476
P 11.463789027876524 13.95122563888038 9.274828564492337
P 10.875601368209903 10.79456928280558 9.119311452525947
P 11.514176185511795 12.199499982377626 10.694380480509569
P 10.214929052035755 7.617652560153996 13.21218295066421
P 10.445032905417047 15.523718885061895 10.556241453431294
P 11.276171848035549 9.324025673040861 12.237543827353381
P 12.553880669943577 7.829789139234879 9.48705699424813
P 12.72771225759496 9.705487543878455 8.357586040305376
P 13.724700772430898 12.101166139604796 10.801539170574298
P 13.176177167404678 8.359238053156098 11.548863885360507
P 14.51732247781307 10.725724146370753 9.237365911365368
P 14.563541727086216 10.107947756624428 11.394462066104198
