25
Energy = -128.87035653 eV
P 9.521190588679925 8.429013070118355 5.1127570890070935
P 11.876005756017697 10.20248234168579 7.511085860053514
P 10.886648952290601 6.936434761982875 6.0335206688089436
P 5.736179370657566 9.778852304804154 8.846811682292087
P 11.617375691326213 8.968640314626626 5.592198740057018
P 8.612190351301292 8.857436624444873 7.151101463822808
P 8.830553935572507 11.018088795575421 7.476089182601466
P 6.841130828400705 11.63152123687538 8.20200944275322
P 6.58001465969583 8.030989496360156 7.664888294610804
P 13.282720211765337 8.769062148232777 8.262180677778527
P 10.037361381351946 7.444220312203969 8.18201396291838
P 10.219056020481112 10.526567843999667 9.337438790144512
P 8.759908716455879 5.710343705828957 8.377587430608669
P 12.090335858709368 10.64492218547202 10.743866947746378
P 7.177535045809698 6.731149900642199 9.389146398736088
P 13.332030630120412 8.940975968208432 10.337712430833195
P 9.387250384847077 12.188661065696742 10.65137428110482
P 7.021181078212083 9.758035724361072 10.658328863939811
P 8.974346191674252 8.699864179822274 10.001112770027344
P 9.395341506188537 11.3601465586579 12.776233733050574
P 6.3703754445126775 9.038188257255186 12.529367547580474
P 7.218643110040533 11.969233780899346 10.442864582816203
P 11.126590783505709 9.909291510136168 12.580864208075218
P 9.832287119031541 8.164876971643869 11.979406746286047
P 8.37501584811485 9.392270405228315 13.261307669110163
