25
Energy = -131.97169967 eV
P 13.57235754128857 8.568937963039602 7.040660883220944
P 12.259817266105266 7.261168101156444 8.281061727295414
P 13.239912604538787 10.60298007807879 7.929684206213966
P 11.063820973482672 10.340132664444301 7.930746000335393
P 14.273791634717814 7.809187558458855 9.078214024710666
P 10.814484031153068 8.629114997875885 9.297413087359137
P 11.407869671359414 13.57545029653166 8.789831226551998
P 10.194095424269957 11.83475397392371 9.31673750969753
P 13.94461660625884 9.855677621237918 9.941536800892996
P 10.349444141166302 15.19676177210832 9.825063114564006
P 13.363959048327846 13.954134575795507 9.905457174508845
P 12.41525169441569 16.06849802291391 10.015493215485487
P 11.243849072037051 15.485538952612607 11.8400454652957
P 12.139707195703275 9.184551426805788 10.991618286121636
P 11.260988021011109 11.18905718919335 11.43425418685994
P 13.024026814167932 14.168789568031874 12.080025334450019
P 9.45943153697187 10.681023760182448 12.650738432824204
P 12.760321101439251 12.171352315905674 13.017388991599832
P 9.402509130143201 12.665232528658608 13.608942785042
P 11.389063682976886 12.7117531039048 14.64811582243296
P 10.201041469480334 9.408894491238174 14.268077912568728
P 8.136376832509214 12.043957833148683 15.331570094632752
P 8.34267915818517 9.818277393377167 15.469092339223659
P 11.381064928575396 10.764077492221656 15.644924052461521
P 9.541260582520314 11.192436481959664 16.84504748845572
