25
Energy = -132.54693003 eV
P 9.876899608523084 9.61060720615507 6.665759981245032
P 11.753175525261314 8.399960017901545 6.844446469005043
P 9.941777827352233 7.815845957185413 7.9169787466517345
P 9.966807209162448 11.145973707600199 8.320467684852575
P 12.172924230398516 11.3925381534653 8.194613464134093
P 12.887339143210488 9.33995663331173 8.546201520492918
P 9.657084921535871 9.7859214862378 10.039885690167038
P 11.67966370204369 8.789898774571304 10.323057273832102
P 12.761618158505655 12.147557481947327 10.253741128602966
P 10.793777485665514 13.076022764832278 10.727778948687332
P 9.616386081810509 11.433113155596365 11.622257014642736
P 12.814686481521935 10.252746720386305 11.532477991211099
P 13.020500544508698 14.87387041302058 12.619959395438116
P 11.13862354750527 10.493265064992325 12.953475528300674
P 13.83441886068752 12.817199568247487 13.194683539037054
P 10.944582039543361 14.009722079835814 12.732811572307874
P 11.795967410846266 12.361896033229282 14.031711541739003
P 15.183290150957566 15.424325901863144 14.834308333805147
P 14.997967425477079 13.21800001061916 15.097516709669977
P 13.081729330500112 15.993139753068812 14.543131138513852
P 13.397572191750017 13.100633496771554 16.586986319917674
P 12.098470715128167 14.876398350359086 16.173074214870432
P 15.353751381030984 15.993335717552586 16.980967542032666
P 14.593117509010028 14.232886173826298 18.123628944499735
P 13.242848967808014 16.0201658271667 17.74505975608691
