25
Energy = -130.25003002 eV
P 10.040978913312067 9.553816120987706 3.882090841210361
P 10.038000543462477 10.958781330241758 5.639498955384599
P 11.803073435726683 9.831891535622667 6.490665048955218
P 10.703969204913488 8.123816591453847 5.470924219231903
P 8.711705004472025 9.149060282575805 5.586665462845417
P 13.065024359109161 9.264217545432604 9.560604267755089
P 12.932422730827465 7.207589165536874 10.436624817521535
P 11.038863775205696 9.572477874193014 8.596509913162642
P 8.468801798098736 9.118213866554717 10.895474209963925
P 10.72199233956367 7.728813510591068 10.717943751491134
P 12.330554682421502 8.955572330765923 11.636628201960495
P 6.7866771364278415 8.377208059224575 9.631722866687136
P 7.117094570783458 6.241001764490318 10.14352005666214
P 10.839407941450665 11.79348485430617 8.976777787847798
P 10.069324944468931 6.683061602870723 12.60716754263356
P 7.934618196445486 6.1254469320804334 12.261715894120128
P 8.653782571563134 12.073099576839567 9.273295184151484
P 8.362334355746992 8.177308123359799 12.941318062982667
P 5.41257647181728 7.336978366777577 10.947144341769528
P 11.593792258065196 12.248866371050228 10.971624511446812
P 8.135476747019878 11.295530292595304 11.283748118169967
P 9.891459914111387 11.898815985070534 12.438496405190957
P 10.942061722768724 14.37907684263001 10.710648529279375
P 8.82737968725719 14.176339047238857 10.004259188969725
P 9.259133437557859 14.041003820624125 12.197111669619396
