25
Energy = -128.68375935 eV
P 10.360124624175844 11.392584854553316 6.2818318218246585
P 9.656877265989301 9.309050561137498 6.499478301888
P 11.796571160797939 9.801818391843918 6.849170108570378
P 7.418306123837318 12.612834734944194 7.4617381671287735
P 6.730095152277598 10.520371943740981 7.0287578148541385
P 9.582948020004444 12.779582586970617 7.937088494544966
P 8.114721798808594 9.158990540169093 8.117014885379147
P 13.27796877490865 8.53052849381448 9.398204920871956
P 11.874450869818656 10.287390394942474 9.017646254551062
P 11.559272010370986 7.233860538749789 9.980622941797822
P 6.1214507246035605 11.531063269506015 8.94123725952266
P 7.452900778415648 10.146918224503167 10.059809907322089
P 9.600043914176933 13.023058481624705 10.194500676541043
P 12.8399535257693 12.19210806508429 9.217576574856373
P 8.149043385541567 11.799366517700655 11.310171154015256
P 13.31856582929893 7.37778476893506 11.31383739279491
P 11.658885216465434 12.563632310030831 11.017341184035878
P 10.163660963693502 8.776127099930878 10.917496117708135
P 11.156669315645944 10.563169148963283 11.884275932214928
P 10.121044145698951 7.6449749083176535 12.816760006168193
P 12.314247767929354 7.829616838581478 13.325779296060444
P 12.544681933886707 9.984963181278802 13.568048087272112
P 9.490334086323001 11.223098184570334 13.134587800266566
P 9.250913497194693 9.237483807378469 14.153886894676868
P 11.038817261590795 10.072170299952228 15.165686152357434
