25
Energy = -132.06757826 eV
P 9.166701680845664 10.843989148854082 5.9060218676175
P 7.287614882116239 11.842282079374918 6.58166343421877
P 7.551826374457728 9.667695341791381 7.014826399139856
P 10.432535120665982 10.817240460263193 7.7703974501079776
P 10.00286642867179 12.931242359557046 8.187834745542172
P 7.810597592220187 12.905522584203762 8.467738158209615
P 8.84390475415389 9.669245320514074 8.854554534007411
P 7.59346248437068 11.186999203176672 9.842285998032336
P 10.375881620486245 13.3447310340735 10.338144343895568
P 12.354733883815292 12.426919895436317 10.702619584285287
P 11.875685891040202 10.263469043661132 11.025762096763925
P 8.851291574576118 12.069040442849426 11.474059151715139
P 9.890484731886058 10.197713763990164 12.043257034182723
P 12.615968525960147 13.609842953253459 12.560116778524746
P 14.778796701022557 13.328505479340874 12.974829250730139
P 12.397112913734853 9.458399389341654 13.16529033355258
P 15.281190204190805 11.181898542366312 12.956063580224619
P 10.716124939259664 10.572267947447774 14.102539757423823
P 11.395230360307663 12.709293333032065 14.257623735351185
P 17.061603583028855 11.370203296738554 14.350284948664923
P 13.997650537589301 10.406312175766878 14.55952229271473
P 14.44802710404325 13.705172869429894 15.134733633279406
P 13.002931193884043 12.099299931255864 15.627542837649353
P 16.309048962801057 12.741236245912232 15.942752063962919
P 15.87975284692942 10.57250205042664 16.080560882260524
