26
Energy = -134.08416039 eV
P 11.2254119971117 7.788622541588745 10.91933464063656
P 12.348012091017909 9.74509273592452 10.975043469045655
P 14.368232390250487 8.88077004919693 10.642308798793016
P 9.626990123551618 8.517856300038712 12.242291158788948
P 10.198326571279356 8.27607050075141 8.996321554324473
P 12.51722045211251 10.108897158694738 13.252630976283527
P 6.624992109372497 8.509459294992288 12.350205134089231
P 8.220128003485147 9.918145416763503 11.290431296462401
P 12.434761780463774 12.256053998379317 13.376696180035525
P 8.448896551339127 13.226040005351384 10.297954891054415
P 8.129811022001041 8.463781551447905 9.359943810639471
P 8.85570499829618 12.702828857422686 8.142032050878784
P 9.045059567993661 11.373596394423313 13.06303364476251
P 11.386979728175213 14.42940805635376 9.391082011768056
P 10.15335284996297 14.321904163060697 11.227526115654223
P 11.09501579612024 12.454484489327807 8.384882591163063
P 9.721236253490678 11.41389276178302 9.752521659032379
P 10.779821751813108 12.312027031351093 11.989295801992558
P 10.346622092173224 9.754050463291584 13.92411286429448
P 8.184464374741205 6.9289158416982115 12.734382346646045
P 15.388966433687175 10.413767838926965 9.719133074677929
P 13.411486485175987 14.953606772664179 10.220600445453407
P 7.1245563107775975 7.0267992745067955 10.778553926470993
P 15.004887684723606 13.883303918997926 9.107701057171894
P 13.847270432923116 12.028025359586074 9.638992185973278
P 14.542907421421178 13.343714496937368 11.254103587368569
