26
Energy = -134.54731636 eV
P 11.339527275378854 7.299446000849797 5.562159293947791
P 9.091131336793017 7.522080626190157 5.520975996846108
P 11.987283059017178 8.74310457114481 6.850684372188468
P 8.935220215881088 9.778987910776658 5.530466674826866
P 10.05531791800832 9.697352970807332 7.5002966268073825
P 8.737363177811998 7.873066148560284 7.741946111599642
P 7.1239474553899615 9.155728320395678 6.773231677730349
P 11.971510290942932 12.3354036628787 8.896887251539663
P 6.557779759573285 10.76314412710771 8.263706428814466
P 12.926008177621558 10.861986543913062 10.28561175585074
P 9.204136466524977 8.09477450609667 11.990801694721535
P 13.080484516753447 13.944361950868782 9.991673975179536
P 8.387079015482794 11.202229001829677 9.490162743329744
P 6.800803370748009 11.450439141176258 11.087361663548538
P 13.401131084199049 12.450784533728346 11.735540823729048
P 10.841288463235392 7.071480700541318 13.012153205808284
P 7.113180689623392 9.497744421301746 10.037289040593711
P 10.827688026438405 13.755847099704999 10.167801245218502
P 8.456585132337722 9.251015982294199 13.709755127358976
P 11.00236665983212 9.61468802819818 10.9794458215985
P 8.133690256719618 11.371540453856975 12.904809526427757
P 12.489610103150486 8.526061267442245 12.162772226192022
P 11.340716859997261 13.165726848489914 12.26193330118205
P 11.814346202393196 8.634625178160197 14.272747724813433
P 10.335452303942128 10.286287345368205 14.435410405241349
P 10.308846501296918 11.217227748477288 12.420317499010961
