26
Energy = -134.98488044 eV
P 15.692944162796785 13.720556649229755 13.063442900480394
P 15.131827252426957 13.674096936468725 11.246692785745813
P 15.45654467395818 10.288879195459007 14.621253320188881
P 14.00490368859977 9.240002084569102 15.907907289305887
P 13.414032876158691 11.083397967495255 14.852348293857718
P 13.75151242182528 9.227910423144872 13.718933023318892
P 13.248464563349838 10.001333083907475 7.968673070151879
P 12.43936457704235 11.099034649562054 9.68811990607284
P 11.431916517566151 9.602875445179516 6.69753800945194
P 10.282931179160652 14.021313381893227 9.425028627370244
P 9.896253045466306 11.122317770310335 7.3468746041714486
P 11.353684767210067 12.506540736411296 8.326230799163008
P 13.237030097172712 7.833477390037843 8.617463072853122
P 10.760841475454765 9.723454725764073 10.260047903230552
P 10.130828881174347 12.368092043728817 12.826816253252238
P 10.111012865328002 9.860791639561313 12.31659542462947
P 11.423293465863646 7.638120204097306 9.838627048493557
P 8.222809531750185 11.569407884241425 13.605643838209431
P 11.193036700672545 7.547486215051503 7.622204654323694
P 7.910086704017326 9.992101321954552 11.983081143908144
P 8.91505050705359 14.548155733685302 13.636272138494487
P 9.165650169173803 12.938961664091556 10.880988475897885
P 8.9879974210255 9.90748568616741 8.949196763329798
P 7.021345499150909 13.45493783057276 13.486152399237241
P 7.789657336198844 11.307428219971946 10.202960245344869
P 7.836399313352186 14.531260810392011 11.72032770246455
