26
Energy = -135.32832211 eV
P 11.125206996162799 8.27777694612342 5.972741354268328
P 14.039231224602942 8.431268636248358 7.577996360600642
P 9.911419612120731 9.35979314886215 7.549434887380471
P 9.399729671625613 7.006851276510657 5.53377117633902
P 12.288423012764495 7.079089827512925 7.4717343715619196
P 14.267750676052433 8.758102924826783 9.766271537660106
P 13.443673699118083 10.369380472693633 8.492958625471456
P 10.900501782307034 7.9078506413576335 9.007636518969566
P 8.19707954301478 8.190804442705872 6.756580323573445
P 9.623396355560525 13.461451789843844 10.74816624788901
P 14.192397450493496 11.898587589245034 12.448297615342417
P 12.14996359922636 9.405427368331026 10.037123897267318
P 8.348150741360273 14.658531155714378 9.36012625326357
P 6.447792554462357 13.556520353534513 9.0454011628186
P 8.083545512309893 13.391804647653377 7.547750055957688
P 9.010016606737489 11.401907710868567 10.332467702261068
P 13.58108210914206 10.184081807659485 13.685489697695571
P 7.476476866261048 11.610226704088657 8.728087751350541
P 13.113026149599962 12.236352013764506 14.336120237921058
P 15.197892118982162 11.514906576084739 14.368655889266176
P 8.01552805932327 12.52688085445514 11.973109907911896
P 7.544314800121265 9.057162741585634 13.87503375071816
P 9.632090099537752 9.676336949993374 13.331919184879721
P 9.261243016696275 11.873763490205649 13.729804672985807
P 9.048688125204666 9.258564937857198 15.464839775462192
P 7.657702992807665 10.966040121598809 15.051945129036604
