26
Energy = -134.89894232 eV
P 10.438787869393277 16.641318013813997 7.169840323226898
P 9.40990941231911 15.082954220332173 8.391192931474352
P 10.864475833857876 14.536745447342897 9.98817730869498
P 12.297823455405062 15.432052264156232 6.953212755053164
P 12.817797330161735 14.815932258680775 9.034529879292602
P 10.32456749253778 14.550993059902593 6.438446010975516
P 14.82273871178836 11.504342457134479 10.135728737763463
P 11.359919370213465 12.773149177091444 14.934133438499426
P 13.00083454534014 11.626259148317219 14.0404386283045
P 11.872772281952253 12.801837601700543 9.011591428070549
P 12.851831343584996 12.045033146435053 10.897494274215667
P 15.610403163987732 10.042772743975817 11.340335191020943
P 12.64629405011858 11.515177146742449 16.237220291471456
P 14.460465616433183 9.090361633266719 12.956491069251769
P 8.62695154194839 11.85197677355742 12.758375657978158
P 7.432187233897525 11.530164576153453 11.068616472207044
P 11.632874164018588 10.185969772683158 11.13452307775043
P 12.262277130159235 9.615383196791361 13.147458867641856
P 10.47650015944698 10.999002828147283 16.0031958215099
P 13.980868529921047 7.396625867244579 11.580163443207045
P 8.95076817953318 9.841135495933026 13.311385155830909
P 7.252478530833216 9.457405739802182 10.626206133675792
P 12.35891982943534 8.228339719176942 10.2687343107924
P 10.508698640300262 9.244037880803985 14.715787736860133
P 11.875987999008517 7.287892129358982 12.201054024350837
P 8.264346477178279 8.304616594229193 12.057145923654328
