26
Energy = -134.32235157 eV
P 14.827316264664749 12.705286368154985 13.522919703962868
P 14.441803971784243 10.851719179966077 14.68587731399653
P 12.826351140805766 12.311672917657791 14.600255727999114
P 13.797820126453328 12.292918008472553 11.588686398027846
P 13.43604100771968 14.06121020975008 10.419669535429014
P 13.502858149183 8.858127065457602 13.943498036512276
P 15.067632205402674 10.930268094430568 10.302972222111089
P 13.407725665568547 9.876868989915502 9.378484327330831
P 11.738973053180445 9.040521779208914 15.197917356924533
P 12.007098557590636 11.474575117161537 12.683345340005024
P 14.734408691084965 8.75422264269748 10.546872356216989
P 11.494374197134151 9.194527891958279 13.10005305692504
P 11.901434500801352 13.50876219539584 9.013717258568565
P 8.867382165005102 11.862012256241842 13.12572079830719
P 10.500131764066097 13.049871963358292 12.22135072646641
P 8.445591616553521 10.223745235621145 11.645109820186539
P 11.140076537059084 9.474728213875753 9.340345449519347
P 9.968825112264234 12.929712526085126 10.067776154898793
P 12.206978942582937 12.136558666555516 7.22055435818118
P 13.438092143363752 10.26410818629098 7.198971135077725
P 9.458938452944958 10.79959554557017 9.769075230178771
P 7.206909690529981 13.29915307481863 12.839593461200614
P 11.192812326683368 10.157787324443088 7.209480385209486
P 5.470848052063658 11.946754341607036 12.54469374833017
P 6.446149979801448 10.818629991191264 10.887935927739386
P 6.341219356226016 13.04445588463116 10.812917841211068
