26
Energy = -134.95138098 eV
P 9.513513288419643 13.910131596128656 10.968881380590618
P 8.087466038101718 13.559768245635658 9.261800581206192
P 7.903848072339283 13.156293093849879 12.40485115825704
P 12.74287639418013 13.368841794280595 9.608201853334258
P 9.074195212801955 11.95050793110241 8.081820478492242
P 12.19891281428459 11.828186364976446 8.108485650069344
P 10.978622088042286 12.204581653199664 10.925172543115163
P 8.35285750957995 11.02783406900992 12.84437269925801
P 6.435237957441542 12.978239861265301 10.72233768469183
P 10.522333218773245 11.331827265642662 12.961620184604595
P 7.515357485883003 10.412652225518125 7.679523327422218
P 10.45941369059514 10.761192965236816 9.379133981484207
P 13.988370098252053 11.672604419123376 9.331351050688571
P 5.78073731321855 10.865860459739066 11.008869408754327
P 15.256841999843033 8.283036911402618 9.307914934006753
P 12.902216112727537 10.149708427414954 11.018330005691867
P 5.693628685176322 10.054554015394311 8.889556427688445
P 15.959508620827881 8.593971589219514 11.38693211259955
P 11.270632902034286 9.311514331430704 12.458491452336341
P 7.498317911921327 9.557182427694492 11.422738232292891
P 14.74611666603493 10.253807908530247 12.253922101772137
P 13.099670188698306 8.250716489396204 9.870378604220276
P 7.594019823525909 8.863240714268475 9.246592356804557
P 14.537361203554212 6.928995233202763 10.926546722094093
P 12.342498534681582 8.869203558274517 14.340458972867982
P 14.34520218043346 9.21819815876941 14.144316239301109
