26
Energy = -133.93965812 eV
P 6.9822596663230385 6.730540740573656 9.482002927485144
P 14.365787555336356 11.727716658959155 9.11746898040117
P 13.458175811628985 10.140464701903307 7.854716608970421
P 8.24691219262432 7.045231834875572 11.303733547375815
P 14.58138618627714 9.404281060530943 14.21376587833001
P 13.783549490412316 8.809629850580436 12.196604809743835
P 6.091789894099427 7.647940785232529 11.291651785844747
P 13.372438367057232 12.261629109365382 7.2163481188222125
P 10.00159320489352 9.225588929394972 8.922227978952543
P 12.028136079145614 9.781926212076778 9.529271414315657
P 12.391682205362299 9.453543432136184 13.791401082516089
P 9.72217141614173 8.750604839361438 11.0796798714862
P 6.593955434796493 8.884045820896963 9.551940050528952
P 12.144433147712308 11.951609519153953 10.009728367563776
P 9.868717480801175 12.94589251985581 7.395184900151788
P 11.768640099521509 13.392648849454812 8.322377800037286
P 14.773317694949023 10.744260273630974 12.47514438753911
P 8.891850759463967 11.385485137828407 8.503228130588493
P 12.544960633492137 12.876396265672858 12.053756575466652
P 11.810691734740047 11.628011699598355 13.736313428115636
P 9.707945697377628 11.938232145057096 10.422234529344752
P 8.641159964600089 10.608158559888606 11.79333142373996
P 9.62707189556053 11.383809793418118 13.67128326874081
P 9.102012043619812 13.928972275091237 11.126064524561867
P 10.972261322132546 14.47048600311335 12.27920208563217
P 9.217157305299557 13.572950265718395 13.351394807114046
