26
Energy = -134.07121436 eV
P 13.50369414739925 8.052863982678288 9.631541404660982
P 13.416223467564608 7.905198695335441 13.006205326722267
P 14.179941752743872 9.773561409477324 8.519950377028644
P 13.753685787627834 8.517842308700498 15.17840246915801
P 11.156935972160067 7.591196866704049 13.067925300412204
P 12.17359839515837 9.485344046762966 10.485751781171361
P 12.935970520396738 10.057039594676208 12.633218485903694
P 15.82554377034174 9.089309536613209 14.717028316435913
P 14.398519806512452 10.596180360607963 14.716073155518385
P 12.331790309320521 10.992355744826401 8.713740068857966
P 10.264418103991408 8.759528743563564 11.362193132298323
P 14.128326948793045 12.065096494660224 9.274186423680886
P 10.79462256630161 9.793224283396821 13.294105577771727
P 11.70807259461469 12.684970261693577 11.946786457752461
P 14.50695179113973 14.552661313830919 11.937636005387258
P 9.897731456483918 12.772422515686175 10.613055094078911
P 13.095709281530196 13.616003419872188 10.517743410677468
P 13.854462126022623 14.154525014545213 14.04469609461973
P 11.684074221682458 14.222542211032781 13.535055757508482
P 7.223779701148436 12.408223864330841 8.605093144084217
P 8.191624892876062 12.948168148026271 12.010315853358692
P 8.839077989435857 14.706350408945752 10.854670445452557
P 6.6418074189390275 12.001730762762524 10.709159150168901
P 7.638800753290135 14.560007007460262 8.977384168473279
P 13.049008902643331 15.903196097822871 12.940373130283355
P 5.68975772242599 13.674587306532313 9.591839869078653
