27
Energy = -138.18943716 eV
P 11.380953752523524 12.778199157176685 5.9996518236248555
P 11.906569179435783 9.404503210661774 7.197706280320053
P 13.524555836238282 9.942281631783162 8.643193984484398
P 11.815396936789087 14.496417066688633 7.08010044340699
P 9.841304084798992 12.261272314908695 7.4795344145949
P 12.61491892890234 7.90031139867986 8.705478834984016
P 10.331764428355342 10.343976847754673 8.423836934279713
P 12.139117915391418 10.639116052039286 10.353065653406166
P 12.51037356398681 12.964995974818242 9.820267183721928
P 10.666445411211908 13.83871877490696 8.89098912200023
P 8.581353208735468 8.947503338242507 8.474136102928451
P 11.634001219859215 8.373658283758147 10.69153278550914
P 9.40322928226941 8.426772197140435 10.465889262779617
P 13.375389693788444 9.068396705033242 13.113290971047112
P 8.070188193311507 6.98271399572137 11.318561631650997
P 8.008257045032261 10.180420557874973 10.305051523489372
P 13.862858978442707 10.76104416668023 11.864760527015205
P 11.850937848659557 13.636308691647157 11.737237813439561
P 9.940401339370277 9.462235316351038 12.829032688605222
P 6.811877694181819 8.73935133716194 11.62434712874205
P 10.343082126823582 11.600877113911073 12.20529287728606
P 11.636598334282716 9.62306505680364 14.369267904764495
P 13.30004491561741 12.552755015543642 13.07063831123245
P 7.185621271715008 11.544656939640609 13.57866925060838
P 8.463856943405627 12.742258951587765 12.523103459385357
P 7.850967208221071 9.441995173875647 13.591505726029839
P 11.439487589073833 11.835747660032476 14.133410291087149
