27
Energy = -138.54503819 eV
P 10.781872098888512 9.014309194794656 12.561211589648716
P 9.166489021378483 11.765654708646604 11.071243449548817
P 10.813290099019403 10.320770206439866 10.744982010310911
P 11.842853982160152 8.465713316164416 6.45920121337958
P 14.038914344001004 9.059533040620835 15.45861368696596
P 12.698331253449885 9.706759294327613 7.622689384974601
P 12.749151444800793 15.599123423483926 9.339298575329364
P 11.910221978415064 13.597784462608788 8.841915381430576
P 10.8117363513532 15.319360991636971 11.069525690076162
P 11.247410406630276 10.53905119779136 14.101489976829999
P 14.442294742673832 11.180503652633703 14.86877478144975
P 8.858794904624045 9.701927145933707 9.811749025103587
P 13.3045244136342 13.113916716960073 10.544257451124393
P 8.616708501424267 8.983151843319842 13.080206986740489
P 7.802268750136226 8.426416545569303 11.098109568272891
P 14.801393372486384 15.041721867325831 8.361746518426711
P 11.875971807782234 9.399850966813062 15.873852651122112
P 15.187982486784689 13.097376331086334 9.319599584912934
P 10.36236085065509 13.69082540318083 14.091040877338205
P 13.869317758575528 13.20844468090252 7.525370595695421
P 9.429131188791533 11.769670832384778 14.6408463961845
P 8.127202217923623 11.128023100035936 12.941801653222061
P 12.95915701985627 15.077704954295918 11.563058567379006
P 13.438658809186304 10.720945724995975 16.79714008650196
P 13.539042468514202 11.230007006826032 11.61409597128712
P 9.533207980659606 13.92941337424374 12.15850706831341
P 12.871355225611593 11.991683496393117 13.51931473784702
