27
Energy = -138.35307902 eV
P 13.054680373449742 11.06604603590854 9.86940582228865
P 12.851519316287565 13.545599027529047 11.161766312555265
P 13.533484713690516 9.333867303898112 8.411029484398345
P 13.324748718383644 11.568213027945102 11.985166442217064
P 12.399158117458112 8.919484770697794 14.115157889829328
P 13.161395447150797 10.96493515517415 6.942539888768293
P 8.43304226840395 10.278556514263823 10.452460561308508
P 8.912931494372886 13.442822181027694 10.481023875028214
P 8.64822196163956 9.30364107823254 7.514761159383581
P 8.605062500361601 11.851967455656192 12.004688476229767
P 9.129310612453178 9.083285294403714 14.232146661322254
P 7.700681801071432 11.934394857025595 9.173527824738288
P 8.248178835148883 11.457246930370943 7.083698363843307
P 11.057711845745903 12.727419233919445 10.166658518960096
P 10.20200973932969 10.080672266451447 8.899930963629883
P 10.735592763712209 9.010593647079999 6.550853200317286
P 11.489274005976263 13.455411097911282 8.146669336919361
P 10.950618190225498 11.371917699394947 7.118242296520386
P 10.722167493425331 9.203526963493333 12.684982396987543
P 10.912047004899598 11.389191685782741 12.304735821818952
P 11.52355222724723 8.314527085729084 8.517393482975814
P 10.764247970911457 8.22299553044973 15.588219862973046
P 10.97304468384993 12.159378026518779 14.387633567010496
P 13.59654828119299 12.713151366972264 8.488596826920215
P 12.544796667758996 10.883185339434009 15.291366317467405
P 9.259082303292436 11.106766534906576 15.315663579001978
P 10.869852722560385 10.214166068357375 16.714643126586846
