27
Energy = -138.51132236 eV
P 14.568712140887056 8.709227173651023 8.849288500372532
P 10.781552708921668 6.4444039799394695 12.655329639154616
P 15.639214612263606 10.376261590591032 9.854935385388552
P 12.35870721395541 8.017197300056399 12.642214424187193
P 15.136139087150333 10.546767719630308 7.681590431881246
P 11.273624449912019 7.468716573370512 14.53075548640856
P 13.510811341896993 9.934358491856 10.334432544264422
P 10.61448222392449 9.404301109355943 10.028013060283053
P 10.657446122076133 9.5768906719741 12.229559947475376
P 9.43529560473917 8.072649393006813 13.39525911663952
P 13.51347171304391 12.040618089997587 7.539088997350611
P 11.787015680662567 10.722266875714574 6.971232338318879
P 12.060973409177919 11.247982462991843 9.114957739437015
P 11.784556456656551 11.364777330124808 13.245668826360706
P 11.783607520021185 12.797985680284123 11.641322959557254
P 8.71804652481273 10.995792577999806 12.222179802402175
P 8.44387440407975 9.2990450998896 9.575627027041216
P 10.607182811774877 12.532691142914253 7.737054528573493
P 8.560344825986613 12.07999971515595 7.008105133784075
P 9.641547433310986 12.972454482236754 11.605062040509868
P 7.1751225137897725 9.936808342340965 11.268142595237853
P 7.3606011819214645 10.871886623091216 8.429669196718564
P 10.310157125513724 12.245764890413053 14.80641982349369
P 8.198530744406716 11.705830207285915 14.266423644690475
P 9.393354429754618 13.69338896732678 9.60629187502851
P 9.048950013562811 13.71707992639897 13.795090314919792
P 7.46045474311001 13.048630619715743 8.790061657834148
