27
Energy = -139.55250737 eV
P 13.49052558235525 10.058463020997007 15.249595240592242
P 13.760740740552446 10.082347941532795 12.23423107463445
P 14.154952589003168 11.640261202870295 13.758114324680797
P 14.43688404280531 11.238141515192419 8.944507305992602
P 12.591463360658267 9.93951045347403 9.041025214077926
P 12.496748038863467 6.605346508183622 15.130098719025606
P 12.960973588624604 11.392280870542143 10.670617947272984
P 12.36402663585148 11.770462579448763 16.095928393010734
P 11.663089001250174 7.221585667761043 13.224919678965337
P 14.115672544263981 13.04044051790299 7.7435419936554055
P 11.964622566075867 9.47951431075796 13.699623623418498
P 11.901406961480273 14.217182066068398 10.090475008303633
P 12.125419604923055 12.741162915923548 14.071230885717808
P 10.30345203334097 9.138188950636426 15.336402905875966
P 10.781907050425193 11.287927312249794 13.092443690745512
P 12.00055497546498 13.216959915936286 8.102404680506263
P 10.399702942879614 6.711340515376079 14.989217654849858
P 11.35936992951957 11.160210036711733 7.672775910427086
P 9.218958664791236 10.944449700263752 14.676821327645598
P 10.348474943338989 10.90990038825425 16.640159072052743
P 10.572129491644265 14.161073078866243 6.684409727898703
P 10.31718455348918 16.122648081724865 7.538437281641125
P 9.225060983822164 11.078820521962722 8.22311791268256
P 8.461855813759046 12.782473445033466 9.436310978733411
P 9.747671277304251 14.075204784572119 10.700152149533835
P 8.658085510997626 13.003307514281822 7.224427008573297
P 10.527155528541563 15.928885139501087 9.677099245511842
