28
Energy = -144.21581498 eV
P 9.686778382484764 12.395034195014489 14.69603454842978
P 11.949377665063235 12.528539118969364 14.796006541040676
P 9.626979800782577 14.017004741403781 13.189000949013378
P 9.623818023381643 10.831094451144619 13.092478817784604
P 13.520294971128997 8.323025067749942 13.399494670731746
P 7.6501651157591875 13.662809442670694 12.320781565244303
P 12.638354576142914 12.543738837009816 12.863780938143723
P 11.441326811571884 10.406271682675182 10.652358000029487
P 15.039907739147678 6.730062774671866 13.302852833078179
P 10.688456610389814 12.354759520378908 11.803081089119827
P 7.619342245976796 11.369858663238377 12.327478763147502
P 13.43041454334754 6.822091251883932 11.798723421400187
P 15.028190102771616 8.338402971335682 11.79772108862129
P 8.340824714082578 14.474197133285433 10.291515638182446
P 9.271619781486061 7.692857535955354 10.82672371253327
P 7.736987770744996 11.002888685181084 10.118194721366883
P 12.64453950338765 10.408529350067711 8.811113087029119
P 14.574266084679314 11.321987705457486 9.563409605432721
P 10.382809329078354 13.654011862016796 9.94439472780713
P 9.510828286471709 9.613090199668843 9.862900362446414
P 8.603020561475272 12.711432743526792 8.97524861675593
P 7.399452896026776 7.055301206673459 10.169896226564148
P 6.470468860627337 8.037217003115623 8.531246814714068
P 12.617209315427415 12.328867535367413 7.595531128662152
P 14.849737007644453 12.088085312033614 7.465096457826682
P 9.797357931604155 9.279098971895486 7.741900993054838
P 13.98709480119653 13.405736409672516 8.997354332803896
P 7.910305261774774 8.643934321591 7.105609042691332
