28
Energy = -144.3535244 eV
P 8.005973731585177 10.115526064258242 14.092172680825156
P 10.779205656088758 14.56834839401616 8.656554047441318
P 11.511700856870482 11.538792912113388 10.723087346835104
P 14.286460773101489 10.986815601281792 12.779408663587969
P 8.45266478504168 7.13681361714988 11.587080288776429
P 13.530980912549582 9.945102551442746 10.958832548193584
P 12.754873771565485 15.452899634086517 9.136475782296344
P 9.965621096606627 7.211368248505651 13.191957340274575
P 9.041389411554343 11.412158233977582 12.875056564304955
P 11.747077341964541 11.076852792104 8.45520566970217
P 15.553370839259246 12.307111432949002 16.27862484247504
P 10.878255609470553 14.989812433540536 11.95348386474972
P 12.722607499512078 13.880405338589775 12.24086457445106
P 15.029121851731475 12.872977721741993 18.342721477786444
P 14.766827261848956 14.318466952459776 16.700835447288533
P 11.570769693533205 12.947102080583328 7.283989826185936
P 15.485813895277497 14.405642144037717 10.87278593755021
P 13.293670259592677 9.011299467999333 12.790686607821671
P 12.435954288521414 12.120940324098834 13.346060372606269
P 14.229976227315943 15.522589286714808 12.204157890149961
P 10.155061991103812 13.449106688573314 10.460234678350577
P 10.35455364100922 8.284693829607658 11.280256461014952
P 12.266715556075317 16.515147182747494 10.969707343791805
P 9.621286207307392 10.36954735119345 11.068569128555707
P 13.441271971067946 12.568227312089137 16.84180814832981
P 13.616076919720454 13.635410821852737 10.08105122526623
P 7.897948786344721 7.978156489779621 13.591679054167509
P 13.538168082903134 12.312084011027846 8.170051105743969
