28
Energy = -144.09061794 eV
P 15.485371286248455 12.05946407387467 11.307760655890162
P 16.084347581100303 10.345840200370471 12.575984342865398
P 14.42434577596639 8.916138083677053 12.574052263662708
P 15.872094368154505 13.745100220916843 12.717202701005183
P 17.17550979484979 13.020451282851322 14.380607215666663
P 16.015595210600548 11.15371005958071 14.663222936199048
P 12.85641333193465 9.872160952019582 11.36271943509469
P 9.234387201755808 10.55032817340606 7.362500245926088
P 14.967807722637131 13.109370914462353 14.657533295279235
P 12.524246365494035 12.874773484724244 9.804754351596994
P 10.47934085884927 10.442619449120713 9.245565640070044
P 10.80399762328075 9.292430804574773 6.3587228562012825
P 11.511669425203142 9.678825426565838 13.157437261240034
P 13.276908485728246 12.060795826365373 11.703512427553639
P 11.014830009615084 8.404841300380069 8.416220597311362
P 9.577929399179604 10.737799386346964 12.71561968529319
P 8.900142804090297 9.990871239024061 10.753125532806354
P 10.761140484210221 13.614902733655956 10.770578896416735
P 9.08006537539783 8.309285579810066 7.276236931941261
P 10.63503871859812 7.658556198915214 12.887631847858302
P 9.046787617489407 13.146668939712807 9.70534925820531
P 11.126823566339816 14.832615746530985 12.402412036430034
P 9.027167086779732 7.843305588771312 11.355409250874091
P 8.711325635011391 8.694883708870506 13.403424426801145
P 7.3076231909568135 13.959366704499494 10.771373158802955
P 9.215180287599543 15.596690423708255 13.121543397010717
P 7.454250997960884 14.212666327174368 12.983425265027654
P 7.546375489679665 15.992252864801692 11.682789781681018
