28
Energy = -145.44281376 eV
P 14.137762680140638 7.252956779620101 8.418439972857236
P 14.555951631676306 8.345919858257488 10.30929557614761
P 12.776975930366667 7.537113458950702 11.399145245108688
P 12.091381470540954 8.150643914106963 8.201917925285187
P 13.883714796129128 9.457302118272539 8.510208825321723
P 11.051225472939798 8.204108042522986 10.178665926087506
P 12.352557633175094 8.686020831543289 13.257782921743772
P 11.266468500724548 10.437997069104258 10.399552199582876
P 11.283502988260707 10.570278439509686 12.66100573587319
P 14.260158186199183 9.516713489076693 13.959977179042518
P 9.227295654974927 11.297401738831088 10.173596414931712
P 14.096015451286773 13.161180181728565 10.655298646563175
P 13.719175334670185 11.203656099858023 15.045748585382327
P 12.044493479034712 13.268004410993301 10.03814264343868
P 7.859251070540476 10.43452273193123 11.668701016642189
P 11.53189713942611 13.182420902516402 12.43491023080156
P 9.251861577902002 10.079405592550005 13.424782039774286
P 13.726268008074758 13.544312407594191 12.828873772769793
P 11.545319980751398 11.093247584419915 14.989086913898463
P 8.360733934403903 12.671836303617054 11.722717123752064
P 12.119764236421481 15.677314028113448 10.509252331894098
P 13.98530374319151 15.437904290168955 11.72543792818207
P 8.756397158071096 12.206705079824122 13.933758932676687
P 10.741255301714679 13.078893435032603 14.606139565098056
P 10.606537776806219 15.15791631618326 12.005132307662068
P 13.281152099791262 17.152256071545853 13.177511966289957
P 11.101676892349829 16.759522461352585 13.49192757271115
P 11.874926647252842 17.9234711395929 11.762015277298898
