28
Energy = -144.24101925 eV
P 16.176457085309345 13.860520894794934 10.87705811052694
P 14.687876511460377 14.707107522307556 9.748682216817336
P 12.952840043616721 12.030053985852096 8.728503007195332
P 12.846825421545153 14.662383649670685 10.891472761312182
P 15.295381611804812 12.89705761415781 12.639803020773964
P 11.757306261665764 13.85900336714337 9.092802168086008
P 11.451002652665553 11.011404227471859 7.459561051350016
P 13.130904560798845 13.386826549065932 12.792977668558564
P 12.41044342467124 10.96398073703037 10.579134249024039
P 12.957383699019353 8.894750051631542 9.98389691017413
P 12.152163875399813 8.874192227867168 7.880021376892345
P 9.885624806631125 12.975421168705918 9.997580059466035
P 9.494533033481565 11.290881918888335 8.503032065315233
P 13.76432634277983 11.303450504802978 12.322643956759627
P 12.901593560677206 14.6556406338707 17.308018150436947
P 9.988177299834291 12.0827668798116 12.111730136744287
P 8.390074465030864 14.43262797216428 9.78536995874678
P 12.04213347043642 13.3971339982186 16.170007210999124
P 9.16913710999886 9.461215369232077 9.674270020145524
P 8.871395457329925 10.210130372809699 11.730967471047828
P 10.932381134304629 8.05129418451758 9.535227858099491
P 7.982542022102545 12.739088739748022 12.957072064750816
P 6.984217059731695 13.448755049821168 11.113218630450161
P 12.09342945650767 8.622327448151486 14.438330175535546
P 10.83319694651361 7.420318648130452 13.087172201330263
P 12.789693333072352 6.649762921961225 13.744095946703883
P 6.883016902721379 11.266647678603759 11.612472559530403
P 11.117301227607912 6.786614460289268 15.176237769947013
