28
Energy = -144.20588916 eV
P 6.764537958094836 9.828924526544522 12.888043601190176
P 14.984257818470269 10.66312019518086 16.55038308930894
P 11.84010823852633 16.983012051874397 8.855619788007962
P 15.606794673795914 8.769753341298426 11.647137360255783
P 13.413411837187892 11.39639727698332 11.969633130815822
P 6.935944693711092 11.763101828338717 11.793083453873066
P 10.943288094120238 16.182290670949122 10.692883971571733
P 8.654398262292501 12.011024615945402 8.85701102171545
P 8.252255962476761 12.235953287526753 13.54109676934804
P 15.056515806353215 9.712172447777935 14.599595353443988
P 6.827723999038922 9.075159140119158 9.767651686214247
P 12.727885422992836 15.15572236619824 9.803501519895217
P 11.488596645983034 13.877737110631797 8.394383776307334
P 6.503782360047275 8.122416016423369 11.589830035451316
P 13.53135418843897 7.9450980895848495 11.683590009468132
P 10.062693678586864 15.612494004170605 8.708355400083647
P 12.848494296728173 9.294996310792483 14.617532280846644
P 14.354451051187027 8.843966147998701 9.822384900140065
P 13.550106061869824 11.35340767071456 15.138956949949836
P 11.489486511176473 10.528637425086941 9.506260207237853
P 8.302717883737273 10.304213824107899 14.32754680763104
P 13.670032735457443 10.990351336072894 9.806800413797289
P 10.55601047353985 12.482656609183547 9.881905393684752
P 15.433695976315388 10.807848209131484 12.552980491078829
P 9.177247548940503 10.617297568264101 7.164739230603715
P 8.304181675632012 10.523969056917565 10.537101089015993
P 11.097897742604772 9.967192007156072 7.438345426436546
P 12.240276691739313 9.569235154070412 12.481795131671324
