28
Energy = -143.2652213 eV
P 13.541684473641856 12.329442855833202 11.777685103710763
P 12.980120321028096 13.113611323116551 9.319912240533734
P 11.500702750213529 12.66566139555766 7.497727213674202
P 12.586827477182398 13.912819014045674 12.827766154097953
P 6.903715156259075 12.338668368426916 10.553759606848157
P 6.979641802240456 10.529798152380014 9.415145151285529
P 9.253113080141283 10.355528933705486 14.029980532401382
P 12.397592461666134 7.832619420361032 9.164079095914458
P 15.010379187867482 9.800613752077306 10.304115039825156
P 7.110334364530849 9.107250129744292 11.281529637731312
P 10.383917593769517 7.5592713019968185 12.171001250585665
P 6.414229029907871 10.991400500406904 12.33370341679686
P 9.537810516260551 8.864510067329503 8.599404382793736
P 13.896638745770069 9.163020329210319 12.068576957154024
P 11.38760324077016 8.669315402784505 7.381233719706321
P 9.77841771058486 12.680985366279499 8.871687123017036
P 9.504822769019354 13.418662959368197 12.392892265560066
P 13.210902168676808 10.93576447589337 9.392850370517273
P 12.005463925077638 10.729186128375366 11.442874078553578
P 12.499464195203181 10.627855870519587 7.372400931668402
P 8.757506105691283 10.83823966570824 8.122803539660552
P 11.39454950620725 10.656988600081473 13.656106067226254
P 10.8255233514447 8.624246705211206 10.388556558286519
P 11.077394959370595 12.901115600823003 10.715039175689984
P 8.55273361230228 11.491059963137282 12.15253897138226
P 15.239786568105185 10.90348324454759 12.235541438468264
P 8.60223597667214 8.489951793943186 12.948983180928444
P 11.027670147463999 12.829709757670367 13.942887637447534
