28
Energy = -145.57325149 eV
P 13.933274152396619 10.008973472871102 13.657358141571683
P 14.262224584292333 9.225481371310554 11.507296008110439
P 12.401019817520934 8.045520156593295 12.114483791207139
P 11.397365942184402 5.873612270903436 9.310462335269596
P 11.68768859533384 9.600691717026233 13.560033887358864
P 14.422394650520491 11.380610522516342 12.03298228737099
P 9.546869479751116 6.884938047414988 11.569377825385263
P 10.266414341339848 6.77824166709687 7.6886975805846385
P 11.807419450676482 7.928143218544466 8.797088329795782
P 7.427343301274113 7.726466548409243 11.71538160446617
P 7.849194800443816 5.992479700290282 10.39228848908032
P 12.713529329341346 12.799586624450773 11.873161008487207
P 10.409984809910721 10.541712036351983 11.931627123270296
P 10.735397583214796 8.568236298566644 10.719994485623078
P 11.627713842201482 11.618361296768917 10.35816915303716
P 8.057322914013533 6.609769895477874 8.29151893270963
P 13.53745282060985 14.247475313359535 10.395157451673834
P 6.518167181882986 9.185848340018813 10.29138811856157
P 7.646676023940559 11.077977415347597 10.311142066370172
P 9.186731841733355 10.584781401422786 8.8102810885847
P 6.728441378393747 8.397995456419782 8.149589828915726
P 11.922727267324086 14.635418648292864 9.193143578523859
P 10.257196913066156 13.357566714560607 9.945595781978758
P 8.00171580224018 9.87364293772012 7.11029989935795
P 9.593735301039803 12.54823728047559 7.937327407940941
P 6.169542562584791 12.202249532695797 9.085670619517757
P 6.434878273790675 11.480855077940353 6.9988967513058045
P 7.488051338500747 13.32250274417877 7.692083345968253
