28
Energy = -145.49588625 eV
P 11.062238894073838 5.754612108359673 10.180886068399504
P 13.214834449474552 6.027661893115843 10.66997993888058
P 9.8107453027133 6.223835280319542 12.018113733074436
P 13.68862960708181 6.686301846350461 8.637534456262673
P 11.387150245383353 7.474286248858263 13.027023698504824
P 8.819108039583007 7.368881862548444 10.346097822557976
P 12.689202742724738 8.21772676382662 11.262675204513473
P 10.884257196299039 8.009542983653327 9.81970937678146
P 12.10485843115691 8.163923420386451 7.9460918712947715
P 7.4934870405857446 8.918330897104942 11.193117964014004
P 10.388873322676984 9.158767688545746 14.043904021205977
P 8.540246498175177 9.978281281069272 13.012651154629351
P 13.693595002402386 9.059883863170803 9.159441201624798
P 7.298971029503633 10.936215668371963 6.392377254487398
P 10.504923381401232 10.651706085188078 9.632442116573268
P 12.736696886653055 11.153241718632794 10.125723219056015
P 6.742263485554953 12.872342862820181 5.43927088229697
P 11.467457671794334 11.038391999300224 13.306124685693032
P 13.207550706807416 10.366264751935223 12.066852132259772
P 7.947377569417233 10.226166680103994 9.510380901628572
P 9.8925101616631 11.146372884937813 11.78031943642024
P 8.810122497059163 12.55200552511833 6.191331623240516
P 5.774860646951457 12.243889317570739 7.356668054083081
P 10.28849721394128 12.951501452124129 9.39058614220959
P 8.783696119612697 13.818499500746922 8.000495814378612
P 7.117554394503339 12.003856466717341 10.537092097623017
P 8.98571103472462 13.106642059192291 11.214391581225314
P 6.765903686486868 13.482461918775009 8.892753861313631
