28
Energy = -145.90079609 eV
P 14.510440354599481 8.434516837031426 10.395429900123002
P 14.285604898472814 9.677034448743395 12.227669272555216
P 14.44613578078352 10.662171097764814 10.254096497411286
P 12.403757305373162 7.597159179969599 10.0854058293737
P 12.086512618156428 9.631791234078555 12.7436225165516
P 12.30423438213016 10.71876647400816 9.64795290458281
P 11.834670663711444 11.916897770931104 12.977011900118825
P 12.579131311062374 10.067828475119947 7.546771312191856
P 11.090483074440794 12.5693465897995 9.510631057152988
P 12.137635106812883 7.857616560874571 7.874154771918236
P 11.14520416836064 9.23795680118808 10.80670212915418
P 10.304497545303775 12.757581015041014 11.627468489165278
P 10.492160766310885 11.898961001717607 14.762428239441496
P 10.723685520980544 10.994390777382785 6.737962754063798
P 9.951275452010101 7.456212113228727 7.37678663390707
P 9.683104303953156 9.165299952587468 5.944439945483746
P 8.79343823034006 11.157275136778885 11.95598130121284
P 8.007101072315871 8.972060046961802 10.182994637052524
P 9.6487220021959 10.98391755029589 8.670441819557192
P 6.829162829142202 8.177894984150655 11.803770599891164
P 8.148126351345265 7.314404866374137 8.70012944426848
P 8.56038072148081 11.609127321811643 14.055001066560736
P 7.678038006540069 11.608182337738434 7.941606086675215
P 7.589670308567365 9.810485266561978 6.322983809422752
P 6.092483867701438 9.933012170097104 12.652579650683483
P 6.515919262942204 10.41590575719341 9.424989737159459
P 6.766643374355484 8.016931797811742 7.177143781652897
P 6.692535214260892 11.646400406453656 11.29439006206632
