28
Energy = -145.11583375 eV
P 10.593582837911045 12.557529411400983 10.116260285315693
P 7.384322351359037 12.45959264812229 10.71854790950253
P 9.946882132832506 13.206481824720015 8.14575605546612
P 12.393135736632452 11.379198129375185 9.72898103076654
P 10.07187146410958 10.976543209853027 12.772336198015022
P 9.095093229540879 10.999845911037019 10.73577210352371
P 7.856720007275929 13.661528863344929 8.810840697133697
P 12.193991638957828 10.720828833822514 11.926672433325544
P 5.944617939841923 11.203555470892358 9.444471589499845
P 12.141304674861026 10.695567771010536 7.4661998474280065
P 10.276613801634921 11.497464367277685 6.658959951177417
P 9.405292551447882 8.901668439675515 13.269829786766168
P 7.7462667405860675 10.516890378533938 8.340887174654789
P 6.632524096577763 12.247657068865967 7.544335035064089
P 7.467937438010363 8.8211463484721 6.9517097265142525
P 9.442120958560183 9.49808487157298 5.992813415987573
P 11.352650964797968 8.658542646935128 6.910848219065596
P 9.240979984422864 7.982773111160691 11.241448568687622
P 10.353725609037696 8.505449042087001 8.982480321961853
P 6.79682190653527 7.376949768545175 8.608384011292115
P 11.323814506312447 7.70513265698161 13.396206041737223
P 12.721980957422861 8.576990528244291 11.861931993377338
P 7.210929540692589 7.2311537800620505 10.799950478525778
P 12.3266954617488 7.836660557855047 9.809445696532727
P 10.243216967181514 6.194069107509226 12.104384752921524
P 10.080872088027421 6.2817273682265835 8.690494025328132
P 8.00786441961644 5.6861952774664735 9.32279606990996
P 11.579220265189702 5.770533393135172 10.351210053383877
