29
Energy = -151.44590676 eV
P 17.05602185342576 9.831637405297409 10.297004968001971
P 15.651916466427714 10.470119738202044 11.915099179001377
P 15.276526086153305 13.442348739085135 9.715140601177769
P 15.312354802490407 11.204916360235742 9.877459645203201
P 15.361011259567931 8.494791496165776 10.909147951611683
P 15.714227687255754 14.355932738764878 11.681051272217875
P 12.692910699583251 10.970773095645942 9.9413932945503
P 12.95485204411106 13.259870949384979 9.671295507050738
P 12.328476702536715 14.154465729168331 11.576372218636203
P 12.044727634650242 8.321500034498204 11.097648018400651
P 14.020917033248118 13.662341650994824 12.924324270079111
P 12.797110866454384 16.244776837181078 11.056597292337996
P 11.895876379049335 10.480608502746863 11.904585515164346
P 9.224742064345886 11.644141300120339 9.471471947283115
P 13.579918005840135 8.66277543011718 9.540211240081627
P 15.051945460396444 16.376826549441013 11.131643716137035
P 13.87649463924519 15.424994277718401 14.280203384552527
P 10.902504590062238 10.593699199938982 8.523296279383116
P 14.94971418826709 17.097930346455342 13.255166054181096
P 10.330768480164524 8.689357286075223 9.632565899048554
P 9.686588200932022 10.26823595233801 11.013245891371678
P 12.683406572163896 16.966346487857454 13.178162794962574
P 7.937486141699665 9.696016174784363 12.297034462926025
P 7.6152010815995865 11.603510638450334 13.379864326375431
P 8.686286395212475 9.973102371284977 14.379652505689812
P 5.4723896845526365 11.240856966477326 13.920900503442791
P 5.219146790355853 9.05103037546793 14.176329800503176
P 7.0595151736248125 8.829001705049068 15.401557091900484
P 5.523622680534556 10.34376738076445 15.954694071836423
