29
Energy = -148.6846722 eV
P 15.495427194568247 11.887856459508928 15.366515090594072
P 13.504915556663722 12.265298035920825 16.221061106729078
P 15.389814488528955 12.41729797276919 11.888604525992113
P 14.408335158999883 13.739392656445665 14.816300336944295
P 14.771665160334694 10.6056255710563 10.795542858712393
P 15.186130054169404 12.487762239994058 9.660595380254936
P 13.648762352089953 10.860996905599432 14.475046363410124
P 11.801794086739065 9.050022284756858 12.105451904578377
P 13.39909591617822 12.525766294925903 13.037609875598468
P 9.456354578693944 9.363213865771877 15.039839455964097
P 9.510250598752002 13.118392992521471 14.54478155777023
P 10.892582534698192 10.384600326093441 13.58421537714498
P 7.660054401313658 10.031305851874524 13.930871721088678
P 12.567191188429879 10.947610059089243 11.245180133381371
P 8.444272633835098 11.279391569543598 15.54055485338309
P 11.401628563892002 13.637516196148312 13.12960075653523
P 10.259406398765801 8.29668446270059 10.7150963436375
P 13.080933282062743 13.065521100365757 9.157800798802937
P 9.11941883694111 11.029421204738613 12.385611629303307
P 13.024576992595032 14.81548453491697 7.848080254913966
P 12.61021002832331 11.902682179371418 7.3518469046885695
P 8.694733855169575 9.806917797992652 10.575154214889933
P 10.533148826083691 12.854996675054945 11.339967616474135
P 11.191518474521633 10.32301877282435 8.003361043565299
P 8.575139919359273 13.13120889055703 12.533782946525509
P 11.75381381782092 13.760726663271821 6.565343100424324
P 9.216787408071909 11.034489706380555 8.76841739670257
P 10.137990580885745 9.762839508290368 6.185712204852907
P 8.346282973586868 9.69619508358981 7.2702901092115235
