29
Energy = -150.67715289 eV
P 15.193108742485144 14.176300231204387 10.280646749683793
P 9.619920224906728 15.239216790624601 8.458045292796683
P 11.269598271517175 14.661621917028514 7.058094896478983
P 16.31738231139615 12.988205598705697 11.75912271284951
P 8.174629181546816 13.619602416849862 8.137380226697596
P 14.325667171879891 13.784443359255057 12.265028721834703
P 11.530327942271622 14.406401999247727 9.241708593921548
P 14.518295492853108 12.146432141277296 10.805263299086114
P 9.455027874349565 11.836736862187008 7.7983976133804855
P 11.504812391413687 12.610872943276298 7.924728199276215
P 9.489159526953038 12.719282025124436 11.12988606817623
P 7.491768557621705 12.817701746969329 10.17772442174997
P 8.847602363524691 11.031348298707252 9.838421074397159
P 10.74891060499336 10.445120499740241 13.399091695654873
P 13.401179036705818 8.535413619469026 8.337517733328333
P 8.873810528457525 11.523845417875767 12.92238173780844
P 11.403970435931104 8.624035139022794 9.332460643354088
P 14.543103360139032 6.882630620011214 9.28296746425355
P 13.483134137861033 6.53020307395526 7.3656303638275515
P 7.905282372471305 12.40154643410578 14.79277116468018
P 11.997870145495467 7.935240584273786 11.374746994650751
P 10.104549492845686 8.539753542780396 12.436305083413064
P 5.982160207543774 11.957487734677127 13.806301500523432
P 7.07023095028339 10.16682796715161 13.019425888017583
P 11.014078042141668 6.553154869006944 9.924667983511801
P 12.832631153056104 5.468027537889088 9.214170922265145
P 7.713160501353442 10.197783406553489 15.170609613741659
P 9.955611752520085 9.509312215978394 15.291500094126452
P 10.133065434927618 7.5389190346016015 14.397029789561733
