29
Energy = -151.28660205 eV
P 16.714048802554426 16.377749461190923 8.126310878543356
P 16.941107170272797 14.210501272571305 8.594228536485602
P 16.041138488821797 14.849789618624829 6.667007680425796
P 15.299220243871027 13.748307483441707 10.041361841739343
P 14.54795786918673 16.172107234265066 7.644310149746981
P 13.146847871003418 7.352471764962653 11.963876981873499
P 13.058373715089676 6.790733110003319 9.808414701942288
P 11.426323295926661 6.1922121275423105 11.117647532271919
P 13.669018942727147 15.056172901516382 9.367018440746586
P 12.74358097092794 12.632198490379649 11.885934988991371
P 13.294423619445153 10.94859525650057 13.064250886293859
P 13.814666260941836 12.994805282290901 8.566708124228455
P 11.643790732065435 8.57205156457438 8.744400253653032
P 12.416987673196452 9.481926774113779 11.795590535831591
P 13.045701111725439 9.962179405476746 9.729384525860775
P 12.194481281686112 12.013462670235645 9.816371959375836
P 10.117473165933566 7.952923064058812 10.200008372750508
P 10.190461706236485 9.215347082517422 11.975135517828747
P 8.232824877903944 8.658399033731758 8.934123621394154
P 9.374308301646794 11.173725082973638 11.354383087529172
P 9.62931787534428 10.017537151562733 7.968588945637761
P 8.227262071754591 10.81341193071139 9.475282878728496
P 8.595812130222894 11.21712451265045 14.67444785249026
P 7.597349850982369 11.475729777974243 12.719336410875663
P 7.215001138584155 12.434719333938931 15.937526095429584
P 7.314778565665001 9.611820820613271 13.900889690392463
P 5.186969271507993 12.287476629325376 15.049164492036194
P 5.7388014074993015 10.982537771904601 16.75738081932926
P 5.311539989407843 10.088598552112293 14.75838117228991
