30
Energy = -156.41245882 eV
P 12.125283646232818 8.754498969810648 15.467878154024891
P 11.342199787498132 10.58344523781155 15.923042400928907
P 11.883496998841997 8.393506387462175 13.28959556406555
P 6.490682345830493 11.146781525793177 14.400119539373598
P 10.335038966650227 11.283486015902653 14.118774391576217
P 6.975825375179118 10.419430990462153 12.381732810672665
P 16.83109982922657 8.896694404912122 11.927086309894614
P 14.068354190116162 8.774187685107874 13.16268704675429
P 5.136272474036485 11.58175327609004 12.714508771569054
P 10.937959102143386 10.153111980641844 12.313306392678308
P 10.9118817722786 13.414012602481945 13.911123239183038
P 14.19951807166092 10.96289273913713 13.307669693761824
P 16.367708442037056 10.941928074724036 12.754273619796543
P 7.103579233803335 12.566609838030821 12.839959968610149
P 14.827799418825778 8.295517808116706 11.138417705040634
P 12.68204768710808 11.517891323479727 11.669442562783189
P 11.924908496914394 13.533841670579916 12.111832342509183
P 16.85887929209923 10.724678359347886 10.594879845461666
P 15.011612843831866 9.98387238278907 9.620723142283492
P 9.222967529821036 11.022499483811153 9.16596837365645
P 10.179129021091317 12.843583624949117 10.034413521972779
P 13.93334111521723 11.90685014681391 9.860020326543879
P 11.25979327972266 10.185751530477633 8.441964635849265
P 7.302174187811241 12.621613021234843 8.731538321578645
P 8.419529877436446 14.279695440780074 9.605871654551803
P 9.713543000321362 10.92442259933829 7.010874893723588
P 12.686666121290513 11.830923933998093 8.058707465356326
P 11.441272830196445 13.62131063985281 8.391481575232842
P 8.24587912548865 14.067980088934242 7.381729451324438
P 10.196061247739669 13.090877523150525 6.661568390377379
