30
Energy = -154.16884269 eV
P 10.557722660482886 10.670334081782086 5.457328375841929
P 12.141779706386524 9.87601211988841 6.762680130309443
P 9.963876020729698 7.720659413777569 7.7074610101364325
P 11.70158651279495 12.040402965318714 6.760136899009104
P 8.07326350012892 8.906974564124031 7.135739702368457
P 8.549803694248878 11.08337799859033 6.9011393856538
P 11.154738056328327 9.252603950578639 8.762799066664975
P 7.093962467130938 8.62741950711228 9.104942672312925
P 10.117480057665288 11.626302281658608 8.34978167957635
P 8.823142431132382 6.730401319256591 9.332640518592243
P 7.247715113634162 11.866601278375057 9.018827878285713
P 10.84037516332319 5.281959243386401 9.672644441670927
P 8.909268510233321 13.335805716864847 9.056995381552834
P 12.010751637503033 11.287050689267469 10.388398359124276
P 8.152638728581143 10.244254393794622 10.148561677350276
P 12.496014878906427 13.0993386338783 11.601284540406242
P 12.684822099088992 6.257299931796988 10.407980853094589
P 10.463959220180854 9.760072408855253 11.118745871253594
P 10.943104372672849 5.934855906036112 11.785281082246911
P 13.01332175261867 8.351347987790922 9.75103480589031
P 8.84629783161187 14.132492205918957 11.105570301622082
P 10.889238758865933 14.745483255588475 11.764232811620323
P 9.58939986462642 7.606099854974462 11.18489644036115
P 7.401474026298017 10.120173314857633 12.3171974012505
P 12.518689319497598 12.127271976615619 13.550306623008833
P 8.209818144907652 8.123245625243275 12.87709032330098
P 9.517344622924199 13.900096033796489 13.286422975362546
P 12.626438233437685 9.449078670200652 11.661366082250211
P 9.402333475689447 10.023753054403576 13.21238883699146
P 10.658999753735193 12.418592231633083 14.415484488255988
