30
Energy = -158.90329593 eV
P 14.947627300173837 10.655465743442052 7.65897875167638
P 12.945516771601298 13.726796368048626 7.5142946391355725
P 9.785768578641942 14.375682255148758 8.574745820409785
P 10.908305143356177 16.28595693455857 8.761548228154178
P 11.428319054326145 12.829351145738766 8.82755500682511
P 12.843544605983972 10.023799235836416 7.591031851956743
P 14.499231671930403 8.597642930442893 8.225359899413967
P 15.331524248849622 11.648220076649778 9.583932701155222
P 13.049569523345514 15.770634398645365 8.424082265351885
P 10.315398789396433 15.208760943271194 10.612960370123254
P 11.950907149310916 13.648592133287817 10.843464889891893
P 13.844094948160917 8.714851481464343 10.426793862067719
P 12.121561978151037 10.05271092332002 9.74576640684221
P 13.780720793004614 10.853600172442134 10.91524767360038
P 14.79036544356437 13.690655344313148 8.82934492358242
P 13.7051389389844 14.911600968570694 10.389213456540809
P 11.276644999756833 16.04529757445664 16.000491479159468
P 10.238719788638544 14.37580547437122 14.952056808869049
P 13.239106874040536 15.628988929010804 15.034728009577575
P 11.52033457024196 12.576316804129231 15.01020455270967
P 13.609087898567624 13.451163541037149 15.024076141468953
P 11.417909080089045 15.854666573814756 13.784864178366224
P 11.14682910080082 11.991388665515588 17.11759332865645
P 14.282431013110255 13.25607237564461 17.127518103644444
P 12.456822819010714 10.235419240424703 17.16445185541332
P 14.557049050392491 11.083457750187486 17.163359989365265
P 12.364453568220428 13.484860958404091 18.213895503962313
P 12.4987791396623 10.124784856982366 19.406508310648025
P 14.607029774545408 10.977251924856839 19.405139327465672
P 12.865818080710971 12.248814972554555 19.99940236053594
