30
Energy = -158.49680566 eV
P 12.603932343663985 12.055166475245205 7.047172344402236
P 11.214836113426937 13.804149035271271 7.303082913918668
P 13.80712823066341 9.335758159358049 8.115673648381733
P 13.364848769522965 13.863661150632147 8.047693395108253
P 12.023192705846755 10.567825376654469 8.640805781643682
P 15.418480017734387 10.738181632655355 8.683662213850207
P 17.037101483994807 9.232329913926002 9.004936427550545
P 15.986306907353061 7.270057390079912 9.266110776827745
P 10.283453154605395 13.557407669415316 9.331415148418465
P 13.881213454717036 7.884197648132518 9.762623640883515
P 12.302240136201402 13.447412750973871 9.982334809079461
P 12.669664927513535 11.381997483303163 10.646597702214924
P 14.871276709877922 11.087637784050148 10.81125778986256
P 16.75883185279394 8.43107683684485 11.066261022909504
P 14.65001597716089 9.035637642375447 11.550163567702155
P 12.822569644812226 15.03528075929282 11.46048414321011
P 11.02208006623917 15.307074265562585 12.72504310859819
P 10.120753982302471 13.289492046621017 12.744701973173926
P 8.39415927861668 13.73672593641417 14.05673815242012
P 7.452662512601414 11.75859391192447 14.010091814349433
P 14.164763884485152 14.386554354694832 13.158043699360844
P 11.476035807269415 11.955152342474246 13.977920040284198
P 12.541780424396178 15.40400499430445 14.444681807975984
P 6.181410720270891 12.178960126202284 15.808519983334389
P 8.807419728548728 10.442927406048145 15.25507555649849
P 13.069307093965095 13.296340914855397 14.728709608482111
P 9.382791760314175 13.72192682374339 16.035225570152992
P 10.421561240717734 11.770769112117641 15.922492659499103
P 7.632521917186848 13.07977238527077 17.25541549531963
P 7.544583819854372 10.850852338212697 17.06398987124245
