30
Energy = -155.65561994 eV
P 10.561022904119346 9.904624834258016 13.730001308789081
P 13.172868031011841 12.917765626375475 16.64678591318334
P 11.491409277149348 7.912538740812659 14.031004689020603
P 6.754778729564564 10.420226203782903 12.717812074240042
P 10.13967675811149 7.732845446752361 11.025448151568023
P 13.682296647904879 11.740466570019956 14.856990809770464
P 8.483908371574477 11.168022421911482 11.399169124867035
P 11.726503181368534 8.906791121016266 12.016753557659447
P 14.278658176179894 13.856065437956168 14.986411255982649
P 12.158254952619748 13.319914125593405 14.733124297214276
P 5.343196255079937 11.425743010035795 11.285077852974624
P 9.399441096616897 8.094419221779047 13.369008715114724
P 11.040421096149682 14.235216589472827 10.329035381026271
P 8.807946327660682 9.271100329161417 10.12182737107228
P 12.141679311206813 12.391994482611558 10.963831809673957
P 5.467237391590015 9.20341282446829 11.393685350309866
P 6.905056021052245 10.388839730622152 8.356106032523565
P 13.464983240929504 8.808926588521839 10.505242104151431
P 10.360811161391435 12.260970168415463 9.592277818587014
P 9.00037109499161 9.735990936436664 8.036422053329265
P 11.700779443561995 13.519157346866045 8.285733911077179
P 14.183423859086634 10.81131016413997 8.48091843408043
P 7.085492592993672 12.036952525369124 9.958192320244768
P 6.771448776510125 8.59686119705007 9.660414597008197
P 12.090505417470494 7.9269693051375585 9.215080333941525
P 13.581222703796293 12.800793347821084 9.290074157696445
P 12.356706230787468 9.759755889757159 7.750004357558439
P 11.836928823115006 11.160404385921366 5.9972111308906575
P 14.001502325678487 11.42870854620811 6.212504119963729
P 13.188840122651325 9.422158297311455 5.704037113050423
