30
Energy = -157.15156943 eV
P 16.744870663135245 10.313278013061048 11.83497951499885
P 15.483993664073141 11.823867027334948 12.871170506386402
P 16.16503866043648 12.160458289852137 10.740636014737131
P 15.342515076482673 8.732257120907724 11.127357104588315
P 13.466462732438519 9.143838542170279 12.284518286027245
P 13.411343198490925 11.335524936071188 12.0912173129159
P 8.6901018460763 12.390568017868844 13.765733170712608
P 14.459853986253549 9.623903606505028 9.278843783024735
P 14.084096297025976 11.675483916679463 9.988969316770559
P 9.896618038131844 10.729466879346804 12.855075569005793
P 9.242086023819507 14.330919793077097 12.74910043755358
P 6.601065978591219 12.525134419291296 12.970680547481317
P 12.750854597500231 8.506665327920368 10.24867011246375
P 10.543570920068156 11.430190023806137 10.86251481848269
P 7.029662625914716 14.621848790534395 12.214727813575157
P 9.854345176195876 7.874532975686545 11.631896266024365
P 8.54890133775942 14.380311800614487 10.622872357904455
P 8.34788465356265 9.130823374361588 12.632073803852725
P 8.580030638152182 12.198559980131265 10.173076681105357
P 10.59683829421983 9.206720640985328 9.768996963787604
P 6.5522275461689965 11.704718540550994 10.946845782522665
P 11.384058048073847 10.25563029000771 7.813032586343774
P 6.750225145592076 9.50865821786446 11.036657130856517
P 8.525687174692719 6.989303059180068 10.119942710163313
P 10.104793390125948 7.133437403707157 8.579268321567623
P 8.196850397369477 9.238268977154377 9.276275827895404
P 7.941815966675422 11.374682749436744 8.260811402675872
P 9.756921319895191 11.527829891433948 6.991326017397202
P 10.079581242354832 9.437543286928918 6.2544574018095
P 8.577451042388114 8.126893859660724 7.341053696555778
