30
Energy = -156.94593519 eV
P 9.069757244248484 10.634432042345237 12.827076111601524
P 7.563147374666573 10.387492106751832 16.304541645908216
P 10.670904273742853 11.708312680975538 13.898315510946183
P 14.359058358689511 7.828555291632908 9.558558703590403
P 8.20112266633046 12.415433898521982 15.689867551241932
P 13.831094581016888 11.156790513111332 8.317676493557956
P 12.14466289661813 14.033917000754862 6.47773385904395
P 7.43590051927056 11.900999882999406 9.456922469618728
P 15.882010524090383 9.039619874100396 8.926081107685203
P 10.78984714664182 12.83713413896187 9.553738377105097
P 9.293274975843875 9.958695683862663 7.632503507504314
P 10.200656880644853 10.245921465197615 10.935651411603109
P 11.996379735946794 14.494274972519056 8.670798704799985
P 13.783769857506874 13.421540134271492 7.899273284055415
P 13.423671093995244 8.990516333322534 11.150621291605502
P 10.951310381109007 10.598033412943083 15.819130558569668
P 13.556536430332953 11.139653131326778 10.51580936022368
P 9.366612139075533 9.035653100265538 15.835533525031675
P 6.983057289866135 11.357463225119396 14.395979233122624
P 11.045108106063296 11.243505883616248 7.998810368026794
P 11.248284535489793 8.151049159132398 13.445281074814664
P 9.122494160196023 8.579678471904522 13.708445201379906
P 11.274391768197559 8.274904513459166 11.205822916608792
P 8.394738615950196 9.86273314815467 9.682353599109346
P 8.837300872661212 13.637219732228877 8.984067206692254
P 12.205986498489143 10.08028393026773 14.071948807293303
P 8.718760659651073 13.295280764384064 6.745490049552074
P 7.5581782542249 11.406265078300299 7.1984769154967765
P 15.628045508257268 11.127918155830118 9.71479152455813
P 10.683092130590323 12.356634112005002 6.17858750782143
