31
Energy = -160.30383121 eV
P 13.778474182709745 11.583433488998727 12.306622110282051
P 15.216614899143545 11.101749247267277 9.26399712871323
P 15.37651959530232 9.478134811178535 7.769462332697653
P 13.149227789686893 13.464521219436863 11.290337215146112
P 13.385114669805285 10.477901436283284 10.376850580116214
P 14.26078649628771 11.353080085147049 7.200986399513992
P 11.715900282733099 12.419704185868763 12.564260290816488
P 11.457865717606971 12.191022863304205 10.341779530013806
P 13.378707901956743 8.401066856513973 8.026090538461627
P 13.206250776177495 8.222898635417915 10.227561392363592
P 9.733097826564327 7.038941023192999 10.90301266246036
P 12.378393937223471 10.425126716533978 8.025953135934852
P 8.066132161742066 8.903335783494581 15.248325786903697
P 9.02683101751926 10.461753477365091 12.263711515754517
P 10.917700694521132 8.749659518427821 9.959918553002803
P 7.746825509214435 10.745747601178918 14.09239546562518
P 9.03469823033316 8.262308356154454 12.703741087209838
P 10.425433411103121 8.106948237830126 7.741147516136369
P 10.531984398119151 10.122948453971338 6.791419092422062
P 10.033213386948807 13.987879447945632 9.927487229661722
P 7.34295954340151 11.56153684111055 11.191164448502121
P 6.204160285544687 9.123626425369839 14.099645027040484
P 8.250432746697594 8.273632532286397 9.862277672692096
P 9.357790189019118 11.010994729051594 8.505532638766661
P 8.165243232557234 8.034601274435278 7.692535316175149
P 7.900264292132657 13.418639979035973 10.030526992788852
P 9.030877404772525 13.185539492308253 8.092325065459251
P 6.174819926237868 8.222102617948254 10.501969508052317
P 6.1504753539668675 10.430977142205602 9.713373826383656
P 6.914344856028965 7.65977889999688 12.568858180306455
P 7.3991009760766 10.209239426426029 7.753019546082969
