31
Energy = -161.13158042 eV
P 13.187991159505492 14.549918872880765 12.232196170082634
P 14.36510685424503 13.380764243494001 13.717662182985986
P 12.323919721232505 14.161978182264868 14.255196149388608
P 10.703216408796031 12.861023430228112 14.861179072166482
P 5.541986381428755 9.086226976315722 14.918975512784879
P 13.926607158694814 12.50344823085255 11.726403866913873
P 7.652296034708487 9.878516286329663 14.77617158090486
P 7.187458788005318 7.672208351039622 14.61033404466702
P 9.514826133257104 12.093541595023536 13.232054061744233
P 12.21817352996562 11.044201220044927 11.710649243960859
P 10.605550231180029 12.552355199235256 11.382470200193387
P 7.720949735166642 13.404717408257968 12.798842609785765
P 7.614189516016056 9.978698114395122 12.541785181391248
P 5.993124533844256 8.378785810198593 12.854375484971984
P 7.437001614876926 12.898512155817471 10.643616703554954
P 9.108676166851433 11.441680362381602 10.13747748464273
P 6.29296493956298 11.766570200073712 12.212927777570455
P 11.993625670616836 12.30999435653907 8.533983776774425
P 12.697109122796146 10.472673648473174 9.593006410633908
P 9.794674316246414 12.415556036980016 8.219241786289722
P 11.122813446985823 8.913091002703963 9.382781320837703
P 12.581872750480112 11.913948768982635 6.430468667264436
P 13.741822750750732 7.114814873630553 7.5645711656084575
P 12.624777281698796 7.271842540617942 9.521126280797489
P 9.303739639863174 10.7460585716029 6.863367314392512
P 10.755892622523419 11.4063494952537 5.272698826053965
P 10.601032236770033 8.966256916937583 7.222145063360158
P 12.232569493730809 9.780624925071617 5.9100167975548645
P 13.550783397706994 4.886546584905162 7.79142777287314
P 12.080149328824152 5.9741799543997365 6.568519963361256
P 11.565483779001152 5.459088829926743 8.683670602944705
