31
Energy = -161.07414165 eV
P 15.363386843458569 13.72118967785363 12.293681536292993
P 15.857243417303783 11.562936356892896 12.568619847438468
P 8.827588590488519 8.997141555077471 13.968390290948264
P 10.545449653497984 11.003237132725483 11.536524900536447
P 15.182842770428108 10.52180221527199 10.73663858887305
P 7.125819245181968 10.256709512832893 13.271184761258317
P 7.028982968236731 7.990439027782629 13.105090858466202
P 14.046342106536478 12.431414920632117 13.527266066173986
P 7.4768358300181 15.521296892989248 12.09302464569349
P 13.48274428580865 9.339626413933381 11.711331927493605
P 10.432681651531922 8.94973932551603 12.445690047617909
P 13.635594848333499 7.241379248973202 11.075157365368918
P 13.274219633451288 13.306114660426847 11.639325155302352
P 13.65903888086618 11.948783806015395 9.940199105460634
P 7.031570466991297 13.610394060453466 13.095998682450626
P 12.156068996638579 10.251752438346243 10.160626809936705
P 9.118614664480274 14.000955722853783 12.37503575113224
P 7.136087627442084 10.312326833655419 11.03554175077462
P 8.923430405897223 11.176235658737466 10.036551502043913
P 12.438269458525523 7.17120783764639 9.306777287507469
P 8.683912395013856 13.411695076800626 10.237985514629978
P 7.383344829892892 8.104601733067671 10.882738751379067
P 6.568284496535306 13.846604260998719 10.910864191628797
P 12.444213351066491 12.7959674077034 5.731670973290798
P 11.455670980632487 13.603010679208431 7.522260974132705
P 10.294192032596401 7.805269077972724 9.11833914459664
P 9.474087089463932 7.416269233832383 11.181663021909486
P 11.953123493803844 5.106111036453604 8.809825319145679
P 10.287175529524202 13.253884319817999 5.691563183759446
P 11.029441620815541 11.543516643422585 6.862372931863145
P 9.979365322267979 5.667158475133068 8.490690152193244
