31
Energy = -158.32098093 eV
P 8.688220586271278 11.421438250706386 14.333032084572753
P 17.962461933654748 15.038095482104671 10.604182007769314
P 13.718806251222794 12.210468388708357 8.601511174638555
P 14.004881656737247 11.367270769042348 11.399740732457985
P 13.844911117837073 12.838009411378453 14.778287233933105
P 11.513662735456146 12.938708247473997 12.735801997246432
P 9.761149713368061 10.298952452077907 11.299279767375632
P 11.620635908398306 13.311298953877575 10.536010563330322
P 13.87224040214455 13.452428689169487 10.482406256210425
P 10.825617658614638 9.695944498999408 9.468401994098567
P 10.348239723110428 16.01648196844548 12.633011581794943
P 16.69304595674951 14.92886770511241 12.399206478811314
P 9.327475639629407 13.163315259021303 13.071378207900981
P 10.492021880057226 8.288498254494638 14.160371682977175
P 15.72557343457135 10.336800466623304 10.703246016376493
P 7.535567831973348 10.326550950943181 10.919449092832865
P 18.64896045456671 15.93711344622558 12.494846664033796
P 12.744755997477752 14.497053107247813 13.799875704467905
P 13.880600108109718 10.919034484808726 13.566617320149518
P 12.23290265227919 13.668076165321118 15.80667758312544
P 16.059661386826228 11.004908978492717 13.983595275021287
P 9.458538360036869 8.278232887795982 12.179471717195835
P 16.986352626371698 16.85539117037142 11.377091505375606
P 7.26424948308321 8.651739233369875 12.41029777061083
P 12.175361172262178 11.229186032497177 9.930291890063696
P 8.500403621472833 15.41741874894898 11.910948839624291
P 10.376711406231943 10.166202729773627 14.971200675554766
P 15.524926294886297 10.958063683537056 8.668982762532575
P 8.931163694170776 15.109137013096642 14.066988463350977
P 7.019160198363466 10.773247653895673 13.040122628556661
P 15.938332901186177 12.578657703559525 15.344267115132673
