31
Energy = -157.28326754 eV
P 16.083326431936346 15.203135337051767 13.698620971987669
P 14.34102548014234 15.193114312629723 19.51626861248672
P 16.86424264717928 13.489010117264762 14.602469319941351
P 12.90085206355198 16.17512775311678 18.168675488029038
P 12.767512891441326 16.696069352477938 12.22408035027641
P 14.006107830846366 14.398668339202928 17.48951184152603
P 14.841961570095314 14.022532975143656 12.302935521904693
P 10.88717443922062 17.224323338810624 12.961980871282426
P 12.438614475931141 14.199205092334966 19.022116676144886
P 15.275968585948883 12.317724357110928 13.658443372372469
P 12.700599378811214 14.537458247785711 12.465794792472543
P 13.735257562607611 12.554714893871527 8.495356559668373
P 15.41285569064339 10.181265599559625 13.421049972919912
P 11.750483886074003 14.228764927837299 14.43261730895891
P 9.998450126095399 15.338983455364273 13.650819630215697
P 10.244773645450465 14.913011033433135 9.643694927286443
P 14.001064864254069 11.042578041402072 14.956402850757144
P 12.38000818770506 11.636337581394217 11.827481151867357
P 14.182490651542658 10.392460059765325 9.179954271218111
P 10.595439749996965 12.288191040055612 14.282687006971704
P 15.658686253908254 8.98450857165004 10.056353228691412
P 9.977924411609816 14.203398864995682 11.633996283417206
P 11.735955967163056 11.707514503688387 8.578834340644656
P 14.31027913816972 8.904005192232027 11.6453063939719
P 12.105864589591201 10.68544628258631 13.825160437276283
P 13.192471585502725 10.845515691580243 7.1898783855589325
P 12.430888597104564 9.946347633615257 10.41897793183766
P 8.288391443270708 14.841728168407204 10.4608370926631
P 10.165693477166386 12.020606890176229 12.074980302260185
P 10.022625002829074 7.504735908467313 11.032840052491327
P 9.140302579487049 6.760809642264863 9.519167258176445
