31
Energy = -157.75595808 eV
P 18.565833772344863 11.805903936451585 9.852376245653122
P 13.994739666973917 5.8703088204715925 10.981110153927432
P 17.21606228075679 11.313286182668568 11.524213660532562
P 16.384546388283532 11.730095941400165 9.530463103064484
P 12.621337461683137 6.118209176590869 12.275927912927799
P 17.270467435072316 13.359241096553648 10.71856000099733
P 13.124649645565972 13.99809602601512 8.639743665524986
P 15.7714953561419 13.4301837617416 14.282103731448284
P 12.674725113530139 11.85926174632436 9.068358225368614
P 10.870505796226476 9.534320317623923 11.566342304985469
P 12.742235889689109 12.754565042676552 7.055956076252553
P 15.138985165120166 15.233035461347798 13.567335164777273
P 13.00868494335318 12.291866388623786 13.079737560939655
P 14.057437182230347 12.203374265184197 15.066573479157158
P 11.207839196401244 9.356192716864202 14.835231075478639
P 11.265599929819386 10.862175969029625 13.205936518540472
P 9.448951272271048 10.638269743444319 10.371759256599885
P 10.436527145108283 12.176372630959092 9.071094259527573
P 11.500183053705973 10.449827171762943 16.768528794779844
P 13.026536485234521 15.467840763023995 14.125393573614751
P 12.282259162636656 13.480826600253243 14.793072513454709
P 9.031301226216652 9.977518448125398 14.931418088717518
P 9.443590863578834 11.958031392165273 13.791757589190334
P 8.170154097388743 11.4947219726707 12.030174069847927
P 12.020898980706278 15.858404486916207 12.206064984118601
P 10.592927173182586 14.193273240608027 12.122136806613076
P 10.434560702087026 14.202114379568888 9.894625356459954
P 9.474192889992862 10.87218828811024 16.914227413680813
P 7.313600359416206 13.501394235900543 11.585809432257971
P 8.255837648945317 14.692364944764119 9.947150304550226
P 8.578667018478079 15.242068154301451 12.122151979152646
