31
Energy = -156.09844828 eV
P 17.946379208044604 10.141813842516788 10.756215687155812
P 16.79380383433873 10.044764693312205 12.630755764423125
P 13.172128882312988 8.852393516606973 8.519633848019943
P 15.831090938368087 10.747972527913463 10.781144352584544
P 17.339332497818596 11.99647960873568 11.784161499722206
P 11.778606986657968 10.198770236084714 8.4511719030626
P 16.366922560773606 16.05912411330108 11.643572567803137
P 13.947807600000646 11.464666802337595 13.797110969215101
P 13.208670333673378 9.380502623284661 14.184098709030453
P 11.647867945089063 12.389717849070932 7.746848032209137
P 14.532833321707777 16.052798435919495 10.94166076313949
P 13.622114327163017 10.766122651376627 15.893906799573212
P 9.449386178444717 10.121862483340339 8.525313702180576
P 11.078613540155676 8.813786885529858 14.17571750292402
P 9.321879552318073 12.16822093503133 7.732706645925089
P 9.434189994581123 9.746518629716821 12.983278094032576
P 13.433310104674673 14.143693377461329 11.728849500753475
P 12.666672275115324 12.683673320832696 15.099364488484529
P 10.176178075411483 9.342516910229053 16.143378679001835
P 12.824934472546794 13.58018526051038 6.75943099537942
P 9.103598473681572 11.850155540962106 9.875583554694488
P 8.296535134040127 9.915590254497104 14.958693433815778
P 10.962850740412907 12.332443900308387 11.034127490461923
P 11.330960957584029 14.571473878651272 11.08658865163302
P 10.504219353211402 12.85948998422276 14.671241183049048
P 11.972867298592872 14.876833182544518 13.14552167604792
P 9.447427345584076 11.404528506813364 16.102345349117684
P 9.72724587020252 11.904071673928655 12.830184764682258
P 8.087236380014449 14.586522660104647 11.391890620135888
P 7.12911210574285 12.831060676679545 10.655483045735961
P 7.671404523401059 12.97842584984101 12.776200537669919
