31
Energy = -157.95876289 eV
P 15.168865815811241 11.536512552082913 10.192757319504889
P 13.634869760256944 13.11205743937477 9.776131851230355
P 15.265243191268635 11.087265187778105 12.36781965747207
P 15.010066922235657 9.336150282779817 9.857249747187728
P 13.565189017669145 8.88264234878168 8.226095851413602
P 15.292536894572242 13.953113119851164 15.247882410227177
P 11.831215968566276 10.175636260962309 8.460418209520336
P 14.511552039767816 12.916498817261395 13.49590312604634
P 12.659604079682529 8.422069775612577 13.148065522310283
P 12.438576919147959 12.278031340043414 8.11416433887714
P 13.92688961839903 14.744116937107966 12.453281297652982
P 14.038459916529053 15.49690338643957 14.509969372490506
P 13.21763852617254 8.19772313468895 10.595629049606178
P 13.192995060893285 10.505637610990508 12.853964318568032
P 11.957353190833553 10.001929922859526 10.76896882799404
P 12.994517321099476 11.78877473744755 14.546480016389223
P 11.939984113911446 13.757477863522478 11.499140585890546
P 11.589595005556205 15.715292021267661 10.46217897996467
P 10.336613754644418 12.93632890174759 8.53104374484164
P 10.518123009200238 15.17386610468525 8.597270272694999
P 10.30570558390304 12.417944559249166 10.642171215429176
P 10.227558471091939 14.157341640568491 13.150276889312703
P 10.663779733915604 8.966247005363707 12.355525986907663
P 10.055484183584461 12.500926683884744 14.5685389065101
P 9.855412203971415 10.326718744128867 13.884381045945638
P 9.363668212807877 15.72908338285037 10.388338286243581
P 8.806954412194527 13.793434184123146 11.45022283936374
P 7.370306694748428 5.311655951491387 11.778685059888966
P 7.676243593111223 6.654640356640996 13.09337045426952
P 7.794973842948047 12.467255062584213 14.406139916238386
P 7.731446247976485 10.598147990300607 13.5193582064777
