32
Energy = -166.6033547 eV
P 10.746619152546593 10.9552080526585 17.148020743122846
P 12.442615378460673 10.093059469497335 15.906889170774175
P 10.40720124439669 9.194154169414377 15.817691423392683
P 8.039445355853633 6.096400460217386 8.91564247930083
P 9.410185005889893 6.144716653594367 7.183121092906514
P 10.677838931489122 7.728168417499903 8.13542510024111
P 14.87095878237552 10.478829129513281 7.613205430690456
P 6.986735836325273 8.05645032188399 8.963948905387525
P 12.235516818106147 11.853057165841282 14.530930546039514
P 9.440002337724277 9.927487952331479 13.922198906959336
P 6.375363204036896 6.4950502473802985 7.465985137988572
P 12.475125702534676 8.380265881164721 6.899169168759371
P 10.502695378296913 12.67940352698273 15.7199780373963
P 13.039431973311014 9.918115273425954 8.374817295075186
P 8.69262105730089 11.816880366159173 14.825221472857983
P 11.2853731972285 10.685188956475347 12.924529606137227
P 7.933592093727472 7.332679623215369 5.934049881938849
P 10.386070101767125 9.013672299721613 6.394696222237649
P 13.819946250277692 11.601808427552143 10.680962782386501
P 15.072841342243006 12.25820364931166 8.949826906397945
P 7.3795459749086625 9.156408048018594 7.056374286478027
P 9.124703161502488 10.508486354386287 9.408454257914503
P 12.852152969050817 12.71594868899055 9.023268337283271
P 9.116354342701 10.684762026276054 7.153689813966473
P 7.612618268301573 11.280392162868397 11.896507216619481
P 8.431346028356447 12.989055578505866 12.948496806593411
P 10.437947006079705 12.500978192530399 11.937161765795114
P 7.694128820989348 12.173304878662027 9.879983798993827
P 14.083615616595019 13.568698016081884 11.805361308709742
P 9.933000753173525 12.54004737593776 9.768414349649746
P 12.003117472124952 14.182250186076121 12.148471044824904
P 12.947474639834839 14.68359808303621 10.208578683424923
