32
Energy = -161.99964962 eV
P 11.034356416276463 6.910657903952191 9.681117119041007
P 15.619897586557057 12.944415814028133 7.899632550736496
P 16.94206790770045 13.082633388292162 16.711955731225466
P 15.175278676466895 10.590503339649931 7.713953566235425
P 11.518856291130085 15.34805133570488 12.677815724446248
P 10.166100396466867 14.707484383657976 16.255365767163685
P 13.627469610188927 13.66812629161904 7.565446453996667
P 12.900565800019454 6.099390235645674 10.519902832037769
P 8.852149291794062 12.439961885776514 13.707424596978198
P 12.833418674001624 11.286375602888196 14.733738732777722
P 11.92074486589042 14.613789461022364 14.767267746632466
P 12.73339615204852 12.070916596020435 16.83921379257991
P 11.287051017235594 17.513133353691654 12.793025016337623
P 10.484094064214924 12.531814572496867 16.591291548501392
P 13.175867467052308 8.159986408888109 11.363659687722786
P 14.299683206924328 17.241046742856753 13.980871149185962
P 18.30706376415748 14.281169215363777 16.139618180648363
P 10.9062738892133 12.46332443931381 14.419970584437516
P 12.275160908340085 9.343839850276273 9.65479859834517
P 13.18357134099267 16.5857869088533 12.029893202726678
P 8.439237571518554 14.157776266443918 14.996145211339524
P 10.9798736662341 10.615432695790306 10.93961132118936
P 11.360461170995718 6.942699965043113 11.862381864067453
P 14.022518097929282 10.808854835163654 9.525322471421239
P 9.556448521330143 12.906688842482275 11.450867436632175
P 15.898816455551206 9.770210481096154 9.58767587260853
P 12.391597696741012 18.18879940023165 14.733701648662159
P 13.165484233937073 16.364726703892202 15.59944337550252
P 8.993176521544088 11.05121177744277 10.437444495106497
P 11.691625108024102 12.498781146813533 11.678690183715725
P 14.206196656763542 13.210528909908207 9.574904081530661
P 13.718072457567992 13.268456730503411 15.234424941275938
