32
Energy = -162.8519995 eV
P 10.82515865029793 8.782754836757405 13.854000338256856
P 11.235106862620576 10.039572067748137 7.1841298362319765
P 12.70345832474092 8.818792848103762 11.01783881316824
P 6.85475028434484 11.911329418823435 8.711754403729584
P 9.008469160580347 12.887729537197577 15.50944312140957
P 14.327154083027533 9.093496816502366 8.00729799053251
P 10.811994225643987 8.244020637497716 8.388941587600977
P 8.924338859334473 12.511414767528022 13.566883598025779
P 7.636468596831339 9.726821468935126 12.608506152658865
P 7.926860789519117 11.79846731874485 6.752163281737878
P 10.607576653474307 8.403018275574764 11.63760945052667
P 12.26850009117658 11.807662701031486 13.201709150650334
P 13.532726983530935 10.776255084010867 10.07666697915699
P 15.489445501724353 10.098404574529292 9.596660350228948
P 10.968622650049952 12.46581360362398 10.610500140038042
P 8.660420336155518 14.979674758871964 10.94451379005042
P 13.835243256763373 10.5541965468558 15.793366014161196
P 12.861633361267394 9.761023309947516 13.78092916011422
P 13.11686660792276 12.603242771654878 11.28359344334568
P 6.96203488295066 11.556111317020958 13.30188786235059
P 14.13098666144606 8.509728986734313 12.60097265117253
P 9.812824676406482 10.304618947632372 12.585111577603055
P 12.795057422090467 7.691187818612033 9.099365197306257
P 10.7523465705941 13.474489524348144 8.639674348449626
P 7.175249708822341 9.947353151018245 7.775464564045632
P 15.429074374080049 11.645041431993201 14.891948217224348
P 8.978155308959494 14.770662412245631 8.917808265004888
P 13.53518497225379 12.624468385003546 15.018847050317484
P 13.135914210491316 10.962609404402237 7.894764152631665
P 8.513893612358592 10.563418932523563 9.49714947278731
P 9.795678082130896 11.551270902425642 7.9574780839077714
P 10.17174860120566 13.918291804897297 12.075965318369912
