32
Energy = -164.40902266 eV
P 16.318012196510836 7.385192497194488 12.206327069464026
P 14.329552617096445 13.93515539063438 13.443106137666453
P 8.757017345795902 11.175274369177748 16.44667207645619
P 14.293795567490326 7.73269477410894 12.974591347861054
P 13.312277313577498 7.916508611892147 10.992520756551297
P 12.580005767588373 11.984588884137496 10.163467165900837
P 12.073222376653435 16.98299586571617 10.349719412805813
P 14.360274169703057 7.316644023838066 9.23874064468463
P 15.318220246882028 15.411825008367849 14.74143751018142
P 10.214515947827296 13.37879554355881 12.51603217492974
P 7.721175745388197 14.116572127384073 9.84779230018454
P 13.854047798840474 9.793793121390364 11.986972869523457
P 11.12609716694364 7.55682314491053 10.850734687600244
P 9.457062551036064 10.342758258732685 11.145594537397956
P 16.27672743163196 7.2644958087053295 10.12686234498928
P 13.275264830515528 15.782453100132523 14.003107124646265
P 12.126135560859963 10.181538455233019 13.343342067613431
P 9.893718301104068 13.792414551513904 10.27636238079775
P 13.154407360697613 17.164515685657555 8.440760791074759
P 10.29421226418509 9.217379405752105 9.43939879429185
P 10.491732092497186 8.80055564413395 12.57577396795619
P 7.768872217560949 12.841259684743184 8.214262348656552
P 9.458148919578486 10.375742929930892 14.58170441526679
P 13.84953727875024 15.74352497541877 9.973523834895447
P 13.632775061223168 14.22205234484665 15.513793750941359
P 8.54316697130678 12.280368353071976 13.629209501948754
P 14.06874127984313 17.912689417441598 10.299720646586856
P 11.521757018311664 10.95804597942943 8.587949455073156
P 8.723325981517046 13.115859112307055 15.623969485654698
P 9.544400678559185 11.950194317133356 9.15309855848271
P 9.00670658044066 8.339882282561394 14.083739497186357
P 11.203209658369946 11.57552262922964 11.777828641016585
