33
Energy = -172.36238201 eV
P 11.021397027987787 6.893427726642004 13.616024667952708
P 11.242416720533779 9.098857083059517 13.296611774403559
P 13.461132319533851 9.081235628090205 12.913559107075681
P 8.256975565681298 8.268854452591722 12.809303547074967
P 9.00407185098204 7.146433738960799 14.613673910321808
P 13.82569247565021 11.173907515899936 12.136551809574478
P 12.453001831956994 7.249374261727003 8.804732281369011
P 11.684626780443436 11.65273828115004 11.65757734908267
P 11.314790483856898 13.199925182350496 13.1847781219176
P 10.22657192211779 7.874633767823209 11.76040441821687
P 9.683270739379305 14.378543091690604 12.258229786490666
P 8.200045831127666 5.124758726993711 14.301356728654563
P 14.132159449384842 9.393911674827153 10.82411395084334
P 6.987079635114157 6.794005677908388 11.79216082502826
P 11.974321767018626 7.777476510143701 6.685999143121404
P 13.77821720821948 8.612260777948006 7.674334210467774
P 11.742982217078202 15.203961677450522 12.287492089186415
P 12.451230353071281 9.40591115528884 9.30993257633115
P 10.802386121560527 14.696343456524476 10.341795986744893
P 11.848901528551933 12.841473003644149 9.782355036642782
P 6.1880486909585235 5.5129856879813435 13.43329028132803
P 10.351369567095892 9.30006144829893 6.32282569880328
P 8.84177707208058 8.879534353244232 7.826578759420217
P 7.818833251450151 4.758002512029007 12.13882281300422
P 10.221932002143726 11.608033605069982 8.817625218995094
P 11.128150612504687 11.34375695296936 6.820340397624452
P 7.217888156473513 10.073764863713704 6.925449444292415
P 8.698542367088127 13.085915605755156 7.994436866696484
P 8.027460806802075 11.091733746832233 5.150195029294347
P 6.948629963082565 11.773177026442486 8.313244740288399
P 9.434041703261816 12.62311972263226 5.916270387344107
P 6.655226231402521 12.828279425896508 5.045941715979881
P 5.980070978492257 13.231655609719343 6.958006023101687
