33
Energy = -167.99696306 eV
P 14.87127306381979 9.850227721928416 13.774675541177944
P 11.519082223722037 10.985142040718596 8.0675435577398
P 14.882952204494147 7.572594382057 13.468516147701735
P 13.9692344212676 12.80675279785821 12.16274687430032
P 17.049792837043725 7.506267095234519 14.087139433349314
P 9.883594563668357 9.979304348857074 13.122588899316249
P 13.567124759021532 11.50330804788575 7.3703238718887665
P 11.272302707941607 11.546638519545953 10.310265294021276
P 16.48412675946398 7.823975451850314 11.950168203706465
P 7.972299492944554 12.192711566196362 11.797558491590346
P 10.816985996441812 11.770880874254663 14.07076735292364
P 8.664397750428423 13.154443921751469 9.718351715254878
P 7.928219873872346 10.085216788733907 12.234727742625388
P 15.073331793473464 11.62785753974739 9.114364415076157
P 16.50606241401961 9.356480221162585 15.16571090399999
P 11.95348111939883 13.57109479385584 9.83158369229225
P 14.360423177837099 13.435317276672237 10.104807018605367
P 12.892898878500173 10.866423895911486 11.6804068857658
P 16.104838671221753 10.050440790501057 11.879532118911609
P 9.300523218190332 14.64320879940698 13.972281340039629
P 10.401559457843208 13.31966092106351 12.511004075272032
P 12.592517619939763 16.67750201776507 14.526170349552476
P 14.408627885575374 9.91097283250115 10.39148652564918
P 12.270839979631296 14.298058992187995 11.984002023948165
P 11.363826279409595 8.756306486820826 12.116687886769634
P 6.594977810979242 13.845442131965518 9.564909949336188
P 5.892816756030698 12.57692361382283 11.039675422828578
P 9.98331820738674 14.782483292604555 9.9652126480099
P 10.697802788759729 8.201722914366027 14.033191277775067
P 7.494964846771871 13.410482491659803 13.710222026611486
P 9.051432317019751 12.740348291426688 15.160234169366944
P 12.571321779881963 18.523551620305533 14.068114699980262
P 12.021352612858985 13.04656178823987 7.463333713472404
