33
Energy = -166.92848251 eV
P 7.676633119475643 9.554734303651692 14.018881674578981
P 12.05012501738638 8.484548438832258 11.573298158102684
P 9.529995912038398 14.21090927786931 12.781228830656945
P 16.071393124909008 12.400508403846397 12.546445487147475
P 11.470904300490764 10.147664888370185 17.51239606606091
P 10.874709641483186 16.615519492555887 9.509327974310741
P 9.461801446588627 10.91969442244535 11.167743985611516
P 15.637309912185 16.429960092807363 14.349096152975152
P 14.866516336301947 11.573881526466936 7.838560418872425
P 11.47190441153928 13.445821888705266 12.890540773618591
P 12.601965960401001 11.985298222650702 17.05416761845814
P 11.627876302481212 10.722621484062469 11.934475474642113
P 10.56147484260672 12.119760901449666 17.88187798953214
P 7.61464007587374 11.592723765109952 14.202721445129134
P 13.974347346535609 13.531378662859465 8.463024040836046
P 14.382603320339946 15.231894857555382 13.40476919258923
P 10.42558663394921 8.006237578870504 12.973558998249715
P 10.873030918363659 11.427905318988874 15.818321263851137
P 8.338332743403063 12.407774906886626 12.328298807626727
P 9.927789440300788 14.762552314816007 8.804729338144801
P 9.052813598493644 16.71037156321982 8.27398433277296
P 12.702795270450546 11.977389033997213 7.529706526607604
P 13.597512131362645 11.300534956666999 10.987740594917328
P 13.347738602446665 13.458830158683401 10.601727372817395
P 15.217168091913686 14.271101970538382 11.552601197644124
P 12.341114663556304 15.012355798029146 14.036241329356464
P 13.603499202032532 5.9786284594425645 12.286063622148548
P 15.149888217520607 5.621672439399156 11.231170104898567
P 17.86911123109675 12.49658080813676 11.687736638042002
P 13.366650268815365 10.396799229621193 8.978123030812581
P 10.961793853015873 16.082823933129202 7.372606550084498
P 8.670652660451609 9.095011711212225 12.112919261509939
P 12.0330251880892 9.379212975022073 13.648619533290976
