33
Energy = -166.23307868 eV
P 11.271647777088498 7.2794219435840715 8.080651223915568
P 7.396257242331049 12.34508997301545 12.419377270629408
P 11.690182588853347 13.4988592449428 13.469828221959274
P 9.700745261504807 5.875777162036301 8.781781261029808
P 13.379469910953341 12.31962271000703 14.321231550011852
P 13.79145747571615 14.153729726573742 8.030648039769378
P 14.298035402567454 12.54765910254396 10.988338965740779
P 13.090034710229597 13.602597809178736 16.291677886348516
P 12.02581594990785 10.126305595458753 12.558525294014768
P 15.216728113734757 13.564489702486812 14.048336056111937
P 6.194164171493858 11.79981408183672 7.586606557157212
P 12.127080397527852 11.316765958429476 8.841390725018927
P 7.825434889212716 14.142887318004659 9.995846713327726
P 9.19241581899053 11.640528610140027 13.550472823314612
P 9.550245106452772 8.578876857706355 10.32688227269645
P 6.630610137878472 10.705843793472605 9.194693202798778
P 14.081600862831843 10.97908166896595 12.508734779162351
P 12.588887568093458 13.303379870330701 9.647377949684943
P 8.942562492343077 9.97963425381158 14.837037277700894
P 15.570723616522292 11.49082249490383 9.353577755066869
P 9.063991168499477 8.08230622502982 8.292493548808968
P 11.106163392203346 5.301454449730504 7.256507128575677
P 10.879952316134423 11.980433867380066 12.024235896615979
P 10.624993277254946 10.92449153670699 15.926468770738232
P 15.055541322926938 14.269355271206848 11.986136601756495
P 8.068460903913797 12.018894552891018 10.323722579848763
P 15.540622658669255 13.061980250465886 7.850668511291513
P 14.374449513136732 15.006188943498447 15.508092029407212
P 13.903347532126382 10.259351679514111 8.648448517534566
P 12.45417994768488 10.325456183281496 14.748873156619151
P 11.006900879284936 6.970602004867614 10.360195218849961
P 10.113430226189184 12.995907831515783 15.025257375071682
P 8.092222046380034 14.400744005120412 12.064239518059498
