33
Energy = -168.93601337 eV
P 15.23021918521737 10.622108908780962 14.160808995945187
P 14.997552161118527 12.59819747353097 14.899069928014674
P 14.936286074251324 14.169138652473658 13.150246486160256
P 14.045737658335613 10.961389957854962 8.793038545800014
P 14.984376159889836 10.062295588888214 6.930505763795751
P 13.25629520866754 10.572145920934487 5.726071275729885
P 13.79181292083726 12.751586882738525 11.942537610538484
P 13.766770196647018 9.172466489755013 10.190966487198093
P 12.452110534364556 10.058288371627182 7.62416596694543
P 12.206676842203835 14.582500880760008 15.761931421154706
P 13.667324049514459 15.582119929168368 14.414249020772266
P 13.29353968322921 11.406852467991285 13.784509566734657
P 12.562860632512741 14.392937773413973 10.934893088696322
P 12.294250098207145 12.337912455071258 15.550449725809976
P 12.815419996279497 7.96768807483865 8.538625563955966
P 11.48641193247819 15.748005323393313 13.990389645828932
P 11.5389046631647 8.929448607540076 10.096277255730445
P 11.4704307510514 13.716918447500959 9.109224374717225
P 11.469451082274887 9.07200691068812 13.297894217404574
P 10.528239641902152 7.949404062940415 11.694463306405646
P 10.909703357439474 14.333275350892723 12.361352766254884
P 11.90611306518872 7.645797960338594 14.883069440221188
P 10.3435533528164 15.56964845630466 9.293410126168343
P 10.379210737579537 11.98637196452507 9.985657576683415
P 10.426617909161292 10.22786993303729 8.658213098997217
P 10.291785668716045 12.238597128647072 12.799928280903
P 10.133646414662415 12.154085493269047 15.047123568473827
P 9.350953236038093 15.502895442982608 11.216511162292162
P 9.976659263935717 9.922077911715489 14.79080771615442
P 11.19851260231063 8.989221903730407 16.32910696362012
P 8.164111349091032 12.117246717226527 10.121605380220954
P 8.081581406351457 12.25250936095751 12.39244101320182
P 7.6651544546971015 14.029261486617452 11.152726949604837
