33
Energy = -171.60895257 eV
P 13.452085503449773 12.173644076142581 14.924697288216205
P 14.983922840162471 11.988690686484931 13.511315365435872
P 12.140668297639394 12.956841299329819 13.355303347699877
P 14.48998024716024 12.872289554962576 10.205526711210899
P 13.48286445338065 11.848163688716015 11.945055143862437
P 13.082670075830904 7.473020310504684 12.036699583820297
P 11.986353592194986 8.681331624641665 13.605312594511783
P 11.586816773635984 6.857546668050911 8.849070466874695
P 13.386639975410002 8.09970790108047 8.57561017056482
P 14.025727161080814 8.856378476832402 10.552296020690623
P 12.973605878234304 13.460537196968044 8.676778891777786
P 10.34776275384536 11.6758768677591 13.736514149366709
P 13.974135185152054 11.459708538025733 8.527025548649844
P 10.84172456657514 10.053942283918591 12.28227263087785
P 11.54432773757843 6.308004870629266 10.933975486474765
P 12.483079398645286 9.99943348787449 9.41819725485129
P 9.800618727959113 8.345039538372713 13.301762429626095
P 11.119594397241222 12.961188501412394 9.808566617911689
P 10.67276890064498 14.760090197845129 10.988425916474593
P 9.465427031439733 6.854598533263851 11.654961793231603
P 8.998302231855279 8.289025187056478 9.977502859450032
P 9.547413855757979 13.11667275108381 8.262821764193772
P 8.710724201876078 11.276378284517966 10.721161587934361
P 8.440944208870869 12.32035739367945 12.649901875750682
P 9.636990419934431 16.246827539795962 9.688584639876943
P 7.85928660892947 6.980580777485377 8.602009705029536
P 8.568188408062033 14.29871925739501 11.468321583873939
P 9.030049933473707 15.259921807931462 7.993314787786512
P 6.987534240621437 8.587348313441792 7.334340659764669
P 7.8300474399656 13.072877264729302 9.660299075235555
P 7.32815395687189 9.489217326486552 10.866292136080169
P 6.0407157461813705 9.63705305584182 9.080649606699202
P 5.677261578513974 7.471357770648481 8.728574273054424
