33
Energy = -169.80771549 eV
P 11.815082173197348 16.168942760875783 13.326855868631425
P 11.111308984071945 10.682770851862973 15.592839049547571
P 8.353821058819559 10.536093592350285 14.18877545061818
P 8.924117157700307 8.407516686465197 13.754938687345062
P 12.807481369582382 8.62679053749459 13.336848189399179
P 15.4252970921355 11.671301067524617 8.113748805105693
P 12.939709705703148 13.652900850406464 11.008663619958028
P 15.863767288565642 8.519304763261559 15.947522529802923
P 10.385852259714465 15.943633200957416 11.661357445673836
P 14.883414078288801 12.88254921883958 13.784472500926704
P 9.159135377745356 11.172978879606509 16.19695848670504
P 8.641151776218699 15.157299415131542 8.782755798514959
P 17.007315970714863 12.606924689604657 9.322076612972843
P 10.764769186644976 13.929728041558466 10.77741170402542
P 5.757761416045777 13.935976111294709 8.758333157860715
P 7.467399554157616 13.849212485413602 10.218106095853926
P 10.648624735332154 14.29147728656742 8.639577418775824
P 12.265866995403092 17.103910504913035 11.354717680456831
P 13.709187510062568 10.29431401036712 12.13486701533148
P 17.467559180546424 10.849919075167813 8.077033684628892
P 13.005794327399034 12.32079616875567 12.823398371844625
P 11.175880359265642 12.503166700382765 14.227081784528094
P 16.983837803949136 9.765848945541753 14.445045481240044
P 13.876695846499537 9.401512902292591 15.248839776982031
P 10.018056383163298 11.234396509143536 12.764782958427242
P 15.056838286700248 10.757411902462072 13.917065558092798
P 7.434016786897331 13.966142017542218 7.271660920431495
P 7.170296446254205 12.24674906293471 8.68170688399541
P 10.755607993304196 9.411148062904852 13.727021649092265
P 17.045043546735908 12.789489974012737 7.12808102098593
P 13.571518155331127 15.477230413999033 12.102181399549792
P 16.52153586528963 10.514571049757611 16.42973466152713
P 12.625353747372587 9.967090679419094 16.894638149979897
