33
Energy = -167.22372721 eV
P 11.524114236749622 16.173086256138788 14.302788634548271
P 13.307056134828649 9.73946777552532 13.549182015685002
P 8.144766762730368 13.533564716750313 8.296176990866002
P 14.691200293266814 11.419702933803753 9.725105882244439
P 7.995599714108349 11.4135608773719 7.7356577324872235
P 10.770101217699072 14.655779731910707 15.705421722029408
P 13.640193834756621 14.775767593778731 8.875028814054827
P 13.630618788452265 16.818036988923488 9.445566264994417
P 13.181281818930731 10.407743025176154 10.314583063714904
P 17.74952272268801 9.57136839454501 15.6728060685005
P 12.06850059354982 10.275591172514714 15.315263435417547
P 14.43806626357756 11.160912735285732 17.112777657884955
P 19.104932796375383 8.83606019715993 14.09683907805177
P 11.183775579926886 9.044293010712849 13.726474124602532
P 12.764719760105226 9.912742654281042 17.30663561988349
P 10.144166399158314 10.742577261344818 12.614708401988807
P 10.547252487115767 16.012688613786423 8.439081156702246
P 12.693107696924393 16.326213374517046 7.570265298187762
P 9.867187548705775 7.719091359805631 10.21804427899055
P 8.276740246183639 13.321883258057102 10.498547470384574
P 14.606698087838588 12.322211534694864 15.36914425426586
P 9.855573706397495 8.489470592174921 8.281583688029572
P 11.32989036620259 14.180206514849175 9.304328315891834
P 16.99334334736702 8.211303604069395 14.11834291097641
P 10.217866096659352 13.619578582675526 11.133932239419321
P 7.980065812332006 10.298157142425381 12.456272881694188
P 10.141175202099319 14.025540936920978 7.458092064076217
P 9.24922960128497 9.699695396921555 10.909796650394535
P 12.868706306433232 11.933792006704861 14.100270157521969
P 10.137242733216727 16.754673093486723 15.910547817690796
P 12.20536816497016 16.17202503033712 16.396529837477665
P 9.6063331881417 10.578291216581158 8.861772446135923
P 17.517445712352057 10.286765637897695 13.610276246334262
