34
Energy = -177.501233 eV
P 11.325317319461053 8.577843684948432 13.88128857889017
P 12.610698077369644 7.356214891490017 12.502403940539931
P 10.759270532024901 6.314712818505588 11.877015636680992
P 12.557145267816567 10.387798121569068 14.379289681749633
P 11.082980286960902 12.032699030149262 14.034456788077113
P 12.419150951000654 6.119781643409677 8.625898158983713
P 13.265605897944914 8.912894585759286 11.020411508963653
P 10.02409261590897 9.2939440443862 12.259610495460713
P 9.189271309718608 10.953961870579416 13.436979790230742
P 13.632351568180987 7.926183356014579 9.046413979063962
P 10.628455044147207 5.780347021567096 9.905065883757633
P 5.350355723184119 10.594352946643532 12.433196513288994
P 11.542594634089623 10.328880023262581 11.013610675570044
P 12.612414026316179 11.599140999187306 12.506949498158724
P 5.041588062219835 11.83049717197602 10.792622382120912
P 7.212966675599177 6.862451631398468 9.467925244865084
P 6.322218857245289 12.555330149807352 12.456357234358938
P 11.76749139745457 14.18043452595382 7.3455342901395895
P 8.494589020689027 12.334039189099185 11.78588631075677
P 5.852708160726931 8.582406613842881 9.687502497877562
P 12.002428298086656 7.9956732063159315 7.485343395525236
P 10.190240975620112 8.77639536237546 8.5739142504261
P 12.959700647493841 11.693012461701228 8.353555278861885
P 8.7988549907077 7.185696776906473 7.89762767787408
P 5.686687859459093 7.417071987933453 7.8273616236891215
P 8.672688751083086 10.833153139566331 10.16314580277495
P 12.655768889819795 12.444401921236498 6.250380550780033
P 11.299022583867096 12.944674727597436 9.20390522796987
P 13.915614839452427 13.599814850931224 7.625622762237926
P 7.360914006983794 8.173687991748654 6.495017328945033
P 6.676228175782424 10.57750213434778 9.154708575757546
P 9.639749256814877 10.445579492252254 7.125374849858273
P 9.331584198171303 12.18331266016503 8.512397734721986
P 7.436855592230865 10.322408892759704 6.98970462996063
