34
Energy = -176.64019309 eV
P 11.3725466745098 15.550640846285976 13.124651441935553
P 12.045686257066475 11.103636271637004 14.085650935621263
P 13.274041810890491 14.445283668399187 13.431937831121084
P 13.477792110391995 9.660607629145622 13.070001348382196
P 13.094194656755883 15.863001300650337 11.718409788482688
P 14.568292398853782 9.448116099368537 9.816444502221865
P 12.401780228517806 12.614733750439632 12.455114696985907
P 10.046352056982329 10.493443768761916 13.341273622188316
P 9.463923148921152 8.957081808086468 14.794509294860317
P 13.63056575710626 7.5976808587585944 10.583541982227072
P 12.067548570414038 8.164022513591485 12.140103436643903
P 10.574049392660715 13.820624619077506 11.770333905824415
P 11.615553769832976 15.007827872469173 10.22573614685204
P 13.378332446846384 10.888797548414443 11.157355762795474
P 14.252635561247226 12.662504280457737 10.031918615348967
P 12.838848470684855 10.047746442822916 8.522875719141918
P 10.439752120121376 9.556809980077569 11.385935299714463
P 8.678306134723638 8.189462524159808 11.516237156793693
P 13.695554097969588 12.072057973134278 7.921895874495112
P 12.189423764307508 12.930873041310685 9.445472232357996
P 6.524742173210935 12.963679282379104 10.573264052925355
P 7.095913701671702 9.822523718466723 11.601691700468296
P 7.7140823883998255 11.180568310431292 9.94877411753639
P 12.891610996408632 6.824931097168078 8.563536655923752
P 4.6422348426829965 12.245266669949187 11.504858719359904
P 8.399203415679871 7.627784044350331 13.677351444417075
P 13.308874423837207 8.448038506906066 7.030920901371614
P 9.814457708694546 8.487059700804018 7.609162840902863
P 10.689017478056659 6.7400530131192475 8.665907149709573
P 6.196312139640943 9.648338764573033 9.564314732945977
P 11.357194181204935 8.467116274329548 5.992749722608434
P 4.65589954345698 12.836251460718525 9.367817855123182
P 4.274879384402294 10.714815640786805 9.937521981572518
P 10.227283579927697 6.603828595205992 6.498228872169425
