34
Energy = -172.14331508 eV
P 12.14874105786237 6.476305029964578 10.912865861634607
P 10.593158941750646 12.59288909791386 6.080524465966267
P 12.146502090838784 12.50210445719092 9.830248798938715
P 8.94307216576011 8.715116992550843 9.971165012736057
P 11.18985975429336 7.219790488243383 9.411378990600534
P 10.49695514614937 12.810292527738191 14.736517954388894
P 13.590003644924513 12.637398700447843 14.70083099304332
P 12.044240036457264 13.489442620063267 13.315179352406819
P 12.18048089722734 12.874607469812245 16.41814066331139
P 11.226306686421422 12.131796146284444 11.830675900547497
P 11.120462512578978 10.052921865279 12.637638832176494
P 17.43457181272707 10.720061028211187 9.675592139178631
P 7.954097971419538 14.610765932677834 13.489562165028994
P 9.604262315662677 10.222242143742447 8.546345360607807
P 9.001271277696464 9.490649556054993 12.018811138514646
P 11.815934526290457 10.576716034828634 8.771265036240413
P 15.74322372814809 11.782303349069172 10.599849294496892
P 16.24390668724225 16.80181153275691 13.349103308727253
P 7.803095621998707 11.215485327045506 11.43631698757405
P 7.496335548270559 13.248734877894238 8.245779835706388
P 8.723408458743679 12.02176234393734 9.52147666330848
P 12.70050382922864 10.835930344927691 15.671609354117685
P 16.26011534193856 9.209544044516873 16.266421180867393
P 8.778831817381123 12.601365600513331 12.991436362260487
P 15.398240116656083 9.881178143021787 9.541704630223087
P 12.190722118029688 11.471029658523388 6.761453736773263
P 10.205880541704058 13.618497235253825 9.629475695386361
P 7.1463180449261765 12.86486928574346 14.588760294685605
P 15.915903778449994 11.697686598600932 8.41025699616228
P 15.049717815900259 16.130249369197706 14.66765266725882
P 9.46875938120028 13.875342960968203 7.515989295851974
P 16.936836815111203 7.864534437781006 15.108227188448492
P 10.671168788777434 10.612131077447504 14.764491469169325
P 8.710295707622757 14.077628701187349 15.51643735305178
