34
Energy = -177.08294971 eV
P 13.75930008337306 12.725008844083895 7.537604314832021
P 12.934419286604223 14.69735894832641 6.8608646549695225
P 12.32651460350631 15.641365350455315 10.062655467109087
P 12.605132335801752 12.851215954683664 5.665834474775627
P 14.962607470031843 8.134205924826725 11.420868578489754
P 14.511677090563609 8.62634110859417 13.640080753119035
P 11.996520248324764 12.74162765776699 9.092992973452583
P 13.198735861760127 9.4618649366046 11.000358132341798
P 11.198931514511738 14.655738981300502 8.324843086930226
P 13.356297118152963 13.810031880216224 10.749004392563254
P 13.894807015988265 6.263384846341764 11.92311712454737
P 12.65018854026423 6.097368699053429 10.090388957434305
P 12.012189506253097 8.179271547787906 9.578960991081242
P 11.525866433648982 14.505668296521037 11.793930614157816
P 12.799246935119521 7.168801354615265 13.650884204736137
P 10.667102875429597 11.809596807660634 5.785709879193794
P 12.426253894236508 9.275689095704346 13.073453388948682
P 10.233525834424972 12.984283481073001 10.731046930146439
P 10.139930903132893 12.2273610288379 14.653061320973732
P 10.211260050752857 11.73611957387964 7.813375343573038
P 9.977678397597797 8.264403029923672 10.462144413126905
P 10.00380989383396 10.86988673540689 11.463026032913579
P 9.025730552772815 10.750053709463357 13.467657735899001
P 8.689011907227215 12.802808539056834 16.183536177067086
P 9.186199478566762 14.196524689419643 14.481505763773653
P 9.067822344883433 9.960096931622317 8.298686401633557
P 8.69605634434465 12.981516988870416 9.196429322979728
P 10.810348802126352 5.170141954157879 10.91514061847674
P 9.738908170934925 6.726366316312737 12.088169372069856
P 9.120353223307132 6.2509710018503055 9.986132598316205
P 8.208359913625157 10.947152390927979 10.040984375964777
P 7.04139458616704 11.653480660226878 13.208012113110629
P 6.611753357990711 12.399713709251108 15.21505386578809
P 7.138324793625745 13.814530690867745 13.534932696522722
