34
Energy = -176.42361949 eV
P 10.697411829159238 10.55607992709919 15.907309467676079
P 13.278272067219163 11.010947343346183 12.728483568278268
P 9.226040195028942 11.043708241394162 6.3106747498946625
P 11.977623487443292 11.588197923156724 7.759467972733999
P 12.669874464473304 10.846940697440912 16.867289729436695
P 11.184367750924427 11.774037426385886 5.652985671221693
P 15.169623580301316 12.185890990030687 12.587521881661893
P 14.196167185038966 7.603035144576877 13.072380740060789
P 8.815134721052804 14.472347681571446 6.417364565027044
P 16.589297635327362 10.637263299775547 13.281315790206259
P 7.289847402666504 10.99138773447596 8.599888037550338
P 11.004977491361238 12.194421150858386 17.453229144102703
P 13.976503781820307 12.482336528039188 16.123118069974232
P 10.65175657270091 13.97775234653639 5.323511047999262
P 11.191309593404172 14.093087429489762 16.33268636202605
P 8.859312412544275 9.772437582031255 9.53335995524706
P 6.455362124887068 12.264449368735356 10.24800676929356
P 12.920955866728216 9.21005031899551 14.041547052393323
P 10.834446895773093 14.88416869518966 7.324527436932957
P 12.733259678665396 9.907301015081414 10.874532211349951
P 10.779428989116889 13.090580695265954 8.777125680311295
P 9.852793780924406 11.276243574309552 10.899190089622316
P 14.294619941909295 8.297222789391695 10.942537049673211
P 8.254471322436155 12.76613120710746 11.421900007487125
P 9.65542952789745 10.114718824270906 12.846199819614693
P 11.904825840103825 12.710599959663464 13.135234645413691
P 11.451344239192458 8.779613703554572 12.38391308306079
P 8.725261128775376 12.665177960842923 7.931442941908783
P 15.734713328524242 12.10836588265953 14.739655182460831
P 12.798094077066946 13.882571775149081 14.939541200358812
P 16.00462756847296 8.643272817614553 12.343097781955038
P 10.1826444596485 11.83801984340481 14.154521278315297
P 10.380975384685499 9.86354190836642 7.785935463484113
P 7.778339392099128 13.99707815302605 9.63478459163444
