34
Energy = -173.0001069 eV
P 10.945328415039276 9.314406965239497 14.89406938228374
P 17.588812406261265 12.911416597989831 15.055161672819281
P 17.66121709739723 10.214372431774871 12.625669136783367
P 8.964291653019224 10.097554646868879 9.10160813241528
P 13.371280439719337 15.421234094104046 9.258908240257632
P 12.543894030634963 13.863192144289652 14.11041071403826
P 11.91178775459632 16.400991403411354 7.895812006823663
P 11.833093231806577 10.331456644026664 13.065836843772932
P 18.888476014454152 11.901477177194488 11.8608897233456
P 11.170878337708904 12.25334014347383 14.11373278194033
P 11.039373508189435 9.84192916358253 9.354459600943919
P 12.057782893194348 14.189437124917143 7.953264665369175
P 10.480428336117525 16.049208712717828 14.507373096269987
P 12.455150823343656 15.657384155323555 11.246601162979735
P 9.850759192831376 9.41524990612708 12.966200034715575
P 10.191306734942213 15.197439407087472 8.640449747316751
P 15.925344425167815 13.704709228169026 13.754115066784355
P 15.504160014358357 13.319232400925733 15.861201268958563
P 9.338612267892243 12.974160303168876 13.093716535856588
P 8.276792633603549 11.039041076856622 12.866299946021297
P 10.534095757624284 7.256292285520118 7.312599638697905
P 10.266265926119933 15.352441952103286 10.836157557195929
P 11.599538555547172 7.498267002046381 9.255647740424138
P 17.036668310361904 10.769413364064356 14.73205160046828
P 7.287194557752743 11.136739055873992 14.896753289916543
P 9.262905088449711 8.00541252038044 9.14026787193597
P 10.789361131848343 17.28078756941051 15.946084084119203
P 10.719527479776474 11.268906421611904 16.04135973173667
P 16.93876278609388 11.872601664562211 11.310409273376903
P 8.533284363337218 11.429275880680457 16.486452226043138
P 10.46234964236717 13.13296247591301 11.167243066063731
P 12.649438967435382 13.494705449616148 11.920414705862836
P 12.038598355990082 8.79683722880622 7.4948944841467044
P 15.008184721947154 11.733069257092733 14.358830825246605
