34
Energy = -173.56783605 eV
P 15.49080616077472 12.809461815066314 15.942665654043083
P 8.430676615626012 14.963595302646686 14.102292497021649
P 6.332077770773353 15.92915147512441 8.965974842527858
P 15.471507579670693 10.831531512040995 9.460878601670707
P 15.767381493616545 6.985055475141227 11.047454451069829
P 12.884209736118608 8.473628737148665 15.402043716677905
P 12.746909482116514 14.88604151498849 8.066138824124446
P 16.362288863569926 13.941817952963051 14.21573934227546
P 8.541036255405372 9.176063600207078 14.844138525857637
P 11.816548546241322 9.931762764464942 13.547821340871264
P 8.517901404608061 11.150219554314113 13.67757640667467
P 11.714533078753124 11.389340405847415 15.216387675133356
P 10.248734678950532 8.359838385401394 13.98464566666631
P 8.396518702079728 13.613118297284432 12.442046185812817
P 9.48722226719448 11.772062974256773 15.562175841057535
P 6.921683291981621 13.89347768739171 8.383967310348774
P 17.290055116576724 10.261472564095802 8.35429095852282
P 11.401508583284738 14.965750302509106 9.849392754654788
P 6.297718997719541 15.333552192174237 6.837997879178217
P 16.196357016384592 6.947429248014073 9.195114667083056
P 17.400614922278262 10.713931567312708 10.502421544284989
P 8.218207391888134 15.600221449720838 7.881764518437223
P 15.061419545560218 12.912981261884934 12.686902536569537
P 10.43552035800858 12.851141994336466 12.33442511368476
P 17.128643372143827 11.907163880044413 14.78662816170893
P 11.544508970015887 13.379826546146143 14.19967067646101
P 15.002049897504076 11.343877645485898 14.316402611816505
P 17.02297830742819 12.338083425100809 9.066137719122707
P 13.247796727080948 14.192846808314286 12.728781861859884
P 11.006364656564418 13.851212506345322 7.954641478443106
P 11.39658098617795 7.14424296194018 15.541080226401549
P 9.716992423862056 14.056544416793864 15.52737173786073
P 12.25601448513357 13.23601187459991 11.003431046638338
P 10.085020862295194 10.695930448281686 12.2099861728259
