34
Energy = -172.37607566 eV
P 12.20366888865238 11.986888921909399 10.01475370565125
P 13.91822138285022 10.695334850493051 6.936318083249415
P 11.734377276699005 12.969992238629871 6.323705680669328
P 11.51672569846522 8.793628418920413 10.790265973130545
P 10.889488694676155 16.069624852290914 13.227909065654499
P 13.41936143628789 10.446799788323444 13.278254328106375
P 10.031659051320473 9.740439258083004 14.500690674767984
P 12.89758803155171 12.15031039143253 15.871670000150397
P 6.801496998856298 10.330255870141979 12.260226658342946
P 14.272879590015622 12.747314988495967 9.791677591087602
P 10.743268251836275 12.062350323745715 14.806029325479962
P 13.713521773530726 9.368330108090417 11.339571455638403
P 9.443165889411546 15.528620256911529 11.635221856710785
P 13.989728335596311 12.826534990498404 6.3343232110700205
P 15.462230840041546 9.370232630548267 10.128113470397269
P 7.085987851665065 8.963354215420418 10.745448639505058
P 9.063792951995783 8.27486175679284 10.17476279160368
P 8.744357166787909 12.730073431059363 13.664554724230394
P 11.731979379754147 6.559185652023356 10.667179053925912
P 8.077256522440754 10.606984804594816 14.006316167754807
P 11.613614336555251 10.779495974466087 6.902257490270341
P 11.490382771198826 7.538353898305991 12.626365132102274
P 10.814576432551133 14.356653496271141 14.69369989616734
P 11.226396683656926 10.921357363029513 12.993125580714947
P 11.610198492337549 13.24613960512983 11.718708392378428
P 9.387599019832756 13.252191427189691 11.552683853184334
P 9.563311897072508 6.600728542300552 11.369143875016483
P 12.947353408153983 14.149677209498485 15.720912844586628
P 13.719812273646827 8.228805816955113 13.182326651978384
P 14.206774210150854 14.120917667690469 8.102535156537048
P 11.662569768382735 15.483952721575006 11.241319695539614
P 15.160738506065304 11.004360349933103 8.746110762239315
P 8.602307050908475 14.376868151508875 15.002446369122335
P 10.880163988624393 12.345934879311855 8.277926694608079
