34
Energy = -177.05604882 eV
P 11.512293571896778 7.292832071726132 7.344712576748558
P 10.42494595082652 7.366559757009987 5.361037285179033
P 9.466619066658636 7.428237631468383 11.044008600264103
P 9.421083871029222 7.925016125887913 7.2176875347614295
P 13.991123437536716 6.912630366740999 11.642298051234663
P 7.894701043729084 6.8197403884497305 12.508726365976464
P 12.730447059381355 9.137229731474857 6.749878307076679
P 10.831739042942344 7.662645711355219 12.854389316741996
P 9.10417297750257 7.172889296963941 14.150817111296739
P 11.65660207717105 9.211965082513837 4.758484240340071
P 8.62647141943027 9.422766344532544 10.598887312430708
P 14.706460750524023 7.876656574642607 13.588056396589373
P 10.308727063475878 10.192859636954008 9.300405886264267
P 9.341216227302267 10.128480597258326 7.26452184110012
P 13.120323663114368 8.535623634468967 10.462214952638776
P 11.106608225254037 9.802352690224726 13.19748263252577
P 11.251472461676657 10.693188174850711 6.3090287493041615
P 14.268669700286829 10.016828606004431 13.365433638126794
P 16.05393012036138 9.241871524667078 12.390968060264271
P 10.43761062946325 12.324065210523484 9.92628037054383
P 12.786644789727893 10.294945482869021 11.76696365677185
P 15.293185033351678 8.299489343677132 10.418667113302629
P 7.1576080633439965 12.706795266068795 10.644518674896169
P 7.440444502978337 14.11736851677361 8.997294311205941
P 9.079896516073987 10.421848623899802 12.519112880771903
P 9.074964235559047 12.559776851892344 11.813953133503482
P 9.460532852589484 13.473036879019762 8.269628087944481
P 6.078389540614018 13.880754860458955 12.182581231858697
P 7.56214590332223 13.2162505182308 13.720416095127428
P 9.16759672801377 15.48258257262446 9.246220710251725
P 7.436371988658394 15.309116923561428 13.250057645067015
P 10.794016933929358 14.032771190299806 12.497338821796745
P 10.651109141742834 15.599644730725238 10.949259229846056
P 9.696023815535414 15.854499451730472 12.95469561197149
