35
Energy = -181.64630063 eV
P 9.185626367564684 7.488751314502176 7.724850302009617
P 9.172015589899255 9.311319371828434 6.476962008070697
P 13.846274553203303 9.58904032324015 12.642728030481061
P 10.010104114102152 8.784597846746168 12.595532909416576
P 12.516589231566668 10.547652852518105 11.094592361038629
P 12.844369296264649 13.083815815440495 6.795178458023193
P 7.9382110688659155 7.826890534113507 9.52962005405705
P 11.567511340395603 12.307787827643144 13.621961276011605
P 10.78276022802825 13.883639185772628 7.5993163508879915
P 6.558784015628643 13.121538462010733 9.16318799788201
P 9.324658938591599 12.214174977389357 13.662820924876561
P 12.482771210209545 9.485658773415762 7.644976341716612
P 10.636250489546414 5.730425114133743 11.117362716316858
P 6.881553695586346 12.85281909428109 11.378560717711007
P 12.219503140474938 7.167935730482342 10.78524179934821
P 13.843368913594645 11.89933944746477 15.508809545889703
P 6.352036291044866 8.950575190592755 8.449705967013275
P 13.098407076657884 12.683074907874813 8.992035469674441
P 11.248538332240681 7.729391630974938 14.076324467584302
P 13.078688111496083 7.484439684589598 12.826745332592433
P 8.819827350999352 11.652538096354226 11.568200852215266
P 12.189005260427546 13.17479942012434 15.531012516726403
P 12.343489285581049 11.046866657191057 6.01318281715498
P 13.718943920005064 10.543396337788213 9.165445454994533
P 8.426881206166511 10.213383356199142 13.24110392830808
P 9.712629632280855 6.5753623481276335 12.866918534951296
P 10.635991563897978 10.80717135320041 7.3703146417847964
P 12.655129276751447 10.49236375064441 14.335887389682052
P 5.536232707124396 11.559542519979042 10.274452162600173
P 8.240660831599312 11.877879049763088 8.26654290348179
P 10.928544781191453 12.309648960775608 9.161508584480409
P 7.255584394316354 10.331641262342615 6.958226669692815
P 11.018662092152294 9.008445097400518 10.616267638856101
P 7.025112753285174 6.940935194016482 7.715159813341736
P 9.164595486286045 12.840718044966685 6.519592024026074
