35
Energy = -177.61049363 eV
P 14.607775008490325 16.345992420610383 13.173146579815898
P 10.537626599540154 13.932694873356386 10.46081951923141
P 14.804980274841888 7.930939519236343 14.028126752828513
P 13.78127788749259 13.418091124261322 14.366919550540127
P 12.268007430335055 8.586554504906202 10.10594616372944
P 12.823532684540027 8.916463950248238 14.296196279000217
P 14.218763198908396 8.725613962866014 11.17355437175713
P 14.00361843511692 6.7442872477967875 12.210035173919984
P 15.59597256617507 9.465817278114105 9.763403880333033
P 12.210007382935052 9.900791232460797 8.358417082841983
P 14.283959025808427 9.948195440026431 13.035203861850093
P 16.216891334722906 12.28490137213758 8.692586251848862
P 9.603779665702147 12.082720063241531 12.963926677371886
P 8.637051170466453 15.226032195914188 10.454522448680121
P 11.467891092952629 16.501909418906916 12.193331476619573
P 10.188230810886886 16.821320702999905 10.417455612599143
P 12.614062776601129 11.797534339491001 11.25872783156892
P 11.98793713702977 7.226659994317509 12.993776995629979
P 10.405062699162917 11.681961881973205 10.96646038092878
P 7.674966386632154 13.138402684901129 12.923221404042616
P 13.439145347470264 15.555314533324443 11.47573242091324
P 14.321161179672938 9.250373135465187 7.961361661930656
P 6.182065444712339 11.584856332359308 10.728721282839064
P 9.539160037943152 10.467446295620697 14.318274851424267
P 10.701511482571085 7.921559671910146 11.37566992439829
P 12.797430651788005 13.624132643637878 12.394916679080977
P 8.095164723417767 11.25376019479148 15.677555322853593
P 8.27158222587114 15.217186842424656 12.634626430674654
P 10.650567485526318 14.443787206461371 12.62489316953745
P 16.365959082568953 13.887010923985263 9.727353730917415
P 15.636317591573896 14.63694108568702 14.168619632080711
P 7.452700262436465 10.403669519575248 9.923838467912296
P 13.822250125744219 15.505807892731186 15.107817855927582
P 7.064270347379576 12.931542764747633 14.990944726858707
P 12.787344225199389 7.697750531729138 8.111919329728815
