35
Energy = -180.2652964 eV
P 13.490838741701571 11.502537505587028 12.938009141245553
P 12.946977302190252 11.94565908120571 10.80319104453731
P 13.697618938755094 13.843358734525488 9.858485299528462
P 11.727738018464175 12.784087793170135 12.454407037196905
P 12.077212079970662 9.172843422269505 10.739819402545372
P 13.778298665964938 8.595070905368413 9.470199628030699
P 12.77242301249442 9.317713101619127 12.844333866257927
P 10.64147881348428 9.511393299547288 13.585310321857241
P 15.108084576420493 10.929053725917624 8.363032859755288
P 12.381031696717628 7.011204451936214 10.256726485680577
P 10.167130660704665 11.19723114272445 12.179917280937746
P 12.53347023925788 13.360657711768217 7.969442353801584
P 14.722467008549614 13.060430099799037 8.00326560616126
P 13.289818164239337 9.952330928825974 7.69855306690594
P 11.67237456638238 11.322987800819268 8.462168201260178
P 9.470150144835108 8.639233842999097 11.804521942996876
P 10.443462188187368 6.442767555695017 9.378299813395754
P 8.179965932091294 11.915692120354315 12.857499347241808
P 8.448851466891501 14.14323340967993 12.21974794811387
P 10.276563863139494 11.421385383883122 6.6719908846744955
P 9.581883829043631 6.376124323129296 11.426167360966755
P 7.621880968903415 9.184057180845663 12.935202381617074
P 9.743598572657877 7.660747338672977 7.580534426479312
P 8.722582636298919 11.096820736915898 9.523962892769056
P 8.977279286075419 9.575415194354028 6.709878893373948
P 7.284916060017824 8.332891469203942 9.897523497641544
P 7.2077426271374145 14.035990961217282 10.618279269450312
P 7.4135989834675335 6.344060477435614 10.845318471487483
P 8.622116466960815 12.514051679212907 7.785115335166147
P 6.121320854911953 9.432101116682851 11.3983352523354
P 7.085081897947294 11.740689352463939 10.902026455851162
P 7.359070459113013 10.642762478924578 7.82323247041075
P 7.811490925073588 6.693886049893359 7.079595821367098
P 7.067910460723142 5.438091310400917 8.769832958335517
P 6.0358786699347124 7.389206662181432 8.278134227927083
