35
Energy = -175.35368501 eV
P 12.712459082372028 18.734317134256848 11.061128205945028
P 7.351404389069701 12.505441492220774 13.73890575192799
P 8.632353828252553 12.506496088719194 15.55148437528076
P 13.436497896213776 13.479138935159186 20.322525095211596
P 8.566882823701233 12.997292409057703 11.96983517074465
P 10.751653333371298 12.653203536215807 14.968910698302476
P 14.089082087424195 17.030472465191497 10.841056737651124
P 13.738589410991546 15.814469879319761 12.674802239194618
P 16.28083582209443 11.455196422479418 13.258324372022889
P 17.446342751519577 12.665661108891786 11.845260125049622
P 12.511882811118008 14.16087485367218 11.929291254351785
P 8.98264556294037 17.49120631718335 10.563377461509232
P 15.586067579155864 12.487237010645213 17.345734087502134
P 11.784631972015283 14.531676830704631 9.836573831888153
P 15.204598554719801 14.453644924832416 9.265677200271737
P 10.832734032652988 17.91359412567357 10.879233233279408
P 14.319305715745351 13.174088000034788 10.912566145461989
P 16.075424629097675 8.217153489403147 16.076663283890834
P 11.654237187202526 13.78829781558855 19.72874445567504
P 16.373501834218487 13.757023651020534 15.698989617667204
P 13.492542680379113 15.832776903061385 9.059833213694768
P 10.90284679354409 14.302903292316907 16.301239437403193
P 8.80444181439333 14.62062279117863 16.118863260474082
P 17.019681526952034 7.623508938197939 14.179867744271913
P 14.764898550109782 13.458685346385137 7.3544633565441435
P 7.814708161651732 11.229333515248442 11.06274121164546
P 15.942395954332348 6.127533926428212 15.387453653744366
P 14.90762146660793 13.064537400763136 14.112523072467788
P 17.22482032740839 11.802719287315341 16.355972917954286
P 15.58053152202488 14.344225289964848 12.452715636932565
P 7.421922661821397 10.437609750763336 12.996860646535874
P 14.827138303501076 7.711824208561566 14.336383744956564
P 12.435858673776336 12.408205720573056 9.607369090082067
P 13.10873966344097 12.236357932520258 7.552279361722
P 15.846863691842598 11.408812302112825 11.07849340440366
