35
Energy = -181.98278209 eV
P 4.9480775741931735 12.074097087865658 9.608637713915373
P 5.9198577133473815 9.26459237266752 11.864643664795032
P 8.035813928426704 12.336169630805033 12.088291205181434
P 9.137779812642481 11.856665989635198 8.611266550912939
P 6.391538532020242 13.166950818528251 10.933257454956212
P 14.72788026377088 12.66153034874411 9.471712247358498
P 14.174743691690793 12.71796730385835 15.380478074358889
P 5.84299160353583 10.537901163235324 8.267134429939583
P 14.659519676740675 7.2947888118371145 8.602606908901773
P 13.707265184076249 14.220596236811181 10.764948069117121
P 12.825429454277481 6.116724465102764 9.293891115506653
P 11.743499486660419 13.132219658223157 10.479427560675258
P 15.675751955994937 6.576236465784272 10.466083181432838
P 11.835022562587158 11.334806906511531 13.585659025604173
P 13.648318560946853 5.967454464149058 11.39705016599614
P 14.973050569455246 8.702480772085503 10.253675874462385
P 11.610114548246091 7.57172960919561 10.385027239865853
P 6.045941868669476 12.820384077466251 13.07039873829651
P 12.435031071151672 10.368123594015644 8.371438874122095
P 11.044954375344576 11.834062771845495 7.374002351551832
P 7.728458924961077 10.143328341374099 12.667240414620416
P 4.6981118039245375 9.93426849564631 10.086997227642591
P 10.809623375584053 8.974495301363723 8.885516775400276
P 13.20780175837215 14.46834549064751 14.322811566674122
P 11.21598733225993 13.348646375442922 14.18880581783306
P 14.09722118134758 11.524532370975114 13.443947522276746
P 9.299615209049362 10.19536868742632 10.050001355737855
P 13.283419737361857 8.19615125315074 11.679282073059568
P 5.700730050708697 10.597123739968232 13.600748365915338
P 14.45481768526558 13.581639156811933 12.7573978593221
P 12.02050818354857 11.944540549787034 15.737215560529135
P 13.80174980520265 13.465551578336711 7.634823033041987
P 13.070642857439903 11.349775211225948 10.24803390132512
P 11.710204423552563 13.724548296349823 8.312867751107992
P 8.015612096941947 9.979142568701294 8.212299225173131
