35
Energy = -182.35024114 eV
P 15.29154719060753 12.967357364351129 15.364007628771569
P 13.991616366258722 8.803863415493002 14.042549700669712
P 15.637765888872428 11.223215806664882 7.380930378080219
P 15.363573680906233 14.58888158150807 13.830921731704002
P 14.058983815346139 12.533233077827129 8.184770110408264
P 11.525381242611699 17.348558872066118 12.39329120018814
P 10.746852057446667 12.006444340331159 17.861121721375277
P 13.529374643405065 10.593821519727442 7.295519287532609
P 14.278691376761827 9.68016776339436 12.105275582510492
P 8.73807569271475 15.796098703319965 11.181869789241581
P 9.401771129585281 13.804570848445927 17.795869482712217
P 12.28890658277203 11.62526364175143 13.839810165204483
P 13.738777407597421 17.154901890778813 12.544573595423289
P 9.980418557906741 12.949472998350448 9.626023895828348
P 10.611014630581339 14.220695633366878 15.949602018813579
P 13.403263924903802 14.94367271009281 12.785574258876194
P 12.452385028906917 16.40159447419369 14.180242429176209
P 10.863678789268752 9.014674511556194 12.268289912762652
P 7.90077940244457 13.223191663870848 8.872385473143792
P 13.893501075714246 11.871196094286175 12.25696756348955
P 10.043697497739897 14.080467338552651 11.555100440719274
P 9.368524973774786 12.363297034335213 16.132275491569573
P 15.979891433889778 8.364706197805964 11.727102226346572
P 11.112656925627771 6.823366322722215 12.45196965275728
P 10.914191178932338 15.946215014645817 10.724778034033754
P 12.90991756085259 6.905869448401076 11.191691725443503
P 12.382162253554453 13.330659686929561 17.044666804204383
P 11.857301411550102 9.44658318223506 14.211208267353808
P 14.245337365513684 12.23530721448096 6.009897614075491
P 15.82071268211879 12.443910876291788 13.284985992860621
P 7.957688884557318 15.435495744084339 9.122171986496857
P 12.577554003355212 9.07744757485709 10.785595204867539
P 9.565527577531055 14.401113866563163 7.994423132410927
P 13.43652141999401 11.86185773365699 15.752934747181628
P 14.617595044709681 7.018464551374759 12.737241452080234
