35
Energy = -179.9989196 eV
P 14.568987435359958 9.613322369643866 14.42942333542407
P 8.465475515478072 10.509161273772765 8.675389408257484
P 12.002190485468445 6.02766317485788 12.22490325961298
P 15.13053889624042 12.766213578142066 15.727028610021389
P 9.726927193619382 15.749112879777156 16.946796425612916
P 12.101980659922996 13.83168295420956 15.197024103345907
P 12.640956791797588 10.495094212493127 14.460560585502126
P 13.325326766900684 9.974112576968022 9.536586479000134
P 9.625668657326678 17.294603871956323 12.120255419771349
P 13.598271399791999 15.183184092577905 9.437121825956092
P 13.039625981127669 11.934754128016314 16.03215781643489
P 9.212803820534704 9.519958712671253 10.486877619439127
P 14.158540170803285 14.607930059337722 14.737673821560083
P 10.07661418560355 11.605671226619542 9.815163917829164
P 11.177631405251548 13.867822590927918 8.701254805731503
P 12.450343107154769 12.840138762140846 11.775491948029135
P 14.326531275870371 8.123550461836299 11.967052775545445
P 16.125497669384085 12.766637364884891 12.759719376921185
P 8.162247168425415 17.60476531232538 13.744705621497806
P 12.858624086426222 7.117353376989803 10.487690839242186
P 8.327965905277004 15.633513933304194 12.768571356422422
P 13.718137355239252 12.066207449316233 10.133729388235357
P 15.8762353177188 12.654681444267217 10.498948927895063
P 11.7941109033522 14.740844192019637 10.64734070410024
P 12.43933729038996 9.100039307234743 11.40551547063728
P 11.720110140338518 14.767260382951804 17.21735663386884
P 11.50426779712129 10.659470218793071 8.368004557420734
P 13.262063158350285 13.311874850050886 8.29325436825167
P 15.346938995829259 14.793221531156078 10.88998221646195
P 13.342429017104907 6.900913139084376 13.558246256730795
P 16.055290872735856 11.217105073957113 14.397032343354896
P 14.274600354969495 13.867534661896231 12.654732145848085
P 9.932576478053132 16.335822269793066 14.084134030822984
P 9.74967340202207 13.771692654344832 17.438397630740244
P 10.041897020318428 8.907502592990303 8.542292655783106
