35
Energy = -176.90284991 eV
P 10.713041384864558 11.23491502465011 9.693032169652016
P 8.823136327649785 9.20364023812215 17.300127567405298
P 10.587018934691969 15.1198432682247 11.889441530657752
P 15.486221010989153 7.313948170880622 14.783020493751394
P 12.204103539449745 11.207431461675686 16.75927470486759
P 17.745611038438554 10.169533478671745 9.78630587447192
P 10.8589321207782 16.421952061118965 8.801673564393788
P 8.56788044852219 16.03153847160121 11.87813783122396
P 11.737598633508961 11.799568194609813 13.247949847973398
P 10.278700599896746 6.99392132242 10.854306364678791
P 8.549105744651083 13.19889074971142 14.035977829987747
P 10.002979094835107 13.08488681139474 12.460975448478251
P 10.78875115603325 7.910758395214342 8.878038605830724
P 11.35921315487817 12.662231867875768 15.251810136042138
P 7.5843896839478155 14.993442255767935 13.380091926077947
P 9.824849266613624 13.168463073432813 8.936208844350654
P 7.979498474234896 9.435860801743669 11.612329706867033
P 10.43507323624787 10.22505615950136 17.07773274421622
P 15.403022464912707 14.037535526209423 8.605527050719868
P 16.794236202976624 15.250328429031633 9.804719317264096
P 13.049706138007602 13.309094322333682 14.101368485857364
P 15.605264286644605 13.643503261049228 10.75851522534582
P 9.589577810161915 8.41354171541319 12.371728631934294
P 13.571984998573182 8.218757608966216 14.16466813689905
P 17.284082537920423 8.330320337798815 9.628168107015279
P 15.244212321519147 9.505598156678385 14.786144009568764
P 7.719362548826967 8.900594270850668 9.476597081363963
P 9.592118145930149 9.7303716843634 8.484909779274794
P 11.56774813356622 15.898140714695849 6.759676600412798
P 14.18114169432217 8.283756194687768 16.273767097601226
P 8.768895916033532 6.903136558358009 9.25943062581195
P 14.61639230962641 15.483630251272082 10.068250534283512
P 11.36394823493191 14.506907767815726 9.90883013551553
P 12.846313072822666 16.960343117458166 7.923772748495008
P 8.961958955670605 12.13462789907971 10.683560864389195
