35
Energy = -181.99807737 eV
P 13.375329030320861 14.349666126362935 6.860255711065214
P 11.768701156904955 13.02604329546898 6.340786932134018
P 13.546962309133223 13.855761474838884 8.947385902800372
P 10.185593359110499 13.446434904280471 7.891406675930433
P 11.428909786618465 14.126443560811493 9.694123230300356
P 13.14122366056661 11.256383055726113 10.870861672066296
P 11.0801478428361 12.20426607235875 10.749344358802714
P 10.677821611240061 12.817695650385298 12.94007710857638
P 13.755674286111134 11.646550015066149 8.786845519014413
P 9.216557339482675 14.444121775747554 12.838808470348605
P 10.43822134148305 11.318223382892032 8.517730602733801
P 7.749586006181576 14.10342735168638 11.364253938737686
P 12.224264473559497 10.972107936732057 7.234158629919806
P 12.464741137223244 9.1223579754025 10.652463175201044
P 12.73769184220423 8.455685599960681 12.735522224134588
P 9.49583371887921 10.888372630761232 13.07469009957791
P 8.259824553894514 12.179258502225522 10.71527166519696
P 14.216957180697573 8.264563669768632 9.636083356415433
P 7.011451099785794 11.713763246758209 8.918089801793542
P 8.524522493948703 10.497830077216717 7.728464657006312
P 14.329850982901332 6.242597851656338 10.459212653466468
P 13.339594113925918 6.37262867741371 12.563967375336693
P 10.145774335755132 9.817227111252338 14.903691905914316
P 9.127134215787105 9.572694499329971 11.341153870515127
P 7.974140016737678 10.464198112037568 14.651042640792806
P 14.832422848154415 7.9686787643917505 13.13968656332655
P 6.89768057986653 9.736244955676273 11.62705698252852
P 15.810835310029661 7.83220727618295 11.077267032606315
P 5.797945785224138 10.03235890262656 9.753798987646555
P 8.351453083279063 8.315165648380635 7.974475944421143
P 8.549282132548324 8.332008295063853 14.555157233593533
P 9.021273770086154 7.624011297559208 12.474165228018482
P 6.165208616509714 8.234783495268156 8.353818898168196
P 6.9189415985624505 7.485797399007542 11.67602359905668
P 7.505326493141936 6.965438673262752 9.59416278311594
