35
Energy = -177.45453953 eV
P 11.928364079927565 13.63285397589438 11.773711576044434
P 10.161277040052582 9.186807195756035 13.742338027021693
P 8.11300533179675 9.767812393787516 13.337760328738822
P 7.127589225561291 11.778028301030602 8.760320710087594
P 13.560637042441787 12.776202766441523 6.642964813819511
P 10.652219116695719 10.768842499545691 7.087574924661966
P 9.98410243867687 13.242240006728188 16.63741147326329
P 14.262210416751326 10.777338730518643 7.53383416936818
P 7.72020689224123 12.598767192969818 14.335114872735918
P 15.478971810984186 12.811836331918965 9.87989303580476
P 13.358756927766576 9.805802435938988 11.046071011857224
P 11.059033087848595 10.29012620848394 15.547405864728036
P 12.438395381438882 13.407092056566519 8.466211388242934
P 14.291717744867064 11.733409578605437 12.636940136582664
P 14.962800591803774 13.781821211419178 13.256793611191414
P 15.111742413768027 14.586172759135046 11.188989806300034
P 8.027746565430453 12.200830362732685 16.498743998234676
P 6.446656786471168 10.014611954044145 8.574463651549541
P 9.918950886076425 14.421931153936987 12.27996298501565
P 10.642981800377662 12.134232329493482 8.607496500069159
P 12.577690281970098 10.921967617272145 6.041631874691708
P 14.84824296219809 10.356308243935294 14.289403428579678
P 8.999756353698174 7.054386244658166 9.460501040682237
P 13.025215603774049 15.4545015516921 11.18522837552802
P 13.569412656614247 11.628874897209139 9.49611442527928
P 13.081721297641423 9.376856603234677 15.219045295590314
P 15.387028358103269 9.606829584395975 10.409945714459488
P 8.218850501012373 14.29512808438318 15.755379376929113
P 9.726889545945895 10.665950569719428 12.158296171340178
P 13.727538098618004 8.778591313024462 13.207222392654245
P 16.19279987507088 11.41630534213196 11.478823610504488
P 11.244228172996852 12.411747919379836 15.005071154251638
P 8.473153947320437 8.056165802866753 7.9250256963280075
P 12.931817175785877 14.809565950255653 13.370235581757624
P 9.701095375707464 12.61635236555078 13.390996617464985
