35
Energy = -181.75854314 eV
P 15.035911745346061 8.966260605482022 9.09830945950147
P 14.791465935304181 8.585134341589196 6.884448096008203
P 14.577038525367081 11.57373645609497 13.779169888568001
P 15.204316920204384 11.713272100136333 11.652480629616885
P 13.841926168352597 10.30364682949799 7.861458996586873
P 13.639426419465142 7.15372910032162 9.54528799712527
P 13.419535303727764 6.808119553321601 7.322322590501984
P 14.021487834886454 13.366683744609082 12.539353288448106
P 13.026388935897728 9.99762636088869 13.575164728451373
P 11.402492765365503 10.429298193909919 15.10170758406609
P 13.113618244462339 12.216564907807333 10.856475787035928
P 11.76530396084463 9.829664917381184 8.415779096706801
P 11.778511801253849 7.633346857197746 8.520273038718214
P 11.695476337645982 11.181216301829924 12.214205848128934
P 10.849744025114967 10.038689522070745 6.386451319797836
P 10.959935964233742 12.333936722318855 14.035772969029585
P 10.096693840268022 8.972138861859591 13.976564584739599
P 9.876709996017306 15.542919958089552 10.107059128501193
P 9.06727781426391 11.384416093841978 6.563861779252934
P 8.840429778399516 9.175214939517303 6.808731251915486
P 10.38143193194681 15.993592315775604 12.060753992051325
P 10.191084813515813 13.866029877339571 11.479131392239593
P 8.153419315858718 10.093564248903027 13.853820047762742
P 10.560434850976582 9.281166323689918 11.760049429846523
P 9.070218516904506 11.819333388757945 8.77993352779565
P 8.501422925978412 9.491715567495081 9.044918368563625
P 8.77469687144126 12.248340566370059 14.214407674538448
P 8.384173962528632 9.886093531705134 11.565923732622135
P 7.405241856592117 7.269423269492354 9.552981042993101
P 8.173878337691333 13.490233909392073 12.388774758844287
P 6.940180256815569 12.243048665220261 9.239975071634765
P 6.4101310965149585 10.051966293443732 8.776346173131278
P 7.199499870343576 11.809119247704304 11.372652209747251
P 7.252614621375854 7.886397099155333 11.623309456514676
P 5.642927759472566 8.417948399987122 10.18929569848013
