36
Energy = -182.0395384 eV
P 14.673559242883831 16.258415467736206 15.723069129635283
P 9.461847757790489 11.335278314050234 11.369030142221225
P 8.718108408485183 9.226045905538857 10.601871163658071
P 12.8891933491644 17.714870024270112 15.830696597211084
P 9.812698175698955 14.566824004734968 8.334851964474785
P 14.467673195164906 11.927085618623172 8.923442298099523
P 15.619393344817142 9.445992879036927 11.581787473304177
P 10.69132646004982 15.087224804416348 6.731881843911003
P 14.213343062527931 7.786818136902568 14.711076079872523
P 13.515236063359458 7.086663444902968 12.80446778035857
P 15.562636945234141 7.266420190475119 11.431043951942618
P 9.621117134835094 12.746022929423921 16.25023760620853
P 12.28442546105742 10.73419240776664 13.733741229884984
P 10.337538567552361 9.931619975493579 12.858804572574135
P 10.553541325207156 8.231873707072461 11.458200573710098
P 17.053240079359316 16.955019779155116 11.573649678746067
P 13.032571992326668 12.322262120112716 12.389055837097116
P 14.22188341092795 17.59495304595852 14.007139307649512
P 7.760441482281091 11.582031637661514 16.050102058858446
P 14.42304739877549 9.96802498661906 9.77715087392731
P 10.615302251686604 9.044766855169886 9.413144285831798
P 12.189524533823683 15.198417469359029 11.622503482778635
P 9.600525847125008 10.600630953524703 16.74782452738899
P 13.719190575068943 8.263733485753146 8.591376709638459
P 14.142157895596775 14.34938076969195 14.683339269544128
P 12.992199292005305 15.74692447214616 13.607354027168288
P 8.560816659552426 12.040108626744535 18.04973874999548
P 10.748984636842241 11.266756039392407 9.551634896604455
P 12.866558614935482 11.498265732479974 10.265828164393158
P 11.18534589656596 13.43110274506857 12.544634008587588
P 10.524269585320548 17.86279121093264 13.234706117121265
P 11.253092739786032 16.545895370152746 14.830115273211415
P 14.587125247510086 6.6792879301345005 9.553354016183322
P 18.282091520014216 18.36893489637304 11.23752660236339
P 10.710636170052492 16.847844611471288 11.444620503334795
P 13.824091719282714 9.202255494321355 13.19573524517693
