36
Energy = -182.47891573 eV
P 8.828345082695968 9.501150854980953 14.253301983417249
P 12.262779887191188 9.887611297850263 8.267914206786655
P 13.324050025030731 8.771052962285705 12.958573197906308
P 13.9123608464313 10.464550017232815 14.259307510371695
P 7.23908752214968 13.06521079787096 9.962386924800654
P 15.648531409594005 16.883407586046182 15.138082043989817
P 16.64154311975111 10.094468639011021 10.946349508177336
P 9.506641506745952 11.715283684847115 9.450205321349543
P 15.653775522150404 16.026375270877804 13.440589608567542
P 7.933333964984742 14.975598116470968 9.03668818322658
P 8.637752749753107 13.037889622092976 14.208980029759033
P 10.552495677652315 9.561753706920953 15.68959392226196
P 9.8515297869965 12.436160616970463 7.41998640183419
P 10.22255182653803 14.306112320705866 13.329254933683394
P 16.433143119461207 8.535037730296937 12.254883475921106
P 7.329349090212578 14.759254427341421 11.138160088697447
P 10.800477911701133 12.468309459992762 14.406192847626912
P 10.425418521049624 7.778243100300703 16.97472275655127
P 11.867739244947321 6.71982051434195 15.90915491147546
P 15.247726542922662 8.709065014758437 14.119735295307724
P 10.367556676122682 9.055653443632396 7.3185569811056785
P 15.797845054460328 12.095840629421398 11.388814423762254
P 11.241480759785517 10.948952428551427 6.635935834690545
P 12.812806248615882 15.457054743095975 11.526406685652594
P 9.464735455093848 11.31440481643327 13.040225916708362
P 12.98796428998119 13.743967759091445 10.242585188233575
P 11.060134703850338 10.305940051970024 10.150488766471879
P 13.627763029105349 11.728759596288445 11.011562289742029
P 9.139334602621025 9.571830929291034 9.20905165708307
P 10.153749442082342 15.356872511974231 9.286935496980679
P 9.890487497926216 8.027028705291752 12.98592541301097
P 11.044583780458089 14.28769792514723 11.12220048956063
P 11.59767728344265 8.190403191066256 14.288883758756382
P 13.2124563170087 13.820247209141797 8.136484873879867
P 14.320995017168466 12.290118799289719 13.034732751266313
P 11.13830069178124 14.285375726582233 7.633650528848882
