36
Energy = -187.39874951 eV
P 6.386949938086141 11.27902915056555 12.667221047532276
P 12.801168263535683 13.263253383911687 8.517085124788677
P 14.358713879483995 12.460740750624645 9.90713635133617
P 4.528470797449021 10.071478246373262 12.954284792878154
P 8.095906838029997 7.762257771726092 9.246610136844353
P 13.103480815006378 10.834707462100583 12.653928522403485
P 11.416386923737353 16.161685202368943 10.229854988543702
P 15.4716444484627 7.967549203862978 6.337480728437261
P 7.8450522433785 9.946122700112634 11.701047799834598
P 14.831184721987743 8.167322741055502 8.437620559814226
P 10.679334758990402 14.344606914045382 11.430422499049186
P 7.463952280629927 7.964680487276057 12.632776969184933
P 10.282598765578422 10.647791321073203 5.09810742145081
P 9.976625790697208 11.625695297219723 15.53585366834297
P 10.963575821879553 7.786856491030034 12.306823150515498
P 12.704726109664879 14.408217781633553 12.42631641675171
P 5.9280715194819695 10.362443233769115 14.646674657312193
P 5.625716741035082 8.329668568404445 13.800012871431054
P 6.691741228189473 9.360804954297496 9.814477040973172
P 11.000813679248632 11.015997248021208 11.839978845594496
P 9.761600379101097 8.73653058739206 6.062830480906088
P 13.552807701244731 15.820929427396486 10.94186459468414
P 10.061093606869212 10.54360118010164 7.283984658366568
P 11.21052628135725 9.8029084382295 15.190356593666822
P 12.933300669771993 11.215762324797149 14.81472813947389
P 14.433827701282164 14.591042340397967 9.23729127981445
P 14.029487474162224 9.531327932866796 6.910765344498386
P 11.547013562206706 12.925366848590523 15.123656212311948
P 11.645515627921739 9.152419045506486 10.60691551725757
P 8.284922858344132 10.369901713602339 5.993248951705075
P 10.070041248256967 9.616284889580927 13.298551852002637
P 10.10674038332757 7.6187711582446545 10.290992788364862
P 10.925530702758275 14.248300923089195 9.255312246511789
P 13.422116829105153 7.414375742212076 6.924044115367369
P 14.103485646750421 12.743959306197294 12.084236128999446
P 6.4493064523941905 7.317613784943568 10.68018590792749
