36
Energy = -186.98953996 eV
P 13.29921701343298 12.36887011031577 15.650222733551512
P 14.235933243424 10.074523663185976 11.611107828156083
P 13.582251449122607 10.41612920998871 14.439190596781847
P 14.06891513901551 8.04021256621033 12.751631673557371
P 13.26682226586232 13.25633080785459 13.62441000275971
P 12.622043974713694 11.202715591359144 12.612803873937908
P 12.554864576535659 8.381516337476633 14.39761801076273
P 13.19629404695984 8.9291133281127 9.94335113259663
P 11.427830533265679 13.24454888173341 14.841941456122187
P 12.31268256682325 7.4874223377345235 11.42230769495892
P 10.48947806563698 11.164535613642233 14.633704601307134
P 13.801126104169446 12.05707058611016 8.604152926419463
P 12.192804018351174 12.936654023794848 9.936016876572372
P 11.173771872190917 8.913272122919269 12.741930162054164
P 11.247482631611119 9.868345993720865 9.333585130280895
P 12.196185349929634 14.953499868439996 8.847395221085051
P 11.609332208814408 11.746334316771197 8.144180227196484
P 13.552328496643495 13.892308852010819 7.309114040343351
P 10.736403609480043 8.170255798428078 8.003291105567541
P 11.474672678600133 16.06195483619574 10.824121430098803
P 8.472148903049895 9.955154143837511 17.124471161189348
P 8.452509551946939 11.417854086527736 13.791366144968311
P 14.857412286830739 15.721362968181408 7.163198473581719
P 8.784343778855806 11.809335636783514 15.951384568149749
P 8.216141262435935 8.391874295190917 15.83833569621386
P 10.029434206089633 15.400636599724033 9.291805373080836
P 12.956530877613336 16.811039185442443 7.491269798481989
P 10.344973509102058 14.25895041446293 11.133868855051738
P 9.176755978277932 7.889109155601159 12.706456046444021
P 7.839528786430863 9.225336341600041 13.865463351115922
P 13.234345454818603 15.71623288902788 5.684292258341542
P 9.281966173232117 10.577485808141514 10.275799807885399
P 9.005923275036672 7.3009200013423845 9.123827793503661
P 8.433296230224801 10.799038323849175 8.344912380984782
P 8.652909098156986 8.755186129619947 7.4743188077949965
P 8.382276615762475 8.649745832400834 10.769131482906257
