36
Energy = -180.60448913 eV
P 9.845959798852386 12.162696124896305 13.18802910942451
P 12.631628546186295 13.850599846505459 8.44500622299629
P 10.954445513650859 9.342856489402184 15.131565315185743
P 12.708218354316468 10.071410207392129 7.805044424567393
P 11.004348739410213 16.187498923570672 12.864417057149684
P 10.284550566483016 11.78679634968331 8.378381020441076
P 15.340721662662922 9.804527127787226 11.033079557478601
P 14.76471575921606 14.530839658642916 8.639408806506907
P 6.407338742350445 8.211435880968656 8.002125726030073
P 12.022496151316135 12.799587800699733 15.790082357494049
P 11.533768583048156 13.926808342444534 10.396373301018834
P 11.59320132178554 11.234734246320762 14.164908938878135
P 7.131226840532376 12.723545920554157 11.157226642474567
P 15.733482894836698 13.113243439027679 7.23436938404511
P 13.80600639166375 7.476016715599825 12.018721320530648
P 10.796762031755812 10.231700836929353 6.922254531240803
P 9.133019646194311 10.248304463047218 16.066546122654476
P 13.565237115414002 11.684549685025493 16.94839722659894
P 6.97930180501237 9.410501994685141 9.369307466592359
P 12.116037710349909 17.73276660424007 12.786710327568994
P 13.402588613402246 9.63784076719553 12.077678648409078
P 14.847091969290776 10.939022323059088 7.471536663380667
P 13.989319445029254 13.477094337624472 15.66777761246
P 16.252256693578616 13.091896526510865 9.432148155450747
P 9.854255260113094 14.019197556427237 8.952907223648667
P 8.90060911151766 8.984766536327106 14.26647891708766
P 12.284655872952415 11.847048451480116 9.361481984056303
P 10.184155242015867 13.774718505755597 16.23850940765187
P 8.897971016559728 12.35043969233449 15.218844487275973
P 14.973669285285464 7.763733931572867 10.305321607430889
P 13.770880419321019 11.020362998919476 13.768825239634317
P 8.352238293210531 12.399314199601633 9.338367554756081
P 13.873018628597274 9.898892976515095 15.633069005729013
P 14.820039459900288 11.394067396805804 9.58050749151757
P 6.922553536416974 11.215362166115462 12.531567282748428
P 8.952765842164153 10.286357840725083 12.443560724278626
