36
Energy = -182.86916091 eV
P 13.143598298575691 9.19159646193401 13.054986775685656
P 14.887572370176095 9.95166541163029 15.562982214676465
P 10.509060006236023 17.197932499227242 10.62555756791075
P 11.902306517895969 12.886548973263595 8.562449710838179
P 15.277834656767594 9.307855099702227 12.317912711461625
P 13.660760185749579 17.275721057520528 14.202666734143715
P 13.058693181769096 13.97121783231076 12.355154964388326
P 12.926881162557269 7.307691162690582 15.998521647997386
P 8.553979192515095 16.867845045841523 11.593820293791435
P 6.406803134260639 11.962676526584774 11.843421028047356
P 13.228836583677916 16.193317938259796 16.059445277503652
P 8.743386705273368 16.68120092929481 9.408245939066905
P 10.025614350842934 11.726697197577789 11.957097176830075
P 15.63545617361255 11.370550703597269 13.181043469284162
P 16.264762355974373 12.633709621661184 11.407864118506962
P 13.96926867620461 13.444618176296816 8.993223243552993
P 15.773223338087439 8.319798149314003 14.256638841682642
P 17.3656252261763 11.552390646321538 14.509656209669222
P 11.57476687831063 11.582777375731554 10.269224053955082
P 11.72983935238523 8.471623769478361 11.417072432928187
P 15.22114514165337 14.499943571513128 12.170592404530097
P 13.712095682817111 8.894801261192177 17.03958014945227
P 13.793264822233143 15.041779288331005 10.556213290397224
P 14.689071230095802 11.724884184042875 10.163118554643964
P 15.324809108583567 16.468748614363253 15.484246143011097
P 8.097208334089586 9.083158012094957 11.973864390391324
P 13.86936715442448 7.229646579725781 13.953198218236512
P 14.921597830198642 18.622845815464295 15.386588258422726
P 8.155074648960028 10.964265943794747 10.923242376227028
P 6.064185386903917 13.269338149779506 10.284458393563332
P 9.657961618239453 15.173195547825916 10.715193098427884
P 16.60621372738554 10.940410372186374 16.369984626377114
P 5.63832150887552 14.575317733208136 8.949731041950749
P 11.681445835449754 9.548664366269799 9.55826963462924
P 13.178793113424582 11.827481103968097 11.773298532317456
P 10.102649598562682 9.589557966946694 12.47290956444659
