37
Energy = -191.66352367 eV
P 9.310411600368157 10.566996352024278 16.126433977927082
P 11.532571441326413 11.384754953755834 13.455917979205925
P 9.203243845131576 13.907632781215256 10.986524127925831
P 10.494061402211361 8.946230656915466 15.244166246323546
P 7.37504872064555 9.04474498185777 13.955167185771131
P 8.366053557283331 8.530445797997674 15.899918973564425
P 6.99197453004237 14.299600729106652 10.577580340822918
P 11.505882713486123 13.9070537148249 8.35803542369286
P 11.88499488867703 13.19626151476184 12.449134147397826
P 9.35753904408227 10.307335829001833 13.90547272727923
P 9.995815962723917 15.194409062681451 9.366469800325522
P 12.73410180402596 10.20756580693996 12.015983871387018
P 7.377588624016178 8.162218550700764 10.926812421063676
P 11.640779781369822 6.977975442149739 11.693090025595506
P 11.32324206602176 11.849258618425926 9.218579711854096
P 8.25538491292043 7.481708507573169 12.674774874083782
P 6.515742664684721 13.191509441422637 8.69638144955042
P 9.30347998420649 11.88449223123731 10.102735537246836
P 9.487787965189263 14.139761784971814 7.467812787635801
P 10.015523201668966 5.803176763291859 10.6457135396399
P 8.473809024378 12.247350580953345 8.101678724878356
P 6.252133336305464 12.254200304705623 10.649969780579992
P 11.410011485193438 8.966823581198755 10.695646690447516
P 12.878847702667441 12.109817710771045 10.791640131122874
P 13.117438301280192 7.621965061320287 10.142349569128491
P 8.861969686792545 7.337717454598378 9.563117074743833
P 11.149399078642409 5.1366544761972595 8.847743701189671
P 11.885404190841829 8.620586518103124 7.0598501923465
P 9.738904507305993 8.934298995614565 4.9032868888669
P 6.789181123050726 7.0621932348801355 6.54734198198977
P 9.59015331199523 8.659416248322662 7.190639806832138
P 12.539648511288677 6.792738206686634 8.156988901402809
P 9.441800726154815 4.845289196724403 7.378891400839647
P 7.6870640641379655 5.925260988703665 8.221701056101322
P 11.521667324531185 7.555664397992214 5.102430596200029
P 8.097654284544026 7.046705333866694 4.810050487798382
P 9.745221749494307 6.710929030093994 6.162648825519157
