37
Energy = -187.02934221 eV
P 12.377694085278309 16.387492880953385 16.12795480347324
P 5.990044013370682 11.89942326796321 15.797444099577094
P 16.4643838072507 11.090811852234939 12.603550862327797
P 19.483701768869093 9.397659983610396 13.049230308009763
P 17.06378434919024 10.76908970863324 14.590355027497964
P 18.396730473779584 12.952806304661785 17.75908049916354
P 13.70288768146416 18.476995319919656 10.609835013500708
P 15.115228444405613 15.42532618470251 9.942153471612158
P 14.064681881037549 13.882409989118 15.447033164862098
P 12.761655969019872 16.163814398687336 7.4345791526948775
P 13.440898921834682 17.409751379545494 12.449590644318894
P 18.33838757149119 15.130896411788132 18.466534572461843
P 18.821978219312044 9.714366578127885 15.015822278804231
P 19.08374440908165 13.782721793083645 15.797340135065026
P 14.715493098470812 15.155848048501477 7.738148774101813
P 13.156926407186793 16.290541175000744 10.656587610097953
P 15.27999493875107 18.45164245131231 14.744028155821722
P 5.368131891619675 14.027408957998249 15.421315732606665
P 14.647532070830222 17.399796429596122 7.386615585450805
P 16.16615830642821 15.205984893597133 18.2441913742731
P 7.961041802444335 12.010964813002404 14.801978173411166
P 15.674201005807108 17.268968075187708 17.48103540646079
P 12.584103157899666 14.367322103647227 17.057316406174742
P 19.053858926492165 15.739990617461148 16.460633431907574
P 11.979210300846955 14.493436650478168 14.950484128242959
P 12.347189338273191 10.952564057971461 16.581579098042717
P 15.800999015482308 11.134341993517687 16.361114972023845
P 16.923598618214672 18.390891081644284 16.059458009277428
P 14.555109475071534 16.644835684168516 15.695663541644032
P 16.216873364320048 12.972169905054114 17.61097882111534
P 10.937186636046109 11.426828775590607 15.127217990549852
P 15.527949652825109 17.569223401620082 9.441063511622986
P 13.949896264689665 11.626571809322472 15.244957335552579
P 11.56209035861443 16.32343176176815 9.207739529566165
P 9.120592130903239 11.1296718044945 16.27526539214733
P 4.73243038685788 12.65532354805005 14.090493646667154
P 18.096820687632118 10.185091382087423 11.645320627168607
