37
Energy = -192.06340866 eV
P 7.089646626905485 10.532265608785114 13.613401597183715
P 8.060289527849884 8.57579557201525 13.5213606403473
P 5.243832917314875 8.678897176942804 11.513532952577775
P 7.318540833345738 7.910791449675144 11.495421933240083
P 6.880332271428437 5.767000032180534 11.181083563632846
P 5.488067784342205 10.878814308734837 11.066492390313138
P 10.076240693622257 7.029141977567816 10.490076837437549
P 5.380262315562925 5.835818713316256 9.477609513727147
P 8.83885322724621 5.16250293118319 10.28970536817891
P 7.529561311114247 11.458723962625346 11.658163159079479
P 9.936248189657082 9.53764068115007 13.005963750672224
P 8.624484245013274 8.655252525266016 9.871719582069074
P 11.225032652014159 6.356358345557356 8.709161199082114
P 11.995259383637874 9.952203307057518 7.130854061808265
P 9.466977715388538 10.35634273410396 11.051280725840519
P 5.286296242605357 11.288903893982415 8.83979853888207
P 12.59114222752717 8.052665354921459 8.275685916071351
P 8.279614320702516 4.680956113924811 8.157516823478003
P 8.15342899698815 12.963033152317864 7.868220811182071
P 7.310983214141425 10.965100785894663 8.016716248268565
P 9.792461465631158 10.15671885077422 7.1795857083407295
P 9.581424999874878 6.257171114813856 7.189207208359482
P 4.2548783494509355 7.822066439610803 9.7008365139228
P 4.263926264940561 9.474927271985845 8.098933997175221
P 13.236697893654414 7.182278965601994 6.288787562371241
P 10.007714340121419 12.332066635715515 7.147716203357132
P 9.961449268166472 4.796804540829442 5.4709115073184815
P 6.402644600746253 5.764777597868933 7.490686121855045
P 12.771754430167144 9.110281425544091 5.174679974883045
P 8.663995665243524 9.774552267561816 5.137178153301264
P 11.239211378599892 7.573953723165782 5.446044796393824
P 7.3049677948484275 7.76330351249145 7.162124171661262
P 10.970850283007891 6.0175571896526385 3.9089636952181963
P 8.728058942044516 5.9728055173301255 3.9945925823806365
P 7.714737210864922 7.77147940721901 4.933762210133857
P 6.65598016627493 10.6157644873665 5.89095151364827
P 5.4398364085221065 8.74096658383194 6.316956625171939
