37
Energy = -190.83611335 eV
P 10.002155307696286 7.791099537138258 3.419155210059397
P 6.791837561984452 9.834936425787857 3.188511526203337
P 7.694046056191728 11.218564178095425 4.772352246720217
P 6.11888732647452 6.759954852787696 3.56343470837693
P 7.91171476134478 8.056818378737017 3.7633032528915638
P 8.166351810344757 4.389573880191138 4.63259322593855
P 10.49374737038959 10.449160217195196 7.245709005154379
P 2.745597578351554 4.5729819141313035 6.783763474642145
P 5.046743559266722 8.685188336668459 4.16556705149775
P 11.344042195567752 8.530993873030287 6.622164672565099
P 6.03485136495065 3.6823880344806508 4.952818920751614
P 8.334953903065657 9.906236366063053 6.571871517152229
P 9.332269823467163 7.874287890886194 5.485271693279365
P 5.785520439288772 11.376984834930973 5.919521527420212
P 5.826701616347628 9.14160476057162 6.207268173891875
P 9.378842708907166 4.10910331658242 6.513330119812999
P 6.619522522248169 5.766118036507549 5.508181543484088
P 4.080307927824346 6.267979673323695 6.897684217084862
P 7.051204815572754 11.509274824060414 7.759359108248709
P 5.858210682363338 2.831326892453089 6.988052078957777
P 8.036823634926515 2.5991794869362677 7.419633722573134
P 9.146673094287554 5.951884210843012 7.825608520515906
P 4.485905925243066 4.42652439119913 8.012758308674572
P 8.375863920874906 8.742780162869453 9.00098655687701
P 3.7570717726734593 7.560738236690994 8.864553627448888
P 5.530381087640317 10.567884411332965 9.130835100252058
P 5.856774818626707 7.255208961891591 9.499942544343716
P 11.197894020906812 7.047315686682465 8.235608857324321
P 9.994333366084758 10.25074088840471 9.422660775534593
P 4.04540095596144 4.4756936849166085 10.136218674928097
P 7.115373702656146 4.8415619010626205 9.456947037134594
P 9.313120406609851 4.931378855415491 9.822506976395776
P 4.188824428280437 9.414682417388894 7.723556910006696
P 10.267929103049706 8.116220222928549 9.988614123632988
P 8.260298874883595 2.9586944168427682 9.630831416041339
P 6.6951957769543 9.112333305618765 10.437012373100565
P 5.708023432919371 5.58600018958219 11.025208855309943
