38
Energy = -194.52626186 eV
P 7.219148358634774 10.572857948856024 12.166514968265007
P 10.742011568100239 10.665820795789136 12.294495929363533
P 9.014116884177842 9.573109966850303 13.145752749640895
P 12.273989125398378 9.123019833337878 12.704481245880862
P 8.904381715671931 13.43372690229432 10.602543928452736
P 7.859166538941197 8.57940227156795 11.382210263643442
P 7.297915873226967 12.823307586728431 9.202870028092489
P 11.437423864922897 9.109760101545406 10.657513295792201
P 10.655207695249299 7.537237679934015 12.250388947903668
P 7.2546814449906405 7.176977731420087 12.926080358122988
P 8.41258502933026 11.272084154324183 10.36535158190347
P 12.180281469892355 10.875188827491062 9.407951931723524
P 8.868213283256 5.871584225406685 12.539424083408008
P 11.675762728204848 5.908217972227493 11.109011182823266
P 9.342898907349587 13.319944993534213 8.438934761270135
P 4.126376900397806 7.451835219895117 8.880554492591253
P 5.863074507670309 6.554732299067694 9.887405641599484
P 4.675348967330116 9.8050079148773 8.628157504883719
P 9.571708423350785 5.418011204963835 10.388887286137395
P 3.998626039743142 10.320036808403984 6.6482373214818695
P 10.373149899885004 11.314013288009484 8.157815218307634
P 9.258203210522577 7.032015848772083 8.78075769616876
P 6.629818134018869 9.048600479221248 7.734932280020797
P 12.596686194698398 7.335034083731107 9.655255999329466
P 5.874527019072899 9.688718648222794 5.688520782374418
P 6.29227412184752 5.302372005977526 8.068585270086185
P 5.585912835291191 7.167118603290501 7.264551558259349
P 9.504602798294624 9.216123905952418 6.980456421981844
P 13.074039235271442 10.042322041856375 7.562574124344108
P 11.36944815364004 6.711866428187216 7.961696000703106
P 8.402552678802374 5.537357829207705 7.27208492012393
P 11.862826355297468 11.735210846458438 6.545223692911019
P 5.72227682814153 7.446761596511382 5.083651505646326
P 7.785536567461509 6.492048988374167 5.273018265652924
P 11.603773151810516 8.553795413890933 6.678044397861649
P 9.147532068804576 10.098414822069786 5.012062539921131
P 9.555489603820524 7.806616636023587 5.100848591045138
P 11.017436387270417 11.13740131845963 4.62390334758474
