38
Energy = -189.7050608 eV
P 15.973663303559865 11.813749620383943 17.578145918741537
P 12.404766877541526 8.741651011371143 11.59867824073117
P 16.274407816968765 19.696354105333434 19.13197608842112
P 14.459747625673094 14.516290974049916 9.370929078379659
P 14.001426136827485 11.926349817406892 18.074315176547262
P 11.75915696366853 10.5966312673972 13.934145552273334
P 9.58740030396366 13.979361341369362 17.59997965270763
P 13.648905517653299 16.491165509448017 9.33427018754727
P 21.34313060465873 21.194957314382577 13.667222082916501
P 17.614675239871026 19.57260519372994 17.393832254890356
P 11.842968605740335 13.509810956466477 18.022929740823294
P 14.830135475328966 17.998644650437633 18.441804610587408
P 15.433473663325072 17.82463231315299 14.604038974572607
P 16.647741669887868 18.83868187277345 13.057239028217307
P 11.892482346776552 13.309737481824923 15.794647523944347
P 9.709761463379147 13.494215441904593 15.540574618524728
P 15.762252467473596 18.84000105273149 16.586019453987785
P 9.883731235671206 10.413180379535534 16.12274654174776
P 21.68586226946266 19.476546175023113 14.879771490963138
P 12.640980609515996 10.721243695972895 10.96371527368176
P 11.837739245606821 8.50548970921255 13.6063020100989
P 12.004372330911197 11.094866147068656 16.06777616058337
P 14.129838789517873 17.513816449133934 11.08486067894045
P 13.104418165783223 10.818527033109241 8.901552574703201
P 16.356834651752163 16.799550448360367 19.53761841815332
P 12.49418170919658 12.06816726922208 12.60248892882876
P 17.90052562082559 18.267095236124383 19.60361112581274
P 17.851585352287554 11.680722997278531 17.315495728983223
P 13.130473372172116 8.756247170761808 8.466652016688977
P 9.270924048175768 10.836785408393807 18.059716385360854
P 16.9138349835123 16.635774558753923 13.385400852334056
P 15.554472588691562 14.194201362209585 11.121238294690126
P 15.235369876800085 16.02629225115224 12.08055695547591
P 19.956786094042712 18.292719736807367 14.971061534974652
P 18.653862386234234 19.525557938023084 13.84539697820356
P 10.454786537675183 12.231334396791121 19.139072292259492
P 19.380296743179425 21.272906149106444 12.958823275442228
P 12.657239542646774 7.389849359988302 10.01408747118711
