38
Energy = -195.22309678 eV
P 9.858772843804573 4.526847760590143 9.981649185643501
P 10.23402795209359 7.402823938601915 4.409336559185489
P 5.5075552857257275 9.526388922436816 3.3858488543177407
P 8.053748863819218 10.802844553697115 7.471895999280965
P 6.30410716723444 3.7909546883453116 5.932742999036958
P 11.824525966985478 5.520523525013804 9.722313474556302
P 11.375210236165163 7.471236419733645 6.318958862828921
P 4.274392823475406 4.7128420268774285 5.481889941227731
P 2.94689705200002 9.531239077582887 5.8862206457898125
P 6.066218018678461 5.989958394153152 5.683660449933069
P 6.985924427119609 8.961590968350198 8.293318251177302
P 4.733995768053827 6.724902844396414 8.219534669005972
P 6.548654123179802 4.407881946871273 9.86649943244167
P 4.96552192116341 8.718697752361043 5.372632375458739
P 3.2856757481621424 10.035184831401688 8.0512652305555
P 10.998533689896417 9.592320677964324 6.864505004145113
P 11.854156428507135 7.5342033502413335 9.25259456136224
P 6.144961576674433 7.427413221619797 11.48596611018541
P 8.193697488609159 5.828083958448417 9.2070260891503
P 10.100533551179414 3.8561029143782157 5.149638748222975
P 11.070763445386904 4.577627077966404 7.00330330555305
P 7.341600697896606 8.216667689912269 3.2310058380455025
P 5.394670151440047 10.575338991161784 8.522041330259949
P 2.878409812446899 7.934454226865224 8.704970322907
P 7.4570161089750595 8.998500981782232 10.486757502426755
P 5.502481259950597 3.5089738650604274 8.042392585496481
P 3.6927653802319433 4.822009104893451 7.676122749765254
P 5.007959286077978 5.946739297825882 10.3046208162029
P 8.304339817582322 7.025556409385426 11.113449237539358
P 8.319940513569998 8.142167680439703 5.263161437931819
P 6.112053821312745 11.450428057506734 6.65928484774557
P 4.282415519543041 7.631426871400245 3.5524682546287045
P 2.133593237005184 7.6083037063757155 6.644072211174876
P 9.57340679980419 5.369190174985044 3.8456808963074303
P 10.029332920558131 7.914662203187674 8.034731571106438
P 9.534505586596683 3.6153781183930436 7.9749829165122765
P 9.183231954185308 10.194411262824609 5.6475515705454615
P 6.1094039772026125 6.291123729264507 3.4409063846410186
