38
Energy = -189.39689601 eV
P 18.594085154447487 18.065146362422798 20.88557093772158
P 18.565008360274966 12.143737281164487 10.044056507062436
P 16.57945616467031 17.740226877628075 9.82186227773746
P 13.207519282824256 16.174640226581918 17.699106147185425
P 16.830960414369585 18.61683214503269 19.81033443707181
P 13.861436621227748 14.346418562416881 18.496299583246362
P 17.414257555330398 17.209007968233347 11.845188352176695
P 18.211807604472202 8.03832274935611 17.562885107258488
P 17.489509287600917 20.217944607662652 18.59975949482153
P 9.594226463438108 15.863493624906202 11.349551117548879
P 12.13438743495711 13.53029317561525 12.417531448122118
P 20.04585456047997 8.502240640725333 17.762104946512824
P 14.033835676394009 18.06190307028592 18.165872481007707
P 16.788474556251803 12.421771648434861 8.730196222109438
P 14.562160751231925 16.83120294212439 9.947462138842344
P 19.475601762034007 13.468761043092124 8.558158203478333
P 11.020698287180775 15.66858418143082 17.824698015769535
P 10.590055888837327 9.468613387017852 15.253928143157907
P 11.777990860903898 7.875851898058887 16.20422236708602
P 11.063721957900576 15.906764303700314 9.83892542638084
P 15.421265070984933 12.919628625715278 10.600777854414266
P 15.317576667676624 17.1999266163369 19.63994052301951
P 12.118285228332125 12.237023470650405 16.59469640645124
P 9.608755486917742 15.987144506324759 16.258837091173024
P 10.574428255504387 12.530841551745143 15.03013393023773
P 17.276360652116963 14.037163027527773 10.877190710217512
P 10.25751576691743 14.439978301421204 12.763277182834909
P 19.304418912262015 19.584533270715685 19.58051880564619
P 12.987754307595585 7.900552905488144 14.463949094782071
P 9.236109938048859 14.300690291076787 15.023732508340151
P 17.033041336280515 15.214054237872208 12.629943487442054
P 12.413618729813148 9.930169596191488 14.123248115785957
P 10.157591756462326 11.155612277350542 16.694500920615024
P 11.781850200516029 13.647920681978519 18.29619759478331
P 15.327430366470931 18.04607578845434 11.644097776374617
P 12.450861537303444 14.540510079336611 10.611438240333754
P 14.377220557482312 14.601401793624833 9.559978656295465
P 17.54836862891733 14.54666880843258 8.637561177920903
