39
Energy = -200.24727588 eV
P 11.79045901735305 11.559841964786017 6.294774680415801
P 11.150358307755214 13.58997013261865 6.535291364193586
P 10.736140785083863 8.451713671322002 6.747583081381833
P 8.126161235904023 10.694750485223802 6.333397998320066
P 7.339297327783454 8.878168218586056 7.176712306247256
P 13.211735004687691 11.135526991397574 8.065550743838184
P 10.763523201592603 13.77276276187084 8.66339658539714
P 10.059709284547749 10.520467265165868 7.232081491933073
P 8.877247551416842 7.310134853707145 7.087364087907663
P 7.326198928719449 12.29034713397772 9.303616698531668
P 11.664456348305709 15.60918221112553 9.3184284194246
P 13.80767955740501 8.9298638720893 8.376092559597462
P 11.645863389342079 8.461213492847618 8.751590569225566
P 8.55946154295378 14.1536608313837 9.117333175136874
P 8.783440419343444 6.943084145704489 9.475753117431541
P 7.672643968986382 8.841690929874153 9.781551004887685
P 11.051730389893747 6.5031735039015635 9.561577422694958
P 8.767297498591358 10.778760268868643 10.110791253093035
P 11.899737037650825 10.6672555833319 9.850531766994575
P 8.239531975714861 6.3293658164019355 11.761717334276943
P 13.853868563950112 9.789872409895821 10.47125900893254
P 11.953887390006956 6.473372537831439 11.62752872510145
P 10.30432317709871 9.601280925587009 12.120412399153032
P 7.206958251413954 11.70466824353462 11.474791514732836
P 8.899562077016755 14.828282701893603 11.22420298132666
P 11.695414920642108 12.80058600351996 10.89728041944867
P 7.085806366231309 8.190945254315412 12.033709202981544
P 11.16706586554793 15.058376774335443 11.3385122287874
P 10.069280218131192 7.2621604804891495 12.445866746344466
P 13.43043520506222 8.39971740093494 12.16221959731514
P 8.510184212791106 13.126121901990897 12.633669061252304
P 13.955055906269424 10.566034612204598 13.22309372516281
P 11.539448912777612 8.910337584727552 13.891332424436502
P 8.434423042417892 9.420505212573412 13.412482153818601
P 13.405157875698302 12.625443105098126 12.616581931865012
P 10.410319383150629 11.997026871636509 12.516008559233835
P 9.6123733223625 7.841711329748089 14.558224815228254
P 12.494445324062642 10.600400895188011 14.918105793101999
P 11.760971542649871 12.643875950623062 14.151237381158989
