39
Energy = -200.19810065 eV
P 10.833561032126646 9.507688171167068 6.211811793907198
P 9.124711560101511 8.962464579166571 7.555371615754681
P 8.491971911182059 12.197323253564841 6.238651041960602
P 10.213496233562475 11.438502309306763 5.3908563910265395
P 12.784873215830563 10.220926807231095 6.9861946277959115
P 8.050355224199093 10.85813826483991 7.930133999317068
P 13.806944076170986 8.212024387454242 6.782995909844228
P 10.756634473200327 6.429245419357034 7.884780131688157
P 12.659090510128195 12.946769318266869 9.387632177064297
P 5.937112336782228 9.889990378474804 8.314956577693337
P 9.266246428726028 13.806309164649564 8.988502307467808
P 14.742408518169551 10.293620267913099 9.286057838755656
P 12.507481172650696 7.4140216999685675 8.413105870443665
P 8.720534879206017 11.814966702996257 9.896297237332822
P 9.154820778001943 8.649983951336099 9.748634509488438
P 15.336791897632589 8.276224957131651 8.530455734000345
P 11.651958368266289 11.206317558838151 10.374462692054196
P 12.65215023715762 9.58892421080569 9.311715632971692
P 11.16218199601486 14.563261642134812 9.862371992058666
P 10.245534518615864 6.793374464829916 9.997825617580816
P 14.084557661784075 6.91027248865831 9.962180315744774
P 13.482107773985947 13.35456029948122 11.482731984969996
P 6.68510928143478 8.301903463927855 9.691431130947253
P 8.634216462794361 7.6009721292052905 14.407637071853543
P 7.58617109985284 13.639580314480945 10.435305645645522
P 11.511868660195505 14.361438544254732 12.07017089859922
P 13.215998019101852 8.365481692727657 11.373302257313378
P 9.91431232353838 10.877403675697929 12.900055095817011
P 5.802235450089753 10.07255209170687 10.45445528908497
P 14.821748157221931 9.923549476133122 11.493099809238895
P 13.083632500823065 11.231421975273689 12.118158820387562
P 7.698619287147845 8.910482156175892 13.155162985185013
P 9.737931792767336 8.757920750920496 15.948212324831006
P 10.146019992965208 13.124009395948843 13.322310812786593
P 8.239503023350707 13.94792830100225 12.606293417911923
P 8.027253981541218 10.949550811486409 14.02245817040674
P 10.815669851204975 10.455715233867348 14.991788863612518
P 6.817752408206846 12.664425190431105 13.636791422188667
P 8.881801876818963 10.766123471739085 16.12100895782152
