39
Energy = -189.81441954 eV
P 12.779786672954275 13.458980209443583 8.796394299614882
P 19.398077839303507 18.251878718138364 18.852965779926187
P 12.868775813182328 13.266914366135525 13.106735294298812
P 11.130650199668118 16.93001443401366 12.318803730225742
P 17.662079340755973 6.945453613151298 18.766178266985325
P 12.406830204543297 18.117090169936166 18.51441487846047
P 14.883991168136502 7.931048462067391 14.499985472169838
P 21.182551576647473 19.261390419832374 21.239064570734524
P 14.372970711943623 7.816241554950183 12.687186671365517
P 12.675081160169512 12.799328205745294 16.350669729615493
P 13.712004983073648 11.184282446669378 15.393183936429695
P 21.628394045907026 17.16845624030223 14.186316105098472
P 17.190002494391273 20.106633769774263 14.870746030113379
P 14.955893849767042 14.498255354118188 10.307593883599093
P 18.19113974137949 21.160249925684155 13.325225459105695
P 12.266936193856669 14.234466073144926 14.893682903951863
P 15.504128840546407 8.89186530954977 18.03973028662291
P 16.144769100731406 7.004210600442959 17.22896572482548
P 9.358163636350714 16.218313666694755 18.06110710515415
P 10.409659730933141 18.59543742024467 13.252773298116518
P 13.743544009217251 14.982683614290137 12.035193840924707
P 21.681353095296405 17.223758981617646 16.40217913612947
P 12.940697834463373 15.359160798396939 9.94166350797534
P 14.502160061829636 12.484596262585411 9.464979866254113
P 16.69468804757034 20.8861381783441 11.859734724562776
P 14.247839317114822 18.076503696269427 12.351896994292444
P 13.979780585088982 11.464139008808036 13.359331882965048
P 18.25034609092371 19.90209913543961 18.26545908864782
P 15.985288852880112 19.110257686877212 12.804903713776065
P 9.44091497612728 17.113509247773003 19.977995580607853
P 16.365062039431404 8.178957630637994 19.917664789213376
P 19.53291944049846 17.62291398976718 16.796826108386448
P 21.511886845523513 17.46423536765182 22.492294323385163
P 20.21060969084347 19.092781579576783 23.051525149918533
P 12.187304783574445 18.786596432490814 11.869081532509984
P 11.179988034882879 16.913168556713064 17.309703858789263
P 21.319447936824563 15.40141418497527 15.146492357596697
P 18.950765386351314 19.72870903037004 16.204595224593216
P 11.214241667909079 18.2589092525264 20.20162851231753
