39
Energy = -200.00191862 eV
P 12.41452273615278 8.155877944680451 11.048915781853493
P 8.90485683586532 8.915502571046929 10.973823274394718
P 8.906075674712362 7.515966245707891 9.154857947678618
P 8.998309528166187 8.49301895601219 14.155081641883703
P 10.565388671908401 7.565543605102593 12.859378277371848
P 7.4121539306389534 8.851415369426448 12.673317906527412
P 8.860531027103185 10.489011650589772 13.214969228326968
P 8.428206601513658 14.158881407734318 9.522077538062495
P 7.590889684053624 9.267126573619628 9.224013962564173
P 10.174162358745171 13.780228383888568 8.18757742897936
P 7.567658584213758 13.48784058202141 12.6534256195292
P 8.663649315708057 13.699769215256541 14.577044491014709
P 7.412116325127096 11.885712622279476 14.23005325512666
P 7.509412153559548 12.155430762025253 9.606316183866083
P 10.748507516669022 10.481869392468802 7.874796204353759
P 9.060202171010689 12.726375185753826 11.11647804417587
P 10.809092056831485 8.68588600045136 9.254585476322744
P 8.465353031141175 10.891255202541341 8.010081948825379
P 11.436032208488832 12.167257438095628 9.249814240572306
P 12.14011497690348 6.889335079479602 9.07905478525523
P 12.954737337120989 9.732881050331693 13.012067695848776
P 14.379669305909296 11.230981110369385 10.762146885796723
P 11.936565507415231 14.490025713209853 10.857111646369138
P 15.68050462631976 10.536889215505797 9.049070266734558
P 13.964296786562485 8.052871488005486 9.40059528874315
P 13.230913996126992 12.72296799313681 12.880325112055644
P 13.912686161946715 9.672352683667263 8.009505843635283
P 13.180691754178733 12.9916970824504 8.044437028937779
P 13.256592013536341 14.977251316593538 9.09932936023374
P 15.041968079646024 12.658756298714165 9.235944373304202
P 15.369006529823242 12.247349857443762 12.550616149470502
P 14.205687648149757 11.214150417613343 14.185197986637315
P 10.783934828132265 12.900066957824665 14.505592380199035
P 12.105905721433535 15.875988464246277 12.546040908648376
P 11.12013821603871 11.602498371842556 15.980440203404328
P 12.19888918022269 8.061417411847396 14.26255095278654
P 13.822602336864325 7.670630151230519 12.82569090223274
P 11.128536707957876 15.59779555744109 9.10885637398786
P 12.710520119892674 14.551207161925305 14.069899404289938
