39
Energy = -198.80196317 eV
P 11.128307477998225 15.73139683056948 9.286037649496205
P 16.068733801594604 10.48585529946622 11.46321562488823
P 7.906463167121643 9.816452367485205 13.813500901982387
P 11.82907800655946 8.506091272270456 8.375087142482831
P 8.686656077909717 14.380434190399429 11.539103212842662
P 6.62494355813231 9.684802948902957 10.153640949864759
P 9.68486452378373 14.790057392644606 13.488014416115846
P 17.02645353140651 12.21742900218259 10.183779413812667
P 12.101279754232772 13.573911026960133 10.996691877176154
P 13.80404543979589 11.8116152359013 13.557903011495046
P 12.292776206928233 15.818981514240953 11.252264104600233
P 13.802088254011972 14.004747723136562 13.664999752134044
P 9.996918638883276 9.16649008259812 14.452710546672321
P 14.034791698850418 11.593613800909521 11.087649511750083
P 8.857121736602291 10.112784529725896 11.627598793841507
P 11.159614536411869 16.425873325479188 13.079364203834439
P 7.8643295505371915 8.027940551985578 11.142016068405374
P 11.776172040290666 14.669200495173667 14.331531417163097
P 16.08974959641144 11.694285589104911 13.453475185820603
P 12.646921075957682 14.067897820384218 8.886526038461124
P 10.616698783648701 7.130118828310353 9.653820378668144
P 6.01493181405515 11.679353194302223 11.145509833222897
P 15.153042982595224 12.509519305755138 8.942533005500218
P 8.476215052845122 10.469776227812032 9.278118519701566
P 13.243433166275485 7.449804676090514 11.124506858021592
P 15.684475981202159 12.964358019676943 11.723034160219015
P 14.8299882847369 14.985785864859817 11.713469375687415
P 12.632609805646881 7.910257888503612 14.370938630605227
P 8.573964346014423 7.8075971500599834 9.111206764481024
P 8.050006412054586 12.261786364926493 11.872902176279867
P 13.593651551772682 8.805185285529316 9.416598175243518
P 10.577710781415373 10.824566403473472 13.079585616799273
P 14.124850036695303 8.230294898949635 12.986812327016969
P 10.731778392714675 7.3111236312398535 13.348708958140948
P 14.781068331622604 14.643459174248004 9.390680608229719
P 10.109862147693669 13.81419021982447 9.895095795739344
P 7.389888238082093 12.458605792740071 9.551653188019124
P 11.231514628470316 8.316310424936088 11.427172215418251
P 8.807698762621946 11.81141124186661 14.099683288546917
