39
Energy = -201.4344302 eV
P 15.721986480993182 6.366727266718518 8.307467114813049
P 12.53978922010004 8.991689405372819 8.467593478158195
P 10.634321981262152 14.501606184171152 7.751832301356328
P 13.740457205637899 6.167191652722068 7.83547478825108
P 14.09633859784419 13.96003715845484 8.739999595499533
P 14.313360941877608 8.71311980932771 9.73140832142437
P 9.760679017320951 10.864426398163074 8.162618986092665
P 9.069922484191794 9.018058662500522 9.142337441270794
P 12.344633200931876 13.317410320476927 7.547542898228297
P 14.650578692720174 11.791436862698653 8.833627548856551
P 9.011344488371964 9.812985548504654 11.228402621663568
P 10.984209638895363 7.880183181019685 9.614992859521397
P 10.279206539677427 15.23783119931081 9.803965431019456
P 14.24298439985441 6.4690225045308125 9.966760010797953
P 7.288636650708939 11.122046142241183 10.488864945650938
P 8.542734193835042 12.360352203087698 9.126081573606005
P 13.813283356571889 14.525350960226637 10.913942340796414
P 11.963138555913966 15.854963447336628 11.16731504767146
P 12.43116370640785 11.237196596852002 8.895216304060419
P 8.021868167632027 14.082847578988648 11.708112643113893
P 12.04570936204896 11.244874741858958 11.110701511591591
P 11.294362343115457 10.87434866751765 13.882962953079907
P 11.009931631370591 8.58442139915432 11.735870932605058
P 7.0461201623218415 12.220150363700451 12.352884079155121
P 7.737108766441009 8.366753812074906 12.326703536443327
P 13.570097145727111 12.645540895389873 12.018424391229342
P 15.20238795996033 11.538422023156919 10.98850548874257
P 11.038350961333375 14.494487696043203 12.698980627016766
P 9.926017488245803 13.281477531719249 10.842905789309665
P 9.621905195905304 7.124307522386804 12.71631246302548
P 9.007242321612908 14.87568395625732 13.590827410381763
P 13.807552149669512 9.84750272490527 11.591772187760059
P 9.076068917535565 11.261897077836002 13.34999313872484
P 9.606494316765998 8.080469599784934 14.796848923705134
P 12.337760679685074 14.336895916974338 14.388587028323725
P 11.388518903900392 9.224182485765752 15.240101238067098
P 7.988194385503496 9.545496373870806 14.310643555420906
P 11.282653634896384 12.717287114986224 15.323952632148442
P 9.08919999437569 12.987630855075006 14.825779702578691
