39
Energy = -200.96724285 eV
P 11.838893442019028 9.679221791100241 6.662585836287645
P 9.59403474063674 11.710892780180663 7.028973977785515
P 13.003339415610938 13.6873700704659 7.0222033309307825
P 14.335576138242907 11.98757687936592 7.583132372192262
P 11.291200402011164 12.823182873402006 7.950385543633348
P 12.658845516279648 10.763361981135768 8.319844381222
P 9.813949162470008 14.55551720316051 8.140055478316622
P 8.280885899365053 12.93809598029519 8.450943711191377
P 9.978063037988589 9.61331798711339 7.838584787328316
P 12.850453302376527 13.112175955305666 10.652247995948116
P 12.014119820264785 15.199379627142656 10.513821200157217
P 8.266291633454655 8.638547128576073 6.861763153741856
P 9.39465476363032 12.596812712178453 10.377902171683257
P 14.771012553725082 12.965104777858448 9.533531924275213
P 13.621800927188552 9.58546465445456 10.020253596960435
P 9.81828263591977 14.843097288243106 10.354260169658618
P 15.311154610096079 10.981455295757721 10.57281494482752
P 10.66066749168479 8.273991745436811 9.389608601017837
P 6.729907299411209 8.96501498261616 8.223724734726817
P 8.95158459600022 8.320220200090926 10.784221387271135
P 7.928750816449747 9.99259578188891 9.745797830280546
P 7.7395962857331115 12.570287583846182 11.954577815976341
P 6.588003432173967 10.712912818578644 11.423354080013745
P 12.616906760120374 10.316892239574019 11.861003323761821
P 12.248437207583954 15.351435861226696 12.76579924361635
P 14.636133996073344 10.71594618278756 12.766063909081302
P 13.994015642652872 14.01520229499746 12.359610817487704
P 11.51183259469381 8.567716806266874 12.762904722282745
P 10.568662626261096 5.970865512485047 15.371854589070184
P 9.86861961570859 9.93242306249587 11.987597856670563
P 10.686162536786151 13.844518512154828 13.354709627485466
P 8.0317383763248 10.664889515218658 13.130988016566643
P 11.751742813739424 12.034066719236227 14.035323000857755
P 12.661171589291536 6.77049421153956 15.38897405963843
P 10.110526873931091 8.104719680341715 15.88957915200315
P 13.950282328033792 12.527834480108211 13.990877682769876
P 11.38119624948091 6.822208598103138 17.22880968229518
P 11.994239163280188 8.906440160957711 14.919621909211969
P 11.218447420934499 13.60993178194252 15.452877099403658
