39
Energy = -201.64400653 eV
P 11.994621341013584 12.848691483276898 8.751531542173275
P 7.36384734489532 11.828392513085694 8.618473386661641
P 10.199570703951075 9.909579702443224 6.544047596942829
P 9.43690881802927 11.425027011888181 7.875333398858807
P 10.400360214445259 13.38956282984037 7.288712445654102
P 13.418531785620106 11.49427910175242 7.762820649509812
P 11.88502086268217 9.796793873052877 7.963805062905924
P 7.437353072974226 14.047002242522845 8.951511396409096
P 12.723575525054834 14.820061734187483 9.463984841430278
P 9.464439857047307 15.037221303458832 8.484147774311616
P 6.841140709512965 11.4523017940254 10.853915584243008
P 10.720170520987926 15.179664671678102 10.36114716989872
P 14.455267825784993 11.037636830289943 9.725905148980607
P 10.080448614869258 6.969780936511737 8.989931925811392
P 13.180129116438664 8.079902342298412 8.264448085677992
P 9.84797923210803 8.81981692850451 10.195439265223614
P 12.185175200001078 6.791256294968379 9.678798929044332
P 12.760399809807158 10.49672138288533 11.087104678225122
P 15.319031910601437 12.769522665855643 10.699063042490062
P 8.813340475544852 6.213761521416036 10.728669213145729
P 6.946011576009372 13.707588366585234 11.14369898391134
P 10.714563695098251 10.807886756417549 9.671822787956616
P 11.575972574750724 8.106084964081871 11.605007649255288
P 7.769036859784401 8.253552126110144 10.720547293364532
P 13.455217202638272 7.895946132427533 13.170671491945448
P 10.262374032629156 6.434789518111519 12.436951399476024
P 14.322029822273258 9.881485726009528 12.662470437236053
P 10.240601722251244 13.050569139926637 10.935528659354897
P 13.725810066038543 14.087555842164248 11.341370351083482
P 8.757922270902272 13.584268331127658 12.496671507453968
P 7.998340013710934 11.467646442745576 12.791766660369895
P 9.0994515521441 7.764327673429148 13.865681178858154
P 12.168105781551045 12.539027052704846 11.927189766750994
P 10.646630273378806 9.289315124562762 13.498459776486069
P 9.871520458740944 11.190569268155953 14.202395234464241
P 13.460135073251244 10.764132137928303 14.549700832075954
P 7.4016232516479175 8.716998211174694 12.77384693992848
P 12.31442858887768 8.830471636446344 14.881886853185943
P 11.824372588335335 12.302268731330493 14.117001404629171
