39
Energy = -190.31029089 eV
P 9.212912340797262 19.92928100377081 18.247604028390487
P 11.590839028050539 9.13030542822937 11.716998638614355
P 11.51473208258959 20.00086223083289 16.297769866083495
P 18.74101966788239 17.29925456154405 19.426867613181564
P 11.537949046098626 15.707007835209033 13.05086084382046
P 17.63874313736878 22.069565994400357 10.531148165658111
P 16.533913953928554 16.203344558094965 15.17396648692889
P 15.730160127625792 15.20240135368336 16.91270456276326
P 18.14614458135754 18.77299093679198 9.500315540583694
P 18.8613585924458 20.745347559414576 9.409550113796476
P 16.923649918193746 16.45088129741244 20.192915946343433
P 8.495246263684187 17.002002665080006 18.063888972038757
P 18.14386700195318 12.388864289136507 16.53166575083463
P 15.241391339948096 17.514108482145403 11.564178153987939
P 16.6342035004947 16.64821597113649 18.107575462511438
P 18.38611385823394 10.741755467081122 17.79891767096551
P 20.629490329240284 10.059413058421166 15.214142716958643
P 16.445709330613216 19.134562483524665 10.66441870929817
P 19.500163884300274 10.423772778349115 11.931458336010845
P 18.836124639992505 12.184561289870587 12.839112542178643
P 9.633090577208057 18.609217457261636 16.724810198678576
P 14.189362703832902 14.29166884822522 10.49370062918524
P 11.142936389938516 8.614405863741343 13.490952744688734
P 19.685537757660313 8.85828511975246 13.535886423804586
P 16.03697491666564 21.040158435617208 11.417175214653268
P 17.7825734078412 9.22699364996653 14.712359948537932
P 16.935299807439275 16.166267875005495 12.139792260193413
P 15.79048492256265 15.832805512543146 10.237627782540367
P 9.001012393438613 8.211761010496573 18.482973972887617
P 7.327334741813383 18.54347834234066 18.67657150998714
P 12.970872423925387 15.15724789232415 11.89108087626146
P 18.767181369194105 11.250419904179454 14.79506094139251
P 10.34186804764756 21.536429039447487 16.906525247437855
P 19.10842096258726 9.022809558364955 16.542871982635234
P 15.954630979599703 14.892464346608898 13.673670230397667
P 9.274650683350863 9.99382536443785 17.873622810557848
P 10.624616664010095 14.099264477001787 19.733354650425827
P 18.302701096362792 17.81095406233798 17.406026314265063
P 10.19631300685091 12.336100958906918 20.30977274393735
