39
Energy = -200.88878541 eV
P 11.393788841351725 10.53097085187975 6.519345322302061
P 8.152833035433433 11.632072271830856 7.13025757850774
P 10.407464220357104 8.528350866407255 6.969957826725479
P 8.659482165828347 8.492758956692379 8.404898251570355
P 7.979289567730425 10.489256031289415 9.062759962379346
P 12.050746336535502 7.1826264080873825 7.593926049824043
P 10.283625373621726 12.159059781323087 7.6324728361644505
P 13.457190751166394 10.30849650599475 7.247463390178156
P 13.701890251350942 8.250090723705446 6.652042781970833
P 7.204562386575137 13.474369813298196 7.936168364509023
P 10.75588805751024 14.16908222352288 7.301770824840485
P 16.19423976674381 11.737998053368726 9.944322136264953
P 9.85551628777063 11.487092645966372 9.745466821349975
P 6.657548425444346 9.616421275315776 11.82356400280506
P 13.211876858979355 10.449735551513744 9.46796204536497
P 8.829179112908054 15.022046968700632 7.918937925583024
P 14.107409671550485 12.406645876467238 10.053382858807138
P 9.093642247990019 6.921099340667464 10.02399326819439
P 12.878927408872537 6.968625118448663 9.639527509773647
P 16.628667139724342 10.904260367007419 11.817594694027816
P 9.748516253727527 13.3274624053191 10.890586653177184
P 14.131926122982723 8.66287106552462 10.433173821955519
P 7.969798059632158 14.268970213757905 9.89551336250418
P 11.075128058292899 6.44634321621308 10.876275230008169
P 11.270900804940494 10.016186635471874 10.483907451610495
P 8.793749110866907 10.215183438696867 12.072340008822806
P 8.187136251433348 7.144421618740657 12.006724125127588
P 13.55752229526086 12.383924554371808 12.218673063689936
P 9.097276269749017 12.294584253750484 12.871652973845286
P 9.420971783147209 8.442860093362016 13.290343758478045
P 13.262609961838129 8.933535750956136 12.550467466424587
P 15.114813457807877 11.203639167045937 13.236197402624171
P 7.019825418427316 12.923562616733207 13.327119451147848
P 5.576771633128595 11.572651893653198 12.261753753055588
P 11.42779225839969 7.532755171779691 12.782854785665743
P 11.98775928678098 10.746248093309076 12.434080806045571
P 5.36801516384085 9.826356885773325 13.63686565477636
P 6.660725534481294 10.143019891153722 15.381909787109523
P 7.596034736295646 11.955403771378586 15.234786361266046
