39
Energy = -202.51854914 eV
P 12.395632336194915 13.924596270889891 6.3465404368620755
P 11.932439612822902 11.800493329647612 5.795779231430804
P 11.112483418854563 10.932513868836347 7.687338561827404
P 9.949801390826993 6.981565397252892 7.92317835651099
P 7.832959052167181 7.348746545156713 8.392281290033022
P 12.99841718673536 11.710947046960928 8.577623350061101
P 8.468972470475013 9.356796075509116 8.961030980094723
P 14.004013516733457 12.510157452428304 6.790937241811316
P 11.361689998867076 14.34424051142494 8.317272298120539
P 9.844831711390478 12.734142786611159 8.153772525914171
P 10.169421658675798 7.956085232409982 9.821564423435298
P 14.548908931623311 10.410067960451565 9.5163761279849
P 12.369221829601527 7.697906132473243 10.51148919580305
P 15.645680047776246 12.233248488610252 10.454222805683267
P 14.820894008864514 13.940682457391086 9.344072794726708
P 7.38013084166906 6.509803586203618 10.635348892558852
P 13.21878976065562 9.646345149303965 11.115722521220953
P 6.9190358204887 10.089391869144196 10.320601414785049
P 12.732020448819846 13.457814936061823 9.857299567753454
P 8.783994112686601 13.186110058306987 10.034043112961404
P 7.0204052896632065 8.383242404384495 11.862077949339087
P 7.383926655333419 15.379712295059914 12.351909881313974
P 11.9778711216319 6.905747627667393 12.594255461031343
P 11.585521975348868 11.018424397909866 11.725733006134883
P 8.451392344224802 11.448012268593198 11.273351831969013
P 8.087942013093768 13.870346669365832 13.844526035190897
P 14.847465334437137 12.630202910064364 12.44966516385038
P 7.028044840691035 12.158324249965633 12.83132361964194
P 14.514942810003378 8.954106515581547 12.756196629833301
P 9.49542476505878 6.146122853764823 10.997783098682556
P 12.752661753637845 8.436238980706527 14.002627681529852
P 12.630428916418674 12.831047237233253 12.615122529621894
P 15.052649669958052 10.871536322456297 13.816128631530455
P 9.7413594159677 6.933171965811666 13.043631764596297
P 6.056962975836924 14.823404673273632 14.015476817152962
P 8.775358227582757 8.87900014368878 13.028023558753741
P 5.786955428442019 13.852001901425194 12.004474978874908
P 11.501264862476976 10.270910163787901 13.848170700256635
P 13.05347658463222 11.670184404553648 14.616418671484894
