39
Energy = -201.85827149 eV
P 10.128228725198229 8.843797760080268 5.930986840672375
P 11.895079016606394 9.536881118164004 6.944674540777125
P 10.127753022417984 12.32191105306256 6.696699146414241
P 12.304896097121208 11.663520692442484 6.406230540065868
P 8.824492648479467 10.409902791294702 7.059876030185501
P 12.742825624564322 7.654761715997127 6.228266941678881
P 10.846725373804516 6.956015229654145 6.97800383538579
P 13.230539675544788 12.592298087626373 8.235684383463536
P 11.628538084200022 9.558988826495895 9.198189200865302
P 6.694861644883741 10.696879873088244 7.091205174736078
P 9.768897374459772 12.784375774878384 8.839547029766617
P 13.852310614023454 9.080405771638516 9.415375503153903
P 11.672333559840908 12.512930924654201 9.796106524550888
P 14.70466438823148 11.220909332100504 9.332155284645834
P 6.567395850926689 12.775736314664266 10.02670760386462
P 9.174837227567824 10.42247671045611 9.27119577306052
P 10.80940153999775 7.489583557384657 9.249753075050457
P 8.713966922451334 8.155460509058345 9.151585965620956
P 6.943140574844598 10.823877535469096 9.268780548896192
P 9.385020020967106 11.267098135707561 11.938761439030804
P 13.587033635263438 11.545227597544566 11.225847470394928
P 6.071182640732872 9.233707172464955 10.72002792167351
P 11.693580418073301 9.382765749104948 12.230477570279914
P 8.225891959369507 9.887579053808055 13.285991295430529
P 7.32641730765579 12.407685949988768 12.001969597211174
P 13.696959499375096 8.464613906392376 11.570871170924999
P 11.988563682749415 14.375515899930702 11.049148874403624
P 10.650687624585926 7.7698567536388135 13.433965642791279
P 7.607160905828223 7.539506717751116 10.937630940377872
P 13.561086991321048 13.446530553068312 12.348345693763617
P 14.666808359971222 10.219308522426788 12.5836337365596
P 10.21351614355008 14.528195829696468 12.29258313812013
P 6.217326934837177 10.492477694264034 12.586089143773172
P 8.441882084031423 7.759995630438791 13.024469352131426
P 10.203279716154103 12.736261303039477 13.486288779442592
P 8.720062388066035 10.170376653561119 15.358659721382905
P 12.76261392299233 10.243976822657661 13.993557152301356
P 12.327621024603054 12.482867638690232 14.01549161288561
P 10.517404093931065 9.040726156837348 15.290153123489791
