39
Energy = -201.05009848 eV
P 10.909399169631568 13.568663467130888 5.504284229914517
P 14.438601483691833 13.784832774079872 5.173287972604814
P 11.652292151896038 14.91571916624108 7.073166283607988
P 12.713435398560906 12.399621583671484 4.908929793822024
P 8.847000603560101 7.9841275413718105 6.611934133283282
P 9.785466487215265 9.815627746016142 7.512120159181709
P 10.56606681559103 6.507095090001229 6.962262444761857
P 13.818354217203598 14.393100950207184 7.2230228857699625
P 7.961337381408548 11.158873154769777 7.913721244365012
P 11.672214022364745 7.838695267910878 8.348059880313093
P 10.931286504476347 12.887477706923056 7.631016866495046
P 7.715179303729983 6.868918338763418 8.205714600681175
P 8.787586831437089 13.294707789441363 8.215755969110736
P 14.011133403750433 12.234037049301136 6.709408789561208
P 10.305458426137518 9.117762193038947 9.577035412382877
P 9.27935396968896 5.389823421137591 8.371084091825619
P 8.271012912686263 10.78647986117924 10.06748388434496
P 8.080740019536533 8.481023283065753 9.789575007116824
P 13.338863358576088 6.787211171689888 9.203610886367334
P 14.07722767436481 7.502500308851873 10.997690454511817
P 11.12206685397309 13.635068450903464 10.837097182977
P 9.2100489622983 12.878007583027214 10.391586526832855
P 12.48443117449521 8.761426884024637 11.907242850019676
P 9.82040151748975 7.66509049407682 12.229071351843524
P 7.603628893274073 7.790743084180676 11.857192780011165
P 6.597466634884899 11.317716127151963 11.447184861732973
P 7.699044163285636 13.214854166611442 12.105276308949133
P 12.51923471882219 7.752241005726511 13.911946166530337
P 11.145001632063686 13.356710664682938 12.999897942833275
P 13.490715805372755 9.765425364849376 13.637339394049578
P 9.608855131640782 10.19376446362417 12.636357465016209
P 7.405243485068785 9.830785532211092 12.947060459954738
P 9.252365884071105 12.317376341843872 13.426532823209548
P 12.632316718800922 11.856171984856891 13.966440166367743
P 10.314287971006767 7.534352336297123 14.405000896304543
P 9.964956626810496 9.70481838839877 14.810645566078335
P 9.31990083507895 12.288427139949198 15.79527784570888
P 11.357647472437312 11.196805700664363 15.665449488509124
P 8.41422161396443 10.347762652472912 16.1480811633957
