40
Energy = -206.55969857 eV
P 10.20340715060366 12.68954274943484 6.370855939463366
P 12.293957320615142 8.91781510138636 6.562079134983676
P 12.750223710568973 12.689503174057704 6.951392492066031
P 10.107505994719546 9.199821268629783 5.993262763165536
P 9.526248347035224 10.846864882856762 7.414191530186641
P 9.419994617636691 7.445963793731037 7.319974375234084
P 12.392747174286246 10.784680541309227 7.989472173088808
P 12.450275086198609 6.2592054947586355 9.296994382002522
P 9.60795221988258 14.044244704205557 8.064452004380614
P 7.900435836901196 11.858317326855587 6.250586845294822
P 10.596241115085942 12.738503818422597 9.593747008994015
P 14.011162379648644 13.186303281263523 8.771915378838758
P 7.455261944130783 13.172084875684645 7.966755395269
P 8.68986170399782 8.372163523070286 9.289298128616938
P 14.369363707791372 10.953351378418548 9.026767493325249
P 11.419076137824595 7.7795129898827 8.238316599527982
P 6.954567514285481 9.719989647793474 8.975128025153651
P 12.463398130504562 13.816170265395987 10.288903202830701
P 7.801360704236229 11.674001423082741 9.591907657485953
P 13.28209440204008 10.281656053143402 10.861154989652821
P 6.089714150941181 9.65121054065416 11.071309493276425
P 6.2066720892820575 11.952835193934495 11.14672192815802
P 10.698377930535498 9.220839282133069 10.02993534819639
P 11.780276940081738 7.410084585527981 10.99868934238027
P 12.360895345280026 12.097784665441688 11.627562639669668
P 9.877143331906012 12.134213434924277 11.678689698875402
P 7.9249153455037815 6.895626032005934 10.747035945348717
P 7.4404311435152115 8.382473420002823 12.281246109078037
P 13.337076571634922 7.489429959422331 12.655985436095136
P 10.168044083140213 6.82245440905858 12.50606844111749
P 14.15696880641357 9.576222264243826 12.820993795631077
P 9.655951006133872 9.00878270299041 12.379230572287547
P 7.713342329400715 12.953562904709022 12.450330033749802
P 12.673531545273002 12.54012242485046 13.741964268648763
P 7.6334062329214145 11.739845973272892 14.202793801526495
P 12.676818178935113 10.37163100014241 14.339991628635097
P 11.771748063471968 7.329050935876392 14.219614221258988
P 10.523432394139272 13.335041716957049 13.57774144233385
P 10.745703712477106 9.305139493103706 14.365446877556264
P 9.546497890543609 12.030035056888586 15.017575746139403
