40
Energy = -205.83103202 eV
P 12.122734111602457 11.842789558221568 6.001851955462907
P 11.85322092080322 8.334456601276914 7.072093785930565
P 10.674224101412696 10.24888316383257 6.782671953855829
P 7.444977560519128 8.068278049651232 7.6105488418258895
P 6.535733925288042 10.067587733238478 7.644277512605089
P 11.585363733304543 13.728340682418882 7.116083401103963
P 10.514682868429283 6.936195149823112 8.209376763190257
P 7.288147046634951 7.442572631368136 9.672660236801818
P 10.054409396733764 13.004366374366327 8.515005816130442
P 13.883062893014383 11.740001126312503 7.512972678111237
P 13.62292419307634 8.922920994594113 8.704117976335269
P 4.998028767614255 10.258526008341498 9.235982422208288
P 12.715138136035094 10.82695455417125 9.122637186461466
P 10.52789882973865 10.85294102343929 8.890694443690201
P 13.507713896105933 13.823119856312456 8.414712308652092
P 6.5551725833868755 9.423357611338584 10.548934434202573
P 10.790997528338638 14.110812793177752 10.301005592110743
P 15.479041943795822 10.117967270204447 9.469535192421397
P 9.476677089314553 7.868846955781256 9.921115781930968
P 11.97024283519391 6.051217449771648 9.804014579974494
P 11.209232945998622 8.682136650854137 11.714730504703194
P 14.893254500471718 10.56048251093886 11.504686965244115
P 12.819495500284692 11.409175886972246 11.250527426097454
P 7.034696481616052 11.272119305898153 9.44774853727326
P 12.940397808625395 13.57710959851115 10.597371653983254
P 9.444804942233768 12.887504450936593 11.65440175030557
P 6.276648358470981 13.473113492874305 12.533691090704975
P 8.016648589671956 14.519957905036218 11.973772749305137
P 13.749355836619557 7.351718829093653 10.194213823861944
P 10.534614966641877 6.593084450132338 11.472736227772762
P 14.205107606584132 8.603126476672882 12.277298772764384
P 12.344773518407058 11.341393459665857 13.683325170125045
P 9.232151929715634 9.502754044493734 12.217950271011649
P 12.405036606155258 9.093417302995762 13.563390201730272
P 6.106882545995481 9.781041052281074 12.785469184649607
P 10.480425430027788 12.597642294990234 13.689239420392779
P 7.380215488101379 11.639422641418209 12.677627243263695
P 7.723238117636596 8.342488994399533 13.433362060011481
P 8.549157117504508 11.713223093247798 14.583724992397606
P 9.279773522622403 9.615256144672022 14.420743265122873
