40
Energy = -206.22579679 eV
P 11.657763291408639 11.700100542096681 12.73350429355832
P 13.160829210093327 12.274711698369561 11.15730536870736
P 12.362177376751252 13.984062412088273 15.307098574442854
P 13.983982086573937 10.823337585361864 15.20373810574059
P 10.678291823047257 12.822367305057801 14.41649715110702
P 14.555004433067417 13.418054848075208 12.58526203548547
P 12.397647379456428 9.92995852080043 13.864159972601074
P 13.616082729694012 10.106180348920429 10.981401432254565
P 14.268893163003066 12.979834580683162 14.788172991103625
P 10.73688856581828 10.717947398207398 15.295059845133428
P 12.318163888913219 16.184881421405063 10.64571772721089
P 9.713436227026625 16.558130602443597 12.993923838102111
P 11.181639327180607 17.75538841210916 9.383872985378714
P 12.61349106150353 15.218259334677636 13.529571029658493
P 11.168732762209133 19.20309721965342 11.153901724048852
P 12.660075307286242 17.857733860931354 12.10057021369795
P 9.138612321540027 18.33786322641233 11.795590673014154
P 9.167034661160942 16.893631453360044 10.03880251456054
P 11.627353815662481 17.137427030048137 13.942520038609489
P 10.341113747533203 15.294470232638902 11.284803771142538
P 16.214744486275045 11.921024445257894 12.330563400722308
P 16.47890859886223 8.81960261768751 13.402457291339877
P 17.229672256313172 12.307526325655488 10.07157651842208
P 16.09734963483151 10.614436121782015 14.568273429686016
P 19.21937880650476 11.924984981618548 11.043369259715629
P 18.235118209231757 11.930664698137205 13.162601596715554
P 18.92909135532563 9.67452983485826 10.801410971002007
P 17.0040560469406 10.121920995864329 9.693377128647377
P 18.49690850362305 9.696925902687926 13.018072751674072
P 15.672182394622583 9.973435409164425 11.526906432703182
P 9.701166354822531 11.165885644814308 11.763130555164203
P 9.62884543337535 8.177329106448651 13.010601275534256
P 7.377151847198972 10.063782130790283 9.484373333159837
P 9.190008441906233 10.191436917631776 13.797058680472162
P 6.888058079409226 10.154783267588188 11.55785125956944
P 6.219825833298885 11.523321593707312 13.032077771140061
P 7.497900113040031 8.17804435422541 12.213244540228862
P 8.46736004833842 8.285398909225597 10.089635311411065
P 7.172643481198962 10.40763157535672 14.584940070948443
P 10.363165121173763 9.100645492019929 11.077752295086142
