40
Energy = -206.28983184 eV
P 8.362890886711869 11.9917269265159 6.47955161548604
P 9.98055985293851 13.331771799640684 5.670834652093812
P 9.132310630580532 15.06973719614251 6.939186433832041
P 10.443096201012754 11.695379478410912 7.02565768352915
P 12.968896523837481 7.982242938743423 8.332379244977712
P 13.258987194121778 10.230621200380769 8.297721019230787
P 7.586487137504838 13.680651939011009 7.888556707021349
P 15.171662785195014 10.736239650364574 9.269471856314249
P 10.856469646523289 8.523777514111632 8.871344439516914
P 12.4521186191472 13.613931853167882 9.418156789459065
P 9.326213815166762 14.381124490565686 8.971114062554053
P 7.5135433324103245 10.97011951855682 9.525125125428762
P 10.502665805698955 12.383499490447878 9.203750654893069
P 10.58897896146325 7.102033898617444 10.605781397789825
P 14.624162512657218 12.875301181893626 9.246019604697164
P 9.040151923310127 11.695452614740196 10.877285856711493
P 13.961532085027722 7.4293167278571035 10.250640189180954
P 11.660893484872753 10.375183506531496 9.850483937145777
P 6.06263124863635 10.218915568317973 10.810937498085671
P 15.440195200718685 9.95521412587772 11.389663005026383
P 13.866096285174919 10.924055383170984 12.573079675539084
P 11.455118558367753 9.618958514024632 12.463373821271238
P 12.508854280290844 7.090740600976839 11.673003182512595
P 15.583928255680364 13.54671382973037 11.103220437562527
P 9.518774906895676 8.727039352051522 11.747662871199655
P 15.923687824872813 11.81651175694417 12.520083486817517
P 7.60644300333474 12.950747234214056 12.18120136539141
P 6.442958078186656 11.14086431442811 12.774757345990112
P 12.20745393641769 14.473597989999517 11.384408622850252
P 12.838660452760827 8.2705624753629 15.32800262616114
P 11.104098243120825 11.787429800585869 12.841954929787962
P 13.76766870692113 10.135953647802888 14.743908452433734
P 14.071742560288614 14.677360078395166 12.234348784522552
P 7.789706433145647 9.99229961110352 14.273205204076337
P 8.487129528614988 13.525264512946624 14.067529630077535
P 10.980363330644321 9.001651352410772 14.557001960713901
P 8.992033968814406 8.097374019593474 13.824078350419875
P 12.232801149344883 11.852400643444884 14.869313204984833
P 9.339495759670719 11.57430967593194 14.240627754358961
P 10.574191441994016 10.77957813906341 15.90123107243086
