40
Energy = -207.81490271 eV
P 10.95740009371804 6.842559114136277 6.136130948572684
P 10.35617030202609 10.095589430135345 5.178938390531907
P 9.405798995145279 8.443431353749418 6.324898219244264
P 9.747190441822378 6.839428155980481 9.091376784212494
P 11.623211307003164 6.198555860258414 8.244390351653847
P 12.574313434768532 9.99753226212526 5.596028128098979
P 9.684735602745771 9.047081527706306 8.522942099473877
P 12.966608942703921 7.8946791905134575 6.152309935181856
P 10.491950183268303 11.841073749578245 6.668721083759766
P 8.912704066863938 11.16522248962065 7.990076736098262
P 7.084569490200388 14.199402030851186 7.913290616032435
P 9.327998773269199 18.005159553611556 9.42070779070586
P 10.136183152300736 15.909876089560045 9.605488222540735
P 13.114524727714128 7.9482690908056055 8.411287330314893
P 12.458131708410816 11.092661062875585 7.584118238300739
P 9.663323180508671 7.2900770486310025 11.285016261500854
P 7.99598477755743 15.298442143815246 9.408284365803672
P 11.794531090197978 9.589084440387982 9.05293345998578
P 9.44331188249333 12.344130031531812 9.787174290265211
P 9.486236493677783 17.078932375343992 11.404221679600425
P 7.3507324897981405 13.309146265729124 9.956011699886563
P 7.477579518800926 17.22590176230402 10.417929396962831
P 8.38179080803691 9.014156248933501 10.524626930431978
P 10.963797597257315 12.968935624088427 12.907265427994345
P 13.459627295973043 8.506755686910818 12.08975444560362
P 12.789579323074154 10.589828166981174 12.022349045121617
P 11.608821786104556 7.238794711565931 12.528754112151068
P 9.179257687258652 10.825496432180802 11.465429820169328
P 9.037011924109576 13.128725702468403 13.900759967093459
P 13.979659392653186 11.604789177512028 13.657762021533864
P 12.347975098720635 12.836699359678509 14.673153191241946
P 10.905845561528665 10.53474796183233 13.165756892010144
P 14.522552988631627 8.246854429468478 14.07721890361332
P 14.300163198022005 10.11182406830283 15.26497498943449
P 10.296732108373488 8.4493772797612 13.794781782977658
P 13.113658491968666 6.835153861044362 15.02048059105377
P 7.76019373459487 11.895753387662385 12.781412898659992
P 11.024313827706301 11.225354948311114 15.350646098340025
P 12.380073405371299 9.897872545497254 16.461372487123345
P 11.461796831689478 7.998687094617694 15.72726608278747
