40
Energy = -206.57197678 eV
P 10.72472016213681 8.7984633507063 8.473510909605611
P 14.850473386738592 15.18875974483655 8.96161330330836
P 14.469829586014917 12.951705729135671 9.23304123764468
P 12.31669517436176 13.467036420403051 9.678358119097675
P 10.912101904386272 12.50421685099351 8.286684706109545
P 9.347924117194575 15.956209985714542 9.048291877668365
P 10.635200861979062 10.741061412359997 9.744647595342158
P 9.07242306550843 13.774529483942752 8.999426948842546
P 12.610385535811664 15.641528610594769 9.337268233126107
P 12.93582788669296 8.955918390054784 8.695012698042188
P 10.082726448548128 7.333120336897646 10.060166899475002
P 12.76533886165908 10.381679543408048 10.413276770518303
P 15.741396228452567 14.098373672831116 10.644946920201406
P 13.627658790850967 7.024411984995493 9.514699461778585
P 11.691368650985117 5.847781978758256 9.71979459577108
P 10.096366063847212 16.68547870241517 10.960250046804639
P 8.48947153942531 10.279264326098009 12.246689504514721
P 11.442392152617415 12.817007872371155 11.593373749586407
P 9.325640264961864 13.443756776557564 11.155828408961217
P 12.295029896137882 16.30417938202994 11.411797160033448
P 12.347229513912 8.894075296481661 12.144887864497099
P 15.167286708646827 15.198995962229636 12.580822915685378
P 8.91771908483683 15.314540888213115 12.212486259313843
P 12.441631331133888 5.5031271211632315 11.853551037820425
P 10.33384623043525 7.9801741790740275 12.210724093433202
P 13.855036542259509 7.298665945559616 11.747313156327587
P 15.518087565559153 13.761761928673693 14.13363437374687
P 7.732220890458413 12.356114353469621 12.27032750221532
P 12.96068037428933 14.358751065136497 12.481427381374473
P 14.562656988108921 12.300371256878318 12.906295888318711
P 9.857499230598012 11.02084896529911 13.700373303537248
P 10.85291492283575 6.1398908617808825 13.156519825030838
P 9.77036021484072 14.750059325259484 14.260248483017186
P 8.618062241784012 12.726263997835717 14.350909522237725
P 12.78135829703462 9.26139926110766 14.34847517471396
P 10.664332448038925 9.687575537655054 15.307848306855547
P 13.767040457717831 11.242082676342518 14.678068117043273
P 12.053940063434135 14.497271889467733 14.551384184104279
P 11.824285027174936 12.293776529023082 14.753180744868256
P 10.858815710956348 11.537742826612371 16.490817141792828
