40
Energy = -207.27810354 eV
P 8.166436152786504 10.808627586124496 7.154720725885693
P 8.72139445515446 9.012168338960631 8.451603664348937
P 11.231367102308436 11.910058818640982 8.030474969448214
P 12.995399399317686 10.788739814043739 7.44901532077839
P 13.727723720181451 9.148530190350922 8.732078717526289
P 10.715551307107257 12.259686770585681 10.395830382342467
P 11.715335660875134 13.728447491524314 7.020438305241532
P 6.879633201170572 9.28367784378972 9.652821518992901
P 7.410707842044591 12.51239875521429 8.338046453695718
P 6.0851982388630015 10.762663518463983 8.131478677936391
P 13.788297860544034 13.747661496286993 6.556221472338057
P 14.742248339014086 11.957098969445534 7.031483651750351
P 11.925409273086201 8.287743686258652 9.792608497263556
P 10.658744046154165 14.392493051603696 11.071191017886687
P 13.012769287054565 12.141994124780984 11.63774482282816
P 8.437424556687846 12.35338140254966 10.295805723255002
P 15.323677506678038 9.921420246335645 10.147108401547516
P 15.080174860203513 11.972470699196924 10.989292344203179
P 10.22286989645713 9.760192756110131 9.914299130255653
P 8.476573212761654 14.404417906403932 11.149993055403979
P 9.204534671556015 9.47514761420582 11.926808180726379
P 12.576189836068549 8.66266919031694 11.89689045832693
P 11.074493420676065 13.663389945640912 13.34159223582101
P 7.400189476226625 10.63668447670994 11.343376419031543
P 13.330913091026428 13.908057915030298 12.86506189217315
P 10.199240456116776 11.394430106247883 12.823114278393108
P 14.799426297224214 8.448395724687176 11.692132866947697
P 11.79793623007897 7.249401676731482 13.286122884614374
P 12.265965181413025 10.547561160573382 13.248132363790226
P 7.819847692763292 14.322090524569226 13.507712657226055
P 16.090343161816072 11.629211767412725 12.964767536957146
P 15.750062194491464 9.45676761514017 13.44705992066244
P 14.746398861957633 12.878860780004798 14.377562120826104
P 9.735657533964272 14.9738413971367 14.489065434051525
P 7.364516439160161 12.427195271568685 14.369025762692017
P 10.580819949712033 13.131702507579634 15.500272272641476
P 9.214586776608819 11.47902596014337 14.91956720966464
P 12.125009228430992 8.726362564266156 14.79501099030186
P 13.30403020937105 11.397917210011599 15.070492858624872
P 14.32485851957207 9.459368272037825 15.215929950283689
