40
Energy = -207.00000713 eV
P 10.897593152203259 9.269069587212593 11.567981422074096
P 13.605806365196283 10.220372959496528 7.09905568302081
P 13.764735822981237 9.233365009867994 9.101995928100237
P 9.062335313648394 7.957145223258365 11.578619897612379
P 15.278449761033526 10.889155541420067 9.682773687784696
P 10.044357386733493 6.202211655959823 12.3414538766576
P 11.702403327253624 8.471019560736725 9.64944603230983
P 10.472070891855402 11.689281108441246 6.482508253818873
P 12.272442007413725 8.043393725584345 14.725559203263206
P 11.791715748008922 7.442972987950973 12.535030180175356
P 13.28580151239295 12.429715895016319 7.391781614854625
P 8.252010098850958 8.035150717621796 9.555297883923718
P 10.171299315297473 8.609048333051451 8.029358888355993
P 7.210624920553597 9.912568741837656 10.050840807821718
P 8.87550117349491 10.310402703623703 7.276404239520199
P 11.334318322355518 12.343485585100005 8.464206072925062
P 11.563021912925583 9.724736657422255 6.355226116568129
P 8.107189427271923 10.853417776412442 12.000180172501087
P 6.65568043146027 11.125459482016145 13.680521485603727
P 10.72079176535937 9.402860220643701 15.389647434159949
P 13.075247226957696 13.238346938409206 10.770244623380965
P 8.973778395103109 13.7155872321378 14.289587954666704
P 13.835675897158257 13.014738473980254 14.212145776432413
P 14.600077442350564 12.914494826130595 9.141226662729958
P 13.964502140588792 9.293646768756643 13.950450305680024
P 15.277359190337142 11.166352609925582 11.916662429537949
P 13.93963588723969 11.023223445268345 15.436692261183
P 10.865744812658152 13.871476116086045 12.997216719028227
P 13.172545517400074 10.337911519413007 12.207668157923907
P 8.50830135046041 11.641293346038767 14.75890979900426
P 11.701954296327985 11.32572303470528 15.43977835821341
P 11.242201420011604 14.587984125492813 8.205597037705232
P 12.536644747010243 15.274820220811133 9.949281866308805
P 12.07622290084571 12.047948628303905 13.368297759429783
P 10.313694983317799 15.374814136531139 10.088153576301876
P 7.904014025595444 14.280997248537313 12.377198929222384
P 6.634599840435923 12.49442574032951 11.943340375784862
P 7.83256015802708 11.457086764775717 8.715368976050996
P 9.680345023836034 13.520217220537328 11.181767460543817
P 14.880986088047393 13.33831788536452 12.176761106656565
