40
Energy = -205.5770316 eV
P 9.28433668774734 10.941141583882558 7.928612239399271
P 12.413278463713313 10.046398890398068 6.499544658435918
P 9.77802573970582 8.021674076191191 7.917242091898143
P 9.762611322053898 5.906752147497707 8.248241027317833
P 11.540963465054771 11.47160702195052 7.893364459520939
P 11.930174895020404 8.706099191517573 8.110900414240438
P 8.008067563897242 12.580025477663247 8.741011932824872
P 13.101869439174553 6.815946968727222 8.452779146668163
P 11.683464465019673 5.151553786961393 8.139461787000213
P 11.811729357868366 14.027742218955465 11.317486070145387
P 8.726257349121097 9.396059011588488 9.540949524308084
P 6.692868127120939 8.557862756469904 9.201609715723231
P 12.076661353861573 10.267488425609963 9.749975877505648
P 14.330206830831274 10.29703793969309 9.729569683871913
P 10.713035289637736 15.146944651504873 9.736513240761209
P 8.727772729901401 14.21242669484214 10.102776579879006
P 7.480287851629188 11.262104161087812 10.513429815276373
P 14.021620974962078 14.269382761956106 11.408950504490726
P 12.991895085485242 6.784863631860188 10.653920322583234
P 10.805825123218874 7.02752446246699 11.324031907172825
P 5.6359605995527575 10.15528723329759 10.002051390791479
P 14.6142287228982 8.295577827227811 10.795211744949572
P 10.19419682618945 9.171671551678639 11.287855795829941
P 10.167729679330757 16.6829484289184 11.381246437762597
P 13.872177016034481 16.089346764987077 12.669097063026113
P 11.756247724418214 15.81957047636894 12.680122387413645
P 14.212881592674567 12.65822907018074 12.998252708821385
P 10.683558598120186 11.846326827871449 12.393387645824394
P 15.009540201730301 10.967542952068502 11.795887539975748
P 9.03346421934845 13.40151618061373 12.131758146998946
P 9.25569636804771 8.698489139658783 13.317164336059454
P 10.477600889720966 15.9737118393777 14.395107751605414
P 11.221309581392633 7.570048726516972 13.484125810934263
P 7.187790479177011 12.27614642630719 12.3808972748606
P 12.137997009960381 12.606043934478235 13.925355207350556
P 14.42901119935017 9.096374568977991 12.895744168433804
P 8.900556740873881 15.651355160022803 12.946887441936864
P 12.25852558331394 9.478149574803826 12.889289015535525
P 9.741363013952189 10.732477630893388 14.219355490115316
P 11.929721222953038 10.539059208989721 14.801341026814184
