40
Energy = -206.06022905 eV
P 12.704551412446898 11.055293189146234 7.190225659695885
P 10.72579934309646 12.085347602996714 7.095322250957459
P 8.136656098277786 12.99546110615458 7.615885719738255
P 13.890639605073533 12.911043213755603 6.900963837212517
P 8.81908449703978 10.984326342848266 6.721001196516357
P 14.384259935029919 9.573072740537873 10.24787239641289
P 11.098071547552077 9.456040664939367 10.093449182994897
P 12.995153545412741 11.139245563867942 9.408766485363175
P 10.11612444955129 13.484242901716643 8.686900133035948
P 7.997439622434342 9.345769676833612 8.060056667381875
P 12.772217463929579 7.963002152117714 10.529223517067694
P 16.579001495217213 12.029563318961301 9.433798741483647
P 14.589863533903985 12.64732748295116 8.892577793870407
P 7.347758702554558 12.511962072742564 9.656677865809101
P 9.216601326674391 8.303000278147795 9.656382925700647
P 6.486286070232481 10.532029982914215 9.119232975742644
P 14.609935066215156 14.097732495324264 10.5956490071587
P 9.408735293308675 12.068891685714325 10.321239254974692
P 10.77562616557263 10.056693842763222 12.20659494180779
P 15.984975180787538 12.562124781293205 11.461246460941325
P 6.421600427633965 9.786184127511232 11.17651328371708
P 12.259049658298245 11.86657963348163 12.247263120694875
P 9.40892291120104 14.91331130802735 13.023729879142996
P 8.102734016528409 8.63590340451606 11.510971051893938
P 14.347478960254525 11.004767642008993 11.992929447120304
P 12.540330249208774 13.946274989786287 11.381555766744238
P 9.879884178076543 12.871234063774791 12.343941953015287
P 10.800049022716545 6.756290317815785 13.244136168979246
P 12.172748768675266 8.308415635758797 12.628647122769712
P 12.974306578560787 15.051682353278661 13.27857216579311
P 14.281835733758887 13.619159531217942 14.297985673180959
P 8.219972257127003 13.158218662925629 13.770411954927571
P 11.074692181331589 15.003044287272541 14.537214840429472
P 13.538898528453712 8.51316909528462 14.312453020833681
P 10.340225570051702 7.74631908899851 15.058958950825291
P 11.814300318332315 9.17320343210079 15.55947696705698
P 12.84263987213353 12.029275839088893 14.447359326449297
P 14.546702389709555 10.510185586208573 14.159761362336832
P 11.03366396711921 13.155021586834865 15.760555338683565
P 9.066928457531795 12.455332719396228 15.68023999255207
