40
Energy = -206.807056 eV
P 12.935828467192598 9.08958823444404 6.569280995223759
P 11.327204072341212 7.755294966031729 7.341192743258272
P 11.833862429361558 11.007350672275981 6.760393176860368
P 10.046443676658756 12.053171683491644 8.481662539360352
P 8.854465401765749 10.519342134301604 7.408072625294967
P 13.233250608070342 12.523632683538096 7.458454840074291
P 12.32830146175645 6.526147074401676 8.847076210636983
P 8.605503658133761 13.752441222995868 8.783626678406115
P 7.086532468805753 10.190618259677674 8.872695308269394
P 14.725281936501494 8.868236102927389 7.8515537505653015
P 10.009414609348461 9.097138490727176 8.665767074667796
P 14.321028699027941 7.061426055892161 8.99965920358862
P 8.004152308837055 8.098114038274785 8.892297119825749
P 12.126900817450512 10.814156525335788 10.133619313068017
P 7.810643640540175 13.30079368639785 10.82497370277336
P 10.027985960318281 11.001879484938764 10.991627395489836
P 11.274143288870373 13.639855561693782 7.5204355993047
P 14.598428512625677 12.245920834467324 9.397558866047012
P 15.150417565280351 10.070173760568885 9.713435592532491
P 10.44764149815575 14.994474428328381 9.162192310829402
P 7.713969819437817 11.044593135751697 10.816295133150417
P 13.50669005644837 11.993422734537745 11.384423679105465
P 11.199091651141682 14.287270266427685 11.147098954913302
P 10.075090048647777 9.393782502127149 12.628594958756045
P 9.695304709364594 12.963245916348805 12.046295793090822
P 8.410355543133315 6.93296907098756 10.798278287270518
P 13.649860486266773 9.719353696284733 11.327851710503374
P 10.422266513655112 7.612140318296312 11.382951128344544
P 7.997558638284547 9.420584424658959 13.44539101536101
P 11.362832583991164 8.215065676845876 14.399562655327642
P 10.653968405046072 16.16644139877593 12.265913007141219
P 10.129424218348927 8.518341497054122 16.05250368403696
P 7.167928867104544 7.525887545532985 12.495229558017495
P 12.951740379889161 15.346970235172778 14.489122173349234
P 10.513578131573707 6.432871795648382 13.302092907363912
P 10.714900145919735 15.42632781829042 14.402809041409562
P 8.334382386522382 6.259652806442552 13.95542007342752
P 8.142193274780135 8.069747939218558 15.27207842955464
P 12.73205805202487 16.86757730440793 12.856372882684761
P 11.93594806874858 17.250571077851255 14.912712942486772
