41
Energy = -212.29815096 eV
P 7.584013770629121 10.672642620458726 5.229436200598221
P 11.414913218302376 13.697186926089032 5.851367675085829
P 9.774574447202706 11.589747861904451 5.399336263952764
P 10.984490417526608 8.32442844989234 6.671312069061412
P 8.068930421542298 12.673745106123524 6.185062277150655
P 7.314662367096713 9.19139663341974 6.724653240136803
P 9.92647452683894 14.957122477862812 6.716025557390028
P 10.28295765924318 10.39487710757955 7.220037857650476
P 9.994869248100695 7.502294353467377 8.563987434002913
P 12.296884510754065 13.35425599298041 7.850672040702223
P 10.940287884664727 5.521095318829802 9.30288811334904
P 13.158931854245212 8.477282812748246 7.079593638045328
P 13.668418168666479 10.29966392214984 7.878504674190542
P 11.832238238315556 11.319678106953257 8.526360306990927
P 7.677063781788533 12.101890184965406 8.307843294143085
P 4.018826516445526 11.840763392421682 12.351866490905321
P 8.460705322744525 10.049303952754554 8.394227959083276
P 12.563279712774762 6.862622293078245 9.972425435931164
P 10.658475542738703 14.583947723942279 8.78818338575767
P 11.147046713898684 8.571980795804906 10.159873999937565
P 15.02845958759622 10.46336537770792 12.969335269083453
P 8.777817592599359 13.680844007122346 9.442353815198032
P 5.365767490006436 13.330599465118087 11.72731397738435
P 9.290367348231323 7.93770629933969 11.226508530525525
P 9.552827452391018 5.680467719547768 11.0859408702242
P 12.267910218388987 11.879310636258777 11.770620272211382
P 5.00660958907062 10.061663705922923 12.939699297807818
P 13.562163708051434 10.113160641837833 11.337651322798592
P 10.14891769107566 11.105658389809161 11.749546853566617
P 12.937031369056747 6.216230570573874 12.043015403461533
P 12.157757975432839 12.000845451478508 14.002541542354544
P 7.119404163013647 12.218281723888708 11.926116438080747
P 13.676873386086184 8.315022264016694 12.6022376573097
P 13.725283302535203 10.618686478104516 14.782363954479056
P 9.105549137412261 13.125842788875746 11.581918125202641
P 9.57710265694195 7.458873344708947 13.417198056201384
P 10.91514773675028 5.705397207094796 12.908330898132059
P 7.085153071957623 10.272778217951927 12.688349862973492
P 12.820667929235395 8.54645824305092 14.602293975903448
P 10.66367050690876 8.937256265837668 14.688295023327013
P 10.132638389351461 11.030789793939782 14.01987556532258
