41
Energy = -213.32635893 eV
P 10.282667170330633 13.226138236935274 5.822995725825475
P 12.17842812234371 12.134233192266471 5.288882587882616
P 13.245365724635818 13.811652402460654 6.430575851087673
P 11.253901719949978 14.71836188245821 7.208643516740197
P 9.47730919994781 8.454107234225564 7.32265592613059
P 12.317554954000066 10.31050090433365 6.559242559923774
P 9.086342460187957 11.809103198873856 7.071297071939383
P 13.564066423503453 13.02584717153947 8.45673017518558
P 7.592554280885933 9.216219238760294 8.251178924307558
P 13.96355962003108 10.94382514573769 7.945140195780418
P 10.383087344673608 7.099648878734133 8.866032653247395
P 10.53881176694244 10.361328391660084 7.938550743844571
P 11.34101977850851 13.391046773412867 9.01087883628054
P 8.953847346434676 13.123876892515986 8.864522283848595
P 6.7600543480285245 7.4347987217105755 9.329205525556484
P 13.732971303437889 7.706237662582287 9.285604309191054
P 11.712730047065172 14.804218636642059 10.724709632461384
P 8.537578901371244 6.1361522584957715 9.834044814397027
P 13.022824618785831 9.70572021357186 9.645807326086622
P 8.324470194417142 10.006644831835606 10.220401866138374
P 11.620122933522012 11.863552018327452 11.952368956494167
P 10.813181473747692 8.436881197604068 10.62125185161011
P 12.857037390727479 7.450078524532248 11.28410960502465
P 9.28198081463232 7.14371118192834 11.645007716533637
P 10.017645268937713 12.784542352781889 13.158499936462213
P 7.997245099465174 12.17049900087568 10.467205886114538
P 13.098792852071002 13.496388889527994 11.841454676217984
P 9.889693705044666 14.674957416599568 11.974293053818592
P 6.500598023053638 8.938036066966434 11.02934622541682
P 10.621901704444113 9.388318724672102 13.579352597898072
P 7.2777194007999295 5.974967168506753 13.178568692294432
P 13.870352909109506 9.372934846810274 11.728668512811801
P 9.449215805802798 5.759576516464111 13.37074973441791
P 7.667218586366104 8.114221210245187 12.73026614471725
P 9.769916276823754 10.33361728898941 15.323540761098696
P 10.994647275509184 15.757398040650521 13.632104821771321
P 12.93361360395086 14.637276273481538 13.77028044696714
P 12.62875450303218 10.437192080035596 13.357517966985062
P 11.171689941741171 13.833258905188432 14.818227194586548
P 10.407725789408154 7.436097666506064 14.709989091295794
P 8.782595806543242 8.497627250766767 15.670890091820953
