41
Energy = -211.72895638 eV
P 9.68860240115013 11.0144098754594 6.139442322556314
P 11.473549877290127 9.723699578417436 6.597159780315203
P 14.839824019920174 10.327670532312512 8.291933601902835
P 10.760873383199103 7.688513985875334 6.174950537060382
P 8.611174132551515 7.672298148917857 6.994164442772908
P 9.903276626753048 12.030767077025715 8.082765529206371
P 7.850478079501183 9.671572621821142 6.431651799781858
P 12.879065429241484 13.063231795459343 9.645825480985907
P 12.241231558970998 6.63037293169022 7.346301050563083
P 9.681763063694612 14.49822993204854 10.049551383856071
P 13.060132634884928 10.893696420329446 9.255744427638316
P 11.22276504123685 9.756316118274846 8.829052373093942
P 6.803215380043071 10.346403063328836 8.293130833611563
P 14.729433410397386 8.32499892335406 9.14125695980186
P 8.488359039284152 7.379991571925751 9.136895946272187
P 7.608756170279323 13.640394812076174 9.777033017607419
P 12.489814589570116 7.853017063283009 9.119476708946104
P 8.27881545633369 11.512552960815269 9.518048994418448
P 13.99823304830741 12.712536572309732 11.602616093407793
P 12.475918831253512 6.486932565845941 11.009207069067967
P 7.145088993904829 8.756260470766822 9.828933010997623
P 10.158324451166658 14.152837769824911 7.927261487707732
P 10.91976831072479 12.727906879063099 10.784544414647694
P 15.157384284215905 8.892442451469465 11.275625283625638
P 13.635730785204514 10.488444871161246 11.514721381113613
P 10.28207742890655 9.676977307009636 12.370278223469876
P 10.759052084750998 6.268388194646698 12.239837793797756
P 14.070694568848696 7.204900350327104 12.344479097959464
P 8.655382275793498 12.375987088185795 12.79854626740021
P 8.372069650362194 16.097777806734605 12.987689557803934
P 10.807166495463601 7.916549351315307 13.66496819650219
P 12.001845697626612 13.124302477901573 12.698191558987498
P 6.796140434693897 13.029258287354128 11.766467869513367
P 12.990798290467835 8.142774180599005 14.129605002736334
P 13.439723881301383 10.277092638724996 13.763200957526239
P 6.621318479948322 14.757892752794422 13.19068130842361
P 11.392980208817805 11.148008562793324 13.619964152609414
P 9.495413552636764 15.044533901298319 14.389280237353653
P 8.626274190593069 10.365013420472016 13.780015477973327
P 10.02065628512701 11.253958604196823 15.278121476479171
P 7.958304130927977 13.462562738134709 14.602855545850502
