41
Energy = -212.07403842 eV
P 8.759190831741167 9.25200019654694 6.082078568530127
P 10.665277151874568 8.300099370228804 5.244301511242226
P 11.16234153824157 11.863209974331703 5.71018027643313
P 11.494262370214416 9.883105270755173 6.491067459941552
P 8.963725233522828 11.55643866706298 6.036534267422459
P 7.962971150958868 8.30443252111368 9.251945042171972
P 10.822039371119507 7.167951719422444 7.198835091475035
P 9.843310019170248 9.19045186733795 8.086286722663601
P 13.51656021361131 9.673985148866699 7.273761418238863
P 6.868160730127016 11.401254058136349 8.984923525293745
P 10.878581941804354 6.688127203643 10.511312839501986
P 11.431253393287676 12.585658065047392 7.9133358406059635
P 12.795521211946296 7.6484249177334895 8.104816852925751
P 7.532424457600818 10.076772160260818 10.604518041712508
P 9.31275313855732 11.522679568579026 8.353855572965795
P 12.738252471654704 11.073816522155667 8.916899880439003
P 14.707434262003098 11.785743456828264 10.01638645596772
P 11.6511202213211 8.735021267226609 9.891520054006659
P 14.352496507188786 13.528209226765698 11.280504174641909
P 7.412879594368123 13.22758527214751 10.08706748276347
P 13.43292441266866 7.372957433706517 12.740712995547884
P 14.193793052029962 10.686113167215797 11.860524985706446
P 9.332667134241797 11.948552798600746 10.683790036655676
P 10.828945322527323 15.110566814218547 11.466612311763528
P 12.645145729987004 12.408158236514327 12.05627614129285
P 8.707762826154612 7.066001643848877 10.89760010849109
P 6.671020856642008 13.041661355253797 12.224419780363855
P 11.199713336878423 13.230930518085433 10.549232004703684
P 10.637980843155292 10.116499881952965 11.592644156765378
P 13.647568171914799 8.652749857194362 11.02267524634728
P 11.440252603512386 6.48421858014604 12.6605481937763
P 6.140547608212962 10.861696989868591 12.436430930172799
P 10.094167754946517 14.38513213748373 13.4016797173641
P 8.908720762064318 8.894287945924626 12.267225248236894
P 11.802045997057592 13.06565912031929 14.091992507928161
P 8.781251652668498 12.702352459555053 12.84955660268939
P 7.421630004999867 9.947020849709286 13.965644140779048
P 11.626523978036536 9.701358068564824 13.577706617391826
P 10.23240650347849 7.984485325805053 13.893781038849422
P 10.808209149829251 11.197829511883342 14.986548513387433
P 8.59467266688465 11.695307028162842 14.752773821048079
