41
Energy = -211.30736299 eV
P 12.881779588266136 10.180478748032922 5.07869915545601
P 11.937896390213453 12.844257142991097 6.818601771187345
P 10.823112196965125 9.65640000933106 5.63132916950085
P 7.201041860773316 11.975159881181503 8.078227541521883
P 11.231447027463537 14.815603163594693 7.144214707952101
P 8.498518720945057 10.209885970448955 7.924574010791202
P 14.211951832830033 9.560345453238327 6.717992055712728
P 11.474981832174787 8.137885052645686 7.237676409287531
P 10.49560759102425 11.042108996385572 7.369619365949122
P 13.498627769728207 7.513326274610832 6.83137346903909
P 13.528763470444842 12.447758131723747 8.32379096217352
P 13.60475954108344 10.28946493637248 8.7744323588992
P 10.081796682734998 12.763872636727957 9.885599177915662
P 7.042611335975036 9.721130023127936 10.937804933051137
P 11.479521336834068 9.547013065039986 8.925115197918414
P 10.519218448291545 6.442023242618425 8.446386462578358
P 8.123958636005009 13.615925366789758 9.332466250380989
P 11.24696708461969 14.580355503367256 9.288790222302064
P 5.95794226677841 11.407894981788889 9.916347749255404
P 9.228974373897216 9.647642421600063 9.976260151701767
P 6.995717529231114 13.01774368537012 11.19854631286439
P 11.598488887807742 7.279216002449005 10.159956027441675
P 10.423788998840196 15.8999681755444 10.764314921840304
P 12.079836372750037 7.3858698156683795 14.025343054670362
P 13.484574211280941 10.334976836058201 13.231527986739154
P 13.263788649587648 13.870180995514474 10.052889502152047
P 8.023978190186893 11.261112875780954 12.164115857831057
P 13.725193049335283 8.149796268296642 12.716603429558187
P 9.403613667393717 7.379531956808134 10.136950481479957
P 10.070171324089872 10.539206119643053 12.829890358158805
P 12.402419621312545 13.259547809653817 12.06168049075476
P 10.238557097344213 13.991280563221189 11.803274517326003
P 11.951152227164844 11.092001254471484 11.798259397134888
P 12.588980645741819 9.290627688032254 15.021112627189959
P 7.4788729802103315 11.402622769210348 14.323390366739696
P 14.12225005028608 7.686094125094953 14.87083598128939
P 7.180704013177597 9.184610446204456 14.61243016545976
P 11.888227176289925 10.01837932191051 16.86911072716355
P 9.635105163988111 11.798878552638405 14.67967113752319
P 8.693650301857716 8.546296721972887 15.827909490791596
P 9.8147836691114 10.34685882887376 16.34621785735195
