41
Energy = -212.50862799 eV
P 8.375939705934089 10.142109086330052 4.965391979130729
P 10.678578263453545 12.411347320302989 6.839243043539268
P 7.198721151688728 8.36799162289425 5.0867693064680335
P 13.683497069296314 10.596976356969023 6.421491049270534
P 12.267913043907807 11.346954923235531 7.87426622023251
P 7.3113249144665255 10.958535625353758 6.627126424461009
P 7.458205450843196 13.115957159271744 7.206673520674114
P 7.365450063797219 9.860059160188184 8.606664043462274
P 9.289011680993438 12.781336947239476 8.429179123562578
P 5.453954160342542 8.482078054577222 6.231319076014515
P 5.132199456804488 10.675619760496852 6.5292100040054075
P 13.407457724533018 12.58873905687312 9.440362630167254
P 14.308635923929732 8.857562257081275 7.491753656564358
P 15.110036770544617 9.03306784122423 9.61197871317574
P 5.314743894933621 10.81251006305911 8.774716602701089
P 9.224462038189067 14.829431969598689 9.459876353055249
P 5.898547462165262 12.968555768170793 8.858898617968508
P 11.643165473168075 9.748709421133682 9.321557236540281
P 8.66324164684211 11.1778798862388 9.890494414448463
P 10.639231122522572 7.352295693067578 13.142509566215317
P 13.546460442390782 10.447986068599281 10.289154122432171
P 10.95961422125209 14.844161584661567 10.915277466256239
P 11.565194010395565 12.73212436717425 10.631419464837256
P 10.252022991794073 10.205862546866925 12.593718024993201
P 12.48242557479406 7.928697616430708 8.355243414967516
P 7.879356676044215 14.386507799534508 11.183942909335023
P 7.007166809877756 12.400902986791923 10.696134421112012
P 13.704783275113222 7.44445971676673 10.161946829648487
P 9.132673977936896 8.824846051570107 13.906277493973795
P 12.193485932192635 9.143465760748715 13.339643731804555
P 13.635129286771212 10.763813618833288 12.51437305000212
P 9.608489999664386 14.19469281440512 12.641619098738047
P 12.412150610676791 12.629911991412639 12.694636313997403
P 10.365954434450458 12.171126799221998 13.598412846616462
P 10.850688667195353 6.744460541406607 15.261579046896005
P 13.993515394123591 7.6131361271065385 13.683086425443587
P 15.11790654860531 8.88426321562733 15.06640464500871
P 10.1713507861744 8.792176117337512 15.963147835421248
P 11.952880899685653 9.97719495437656 15.403025488569291
P 13.128934061682818 6.803141286924743 15.566500875199122
P 13.447658701904269 8.791510381978048 16.557135234172655
