41
Energy = -212.16929605 eV
P 9.797182773188377 4.825493045241204 8.06728888748454
P 11.440911771534854 4.777974145441041 9.596520913967415
P 10.712240980828893 6.764867528248889 7.233922030976444
P 12.67418722489226 5.988914665069854 8.101481387118133
P 5.6544945397742925 6.181898558121716 7.701146816305543
P 8.472981349509388 5.147334893697426 9.934392499477218
P 10.175725910462404 6.401687121421611 10.482748937216119
P 10.444741875806196 8.135037839213707 9.035086849139704
P 14.026862518415665 8.33275122112336 10.50217791081255
P 3.889352451783241 7.260249081663498 8.597662683354807
P 9.869027943812924 6.558795805161143 12.726802875599402
P 8.12115914516975 8.133886170132559 6.398134746718266
P 13.311294164623558 7.464586882715424 12.347650244035862
P 6.519755072418898 6.261875429110106 9.746123269601027
P 5.910399225250746 7.9863839045178 6.326185785765949
P 12.653591944386969 8.075949300103643 8.780011631399137
P 14.077437013900594 10.51207847305606 10.952920447994286
P 10.629271155085263 9.885448159824502 11.453183102823722
P 13.425591806456891 11.355831886342045 9.002415365604328
P 4.473645812041952 9.186838928438291 7.51627983280138
P 12.730535802231094 9.025192567794528 13.635966524718098
P 13.56328674639205 13.56777693498939 9.450606119816184
P 7.017403209555683 8.400950646227267 9.977375974467972
P 8.62969463520579 9.437106074603584 4.659383875437642
P 11.671559307099677 13.832428805069922 8.267766033651915
P 7.71112369380039 6.274156268472722 12.745714648687407
P 5.24248542883361 12.05246389822048 4.263723388573083
P 11.212058683483349 11.825750964152824 9.174938150951728
P 8.782383652614731 11.036228803838862 11.505198287703323
P 12.445253471281097 10.869986734174121 12.4011496428892
P 10.100162463672932 8.694624582935937 13.261805060384678
P 4.866329048654269 8.959753457609878 9.672571571746655
P 9.142297373214463 10.077188668956305 6.753880602487161
P 6.693989874487546 8.156403282818536 12.216294366700973
P 7.851872576336794 11.86025005995081 6.160248927218157
P 6.57114711631648 10.456214098702295 5.1598567254990515
P 4.332170860580314 12.382243599738251 6.288262765801303
P 11.565081058632833 13.638074562427864 10.459903166037604
P 8.074244397042582 9.683472732356911 13.078657620124586
P 6.25141507435475 12.940915168703324 7.317151842661872
P 5.631325395313288 13.95660959806045 5.413083034692232
