42
Energy = -216.92851857 eV
P 11.96479010432267 15.42313994511065 12.787507944086686
P 8.71903395068384 11.64330760044501 11.01983519724631
P 7.492407127606208 10.019956330961973 8.041421345055815
P 12.63781326460919 8.1412665525355 13.325366487281267
P 6.9144373375329 5.86163889957853 11.285577843913
P 9.566506808682963 10.623766187426442 8.417629647746603
P 8.56344840838836 11.368068603771128 13.243583311448987
P 7.525062508538224 13.430316895869126 11.050492021680308
P 10.447754148971844 13.211534057494887 11.055391030007744
P 10.131589906535716 5.99793481081203 11.248189571780795
P 12.701922993865658 13.568938649686238 13.652314625584925
P 14.3876179623903 10.768700510285415 9.398236584361209
P 10.827075062250575 9.174654512875282 9.446109342383393
P 10.199304583242807 10.603030229438131 14.530000257939744
P 14.861945645717833 8.704393779748225 8.683597328314466
P 11.984484438701065 6.299166457396489 8.603603359448664
P 12.6206239853038 13.869665482786818 11.446342657913746
P 10.073580825363038 7.120689018813573 9.348121069056731
P 12.10669217941651 6.191780199542203 12.230903195516989
P 10.282969704062245 13.975542140113562 8.98089208954575
P 10.336213960607802 10.128569858364347 6.31513325934802
P 8.475884645838285 6.7786898726803475 12.490630866375414
P 13.534645034367852 9.548307414592097 11.74130918480096
P 10.748013133239313 12.294769169048916 5.902594641824333
P 7.167302103747997 11.410600351957372 6.290306073487862
P 8.12751857615995 13.623095210179953 8.435613842603782
P 7.507485952019141 8.82009436851238 11.880541735058081
P 13.359917657104052 6.066472863218138 10.411692175330746
P 14.563795909670455 7.888991276290388 10.735129990203172
P 12.472680862125603 10.861602652723068 8.506258188662233
P 6.846959656211667 10.075337628423997 13.498677945403847
P 5.7681672538571425 7.6103843353248815 11.389949729374079
P 12.515667746585565 9.773904142617036 6.592448463287043
P 13.214508564356125 7.7655019240375145 7.363215184613205
P 10.675883466905614 9.090538920585812 12.959270185607279
P 6.57707806287991 11.994457572213257 8.432779440819946
P 9.183183584789143 14.682469410041689 12.120774764688612
P 11.473372518604906 10.223690217584124 11.24291349941009
P 8.903847828324697 13.478319005835377 14.012408797799127
P 11.8784792305952 12.963912620410591 7.807665865929065
P 10.91354740995725 12.747287678487575 14.760412134157193
P 8.654699953749347 13.083426700060556 6.223073178784023
