42
Energy = -218.51255787 eV
P 7.925419598548535 11.408673173860413 6.653041312120647
P 9.155536116205365 8.408669064628649 6.518845246820573
P 14.291100452582002 13.040501101312534 8.551642955211298
P 10.716712416823961 7.452225152346314 7.8214994243735
P 14.252403517268796 11.078997762572852 5.890170073515377
P 12.8608393548922 11.765064448327246 7.50382141255842
P 8.315194642606755 13.17372629434955 7.644381035481029
P 7.683984669123213 6.699615509721491 9.212147594537559
P 9.597809038189377 5.698686449205788 8.636104660894551
P 7.162157772214008 7.969433790234501 7.4336283475800595
P 15.577273411268868 11.689166607455888 9.862898678257764
P 8.324936727275988 9.770925919689255 8.081841266118886
P 7.880764788833085 13.226518841886922 9.765635444056464
P 14.531006233727732 9.218452836372991 6.743626798295449
P 11.440416376406917 12.86718053821039 10.476900300492108
P 12.97550000378218 14.32228940257298 9.798300689091665
P 9.597886582655375 14.185664287629537 10.841182359119566
P 14.649803952103547 9.650012174634297 9.968312212867525
P 13.143577487818899 9.70370650784639 8.400043470283924
P 10.640461098075455 8.820954451540613 9.570719705258892
P 10.036310455552162 6.056716159891293 10.859132557724877
P 14.356090356528735 14.578988239192787 11.55031769376139
P 11.959498970350058 7.221351912408544 10.508201027297272
P 12.927743154009441 14.714357834979621 13.15884852471257
P 5.7506394552567635 12.463564850966453 11.951473608708394
P 8.81803955720914 7.947376694333594 10.664162734702625
P 8.744273303962029 11.33623637537451 12.41595768179177
P 7.302820046304485 11.299720342553618 10.75845321316119
P 15.362683310774758 12.54388493052351 11.932253596920466
P 10.748141390970437 10.42383180160509 12.584577213736473
P 14.010009326590733 9.514540155523816 12.124830121355815
P 9.101464845030545 13.47749673030074 12.917353255644326
P 12.445229118705361 7.829377325190903 12.602338124539955
P 11.955485827941702 12.870546441810365 12.629758097900556
P 6.9105906783908795 13.947088377435243 13.15022496305725
P 7.545462945417004 10.338308506472442 13.926351373902163
P 10.936017691151145 11.156149037310449 14.716797584374445
P 13.704665521755706 11.52041714476259 13.013059945736611
P 10.319540469419815 8.337815664528673 13.281976385102102
P 8.989179961560383 10.520451944188673 15.638730847324098
P 6.11750598352316 12.09661422312139 14.132556789264413
P 10.556665347988035 8.975542951922089 15.428743631141664
