42
Energy = -215.547845 eV
P 10.895837604018388 9.678366753313181 7.7419768276684415
P 13.095734314934113 9.64359644741228 7.801586254199744
P 13.754750076607658 16.140164713021306 8.169103288231197
P 13.415644306220493 10.530336993611588 9.963835101776926
P 10.602396542469293 11.63894032848717 8.786104258783054
P 10.369260093692164 7.688458031880995 8.656958936549007
P 8.562535295744208 11.402388406217437 9.66952428706983
P 12.268773313282166 17.41106657884389 8.576818627341783
P 11.733258372402544 11.675474039473022 10.648257009204748
P 13.457037878936058 13.779743306196881 10.206610915759834
P 15.00010241382571 12.089731896745597 10.381362495152562
P 12.849119869903046 7.3120662234703975 11.603661970900372
P 13.602752587961872 7.571114469564327 8.085226952836416
P 9.336336416291186 14.744844601919745 11.375183911346738
P 12.150394298561888 6.682690917850145 9.443262720068791
P 14.627260074846632 15.823794557493459 10.423092231028688
P 8.857528366715727 12.618764246260616 11.491457496168536
P 8.590109238338234 7.733839587704745 10.098473515232536
P 8.888702008309957 9.708164176993971 11.102994913170104
P 14.371178650673487 8.762093990130765 10.961345599619548
P 13.017559627347039 17.29915616635637 10.769803681612224
P 10.530311710629842 11.455437428153218 12.718420319731031
P 15.290049697066724 11.627170569643914 12.583632776998785
P 9.407859319549358 6.772913997767853 11.890703101074838
P 13.02647198453518 11.77815102778888 13.377753771444207
P 10.916177221804345 8.330824041225029 11.94163846493353
P 15.284226874324562 9.508271007818717 12.81279608648011
P 13.108123374488564 13.978860652297865 12.35592284348024
P 7.034936143702134 9.9999492512442 12.236896083845465
P 7.0176858366381705 12.071620458475886 12.535543176016823
P 13.379923573977985 17.352840453284095 13.264045927657971
P 11.443058846671518 16.974008155437904 12.289365704869821
P 11.048673370769368 14.783997646598424 12.664001734106941
P 12.97770933883053 9.780397338037147 14.643571223323896
P 14.54195736894602 15.59011199616654 12.885043256787048
P 10.937137808286387 9.413770969388139 13.852305090885835
P 9.524091137186751 12.436231113281488 14.52877038957209
P 9.43730805437835 9.259057995370314 15.347475761164619
P 12.887005875101641 13.03259492165455 15.183389758592236
P 10.043535928386403 11.163574777471833 16.23751302010182
P 10.887076902453483 14.124623220006695 14.881649611113344
P 12.331706074595017 11.132094339342233 16.314218697500667
