42
Energy = -218.24040727 eV
P 11.863417218231161 15.464453364979509 7.3794242865858255
P 9.283866486435693 13.087402624515118 7.1080003904331015
P 10.770082230615863 9.669306946105545 7.970925257301311
P 10.880392222770462 11.508108704648913 6.619629508433167
P 12.734110028484015 12.468948738914156 7.176201700525225
P 10.307283275343002 14.444646517985388 8.520549892140334
P 7.0091486072163836 10.5821551946227 8.791180793122699
P 8.911375095781796 15.925815275962023 9.446894545464641
P 12.215331520324504 16.939921174014483 8.83998016468984
P 14.030397806975836 9.23905437145888 9.352646420816951
P 8.880307494478735 9.343646305591532 9.322204039494201
P 14.304701818840481 7.393631720073484 10.575126637044647
P 12.369862834125449 6.454208511033023 11.067370335785613
P 12.752888267078223 12.213509726599462 9.34412204249974
P 8.291191995153323 12.345894276732846 8.890392727784432
P 11.016731362818815 13.34602044373952 10.340824941450913
P 11.97692644551721 10.154197097952691 9.818893522663808
P 9.674833274748503 11.234923072175473 10.304839785491893
P 6.759587475506713 13.62022999583208 9.807457211400076
P 6.415150809625405 11.615867036396347 10.851614295765843
P 15.155217110968637 10.570461326637366 10.711064641210259
P 7.949798982037056 14.893606742046183 11.156106667605306
P 10.746187304010837 16.760053897228914 10.467805846394286
P 13.187237061601449 5.382011112847888 12.839803709775527
P 15.271997601032462 8.065360456699667 12.551934425698981
P 14.707690456975403 12.592345289202125 10.085472379750382
P 9.669779548211968 6.164625645027119 12.737100734420824
P 10.943351021772335 7.895428088949203 11.982297304860253
P 11.560635052614309 11.61704295241868 13.072283319066067
P 11.141638287627181 5.23085983783411 14.096289935999563
P 11.783907069172239 15.047080145313712 11.525034629285393
P 13.926618610644969 7.093166407431324 14.006989144106429
P 8.326506760492707 11.317979775452697 12.030640383149118
P 8.70471222895424 13.251900247659464 13.121540770399834
P 14.819475346739585 10.190444985783385 12.919483146290215
P 8.967437098739666 6.805269896590466 14.726494295903155
P 12.052565887119771 8.261150249753033 13.858112035497061
P 11.68679630768841 13.339423492339591 14.481058607682876
P 10.427248909654535 14.712309021395038 13.237823939082496
P 9.988846169815764 11.913008820151582 14.605960571180985
P 12.928348831976798 10.267063945756764 14.204112219267971
P 11.01110977927165 6.98215826134236 15.459004491673616
