42
Energy = -216.16845961 eV
P 10.702108165481397 12.270002327692032 6.85418393363189
P 11.057167023411507 7.60938649072365 8.422766494704709
P 11.800083225906635 14.13709895278237 7.337126370895061
P 13.753242333544511 13.378210914853264 8.073689104248649
P 11.209619718322541 10.615123776074805 8.32141437614178
P 8.732344015751329 12.381171738927039 7.942236251002249
P 14.408104589997585 9.50108686432307 8.498631847521981
P 8.552372146549972 14.529166697137141 8.601149930308782
P 13.291990102064968 7.536332591700565 8.739052751898022
P 10.564159542859556 15.535783742677705 8.613826387000715
P 13.175051161724593 11.368760180094165 9.170453824264724
P 10.298437089804324 6.101776465406664 9.91367542285302
P 6.439162946443222 7.543107446705338 10.569074125693966
P 14.492794432138982 14.602073431714786 9.66824550170126
P 7.681167724419936 6.223312769641585 11.59825764014482
P 8.424747885488483 9.332875654652389 9.657173218960764
P 9.624253894915192 11.323174734917249 9.707072414912053
P 14.98385859721526 10.762954435578035 10.309179289736504
P 7.945494780660243 14.19130553809455 10.697882079341005
P 12.964315492016674 14.792172337991973 11.21547576524712
P 10.24904022765547 8.286555693083171 10.342251648800094
P 12.022515699519342 5.62133104227446 11.318315506886412
P 13.72836306388574 7.001392010499198 10.822994619483593
P 13.748852131432718 12.314172731496116 12.766042685028006
P 7.232197963556436 9.416375077847732 11.568667552068007
P 14.642833717576632 10.207787337731213 12.452501219353625
P 8.0527462452858 7.888981495561926 12.982301908502652
P 12.259663562037586 12.681646200916651 11.182529568969466
P 11.106183634630217 15.926838303544573 10.715636177480443
P 6.784678210778003 16.01261356198466 11.132695049618448
P 11.408482090237746 9.722717997466756 12.422276630422058
P 13.221263813563619 8.48476704420649 12.382248412234777
P 9.723150477645683 14.59352206831751 11.972602596115564
P 10.185695664397718 8.26051887058171 13.489292530401867
P 11.443397273606934 6.2602352544587525 13.439634112373016
P 10.508197673971058 12.569756561956845 12.546124955931536
P 12.016616338130836 12.547405576835704 14.239259292438376
P 7.396482731792139 16.575059523871612 13.024865824086
P 13.271779058265508 7.180756911221741 14.098851444198703
P 9.073625961519102 15.501431973811528 13.790332080736892
P 12.068864933691861 10.285217917381877 14.537424779870701
P 10.200112596573842 9.371257691731955 15.307802613261238
