42
Energy = -215.86126392 eV
P 9.1013719369939 11.387015352671124 7.422923719925852
P 8.918053973433185 13.221362991760648 6.200812026080669
P 11.544416330195741 9.152333741911143 6.560460144021966
P 12.305042139715932 13.783930563776497 6.167972805772125
P 13.2651591619373 10.263858883248432 7.309358409384806
P 9.326224118851943 15.047757776122657 7.416942514809061
P 11.541245507544597 15.486111925246737 7.2970630406184185
P 8.469083668934179 8.25409800893519 8.376900712013954
P 10.660470095698308 8.677559776192268 8.451640740389655
P 12.51256347667874 12.427983268945994 7.781531878951264
P 7.395054518531612 12.782642548224231 7.890324983648438
P 11.28313652621703 10.234767728792946 9.995175755677423
P 13.675520356095129 13.572995761656749 9.407829657370133
P 10.973286455475316 6.803985798010779 9.59334607050861
P 10.617508063338011 12.03836127367838 8.869077951011672
P 13.379507849969048 9.912379715851868 9.464219761351773
P 12.393842492052299 15.409203767462506 9.396668665894115
P 8.215871981595573 14.380386941703017 9.23207637516588
P 7.85036810044355 8.961046295904096 10.400861597725958
P 8.776113987251291 6.951969025257171 10.23642310397424
P 12.7783435608733 7.036031483222012 10.905806501888554
P 12.717788232110681 8.71642662288865 12.331640260077616
P 9.495301100524676 13.145104395814377 10.574096150268975
P 8.161534949721602 13.46326552018059 12.624490713131332
P 12.377348761296306 5.788098507816972 12.77484935230005
P 7.210708295836389 11.47538895300333 12.383178673463645
P 12.310697586858192 11.49547310178948 11.928642788676012
P 14.249383928549566 10.40633004339749 12.226860039685707
P 12.91749161503874 13.618370530388786 11.55032378618228
P 9.12757999184107 10.451234890364299 11.455617773146672
P 11.021925012810662 14.736064980893753 11.105698830985355
P 8.782187448995472 7.113531218277571 13.46030065390819
P 13.526637570844695 7.465173959747382 13.928039226249576
P 10.625950819595847 6.2227781156118045 14.187064426575319
P 9.584574220295103 12.307983033623225 13.75962638345409
P 14.199809446660172 10.661211862841453 14.449049965528692
P 8.01384455090535 10.841174436293693 14.394743016984405
P 9.28515778132502 9.172517890765853 13.484612002012325
P 12.169582017701302 11.275404476628085 14.158836581767918
P 10.780242211376146 9.613254867539313 15.045513463016565
P 11.195224826386786 13.079373054642089 14.909635786332322
P 11.786132952006916 7.687344531424651 15.411051332575886
