42
Energy = -217.12046321 eV
P 10.61348746904312 9.271183301724157 5.158276778230135
P 9.421784632326291 7.4963274728385265 5.84052886823127
P 10.17856990513827 10.786467213006013 6.683014269027397
P 8.134140174592757 10.438387378836216 7.247425075143229
P 7.93945773760867 8.257487060650432 7.300906265114326
P 12.391842575144166 8.435017013143405 6.659937047431829
P 11.193361775875283 6.623153263491181 6.9712463116882
P 8.4208558073811 15.607024488641892 9.960624190754793
P 14.392064457892674 7.779324944164461 7.3286479112782565
P 8.590876859678493 15.575375636078206 12.168627257754848
P 14.112331472083373 8.157694512997802 9.416576858054414
P 11.899922853062348 10.017857066313102 8.055615429975745
P 11.79293875637433 15.577389973817676 11.156320319773979
P 9.204675514154335 9.913837789128799 9.881762791501446
P 9.218710639305185 13.592964741310881 9.291445001885
P 8.729132335588707 7.749169442282563 9.389903166206512
P 10.742267702255974 6.757414618551565 9.180653400194618
P 11.350753857005765 13.731297826723015 9.977218324534409
P 6.786638858992206 14.73088789473888 11.243962967005336
P 15.053575569179376 9.888956013387684 10.748116755155692
P 11.942142164104238 8.577237642310829 9.731347385080669
P 14.087949503279663 11.829094351666868 10.137281596139136
P 10.299679105888433 9.386212119419763 11.818311000184366
P 12.901047962278847 14.21011831124261 12.375163215109765
P 14.828344088861774 13.227666104059583 11.763148314170166
P 7.257374159063517 10.683232973330659 10.780720992555015
P 11.404339687590623 12.631914780652872 12.051514913200613
P 8.066039693065319 12.812046233785317 11.057724579034167
P 12.243496687443939 10.852294979835515 11.009510763435735
P 13.397806475593127 9.454407115396725 12.254275185802687
P 7.589059357127835 8.161658249618847 13.716258670083327
P 9.53652236300668 7.553978399606382 12.828992959255894
P 7.170208896077274 10.301960776194239 13.058426498209563
P 9.243422574525331 13.336753510195479 12.838899020705243
P 13.801332327832535 10.55629611298423 14.198800677700026
P 13.547579869645464 14.123022502691839 14.583901074407853
P 9.497852393559803 8.228543607401855 14.946987994325404
P 14.962743410732575 12.441552641609567 13.865060751601057
P 11.943789794232428 13.212569539033362 15.668439476236568
P 9.245359036521165 10.86353055076416 13.096321239655639
P 11.80456533411295 11.551755621927125 14.3078217872678
P 9.920636068862828 10.47561613053547 15.108962822987973
