42
Energy = -214.97298733 eV
P 11.991291517636714 12.793266100948582 5.60767322586706
P 11.581731267758078 9.193109636897928 5.271759834412529
P 10.938956760652301 12.199420187201959 7.450863034738339
P 10.884564833782747 7.913839004563728 6.739529893936232
P 12.457371667929499 10.760047160757239 6.506843931691456
P 9.185541129760008 10.571950804693847 7.641085957710927
P 13.011662805878757 13.15891211842227 7.594324712923265
P 9.505998192541938 14.101459626767472 7.7584888925335145
P 13.432351012689562 6.9528207659527315 9.725137872478212
P 10.766487187375692 9.172953047860986 8.568093242443906
P 9.68661945104696 7.532800978603436 9.656025097443097
P 7.9822353857919355 11.350644274919063 9.286772272781722
P 12.788398085551952 15.155334831580337 8.501948003516098
P 13.863991938057241 10.974076690336668 10.303597291078697
P 15.0141011197415 12.903391670954504 10.048544058564673
P 10.590856431879233 15.541135951090114 9.035311931488334
P 11.690570143733384 12.928552099502939 10.727225499637964
P 13.364078249739448 14.401886887628413 10.57632448010577
P 11.514575731407477 6.475760617398758 10.641591791440383
P 14.514077161699769 8.485825283483331 10.755476740722075
P 15.29089535365372 11.612237978218749 11.850645249299781
P 8.405825715380706 13.631110354261986 9.592459015327693
P 10.05050540890851 14.43963818399393 10.956210055620767
P 9.28839071479582 10.484232979055099 10.864197788426555
P 11.79346929743027 7.335875338130645 12.663220835638011
P 8.458659696159772 8.44978148383485 11.269131756032207
P 12.915988717229313 9.169387843368192 12.125030978591557
P 11.478318107794937 12.117089338373136 12.794486230161137
P 6.86438455291243 12.24003377764533 13.669571205385395
P 13.793116569238444 13.702939085977356 14.489480272281611
P 10.087569312078388 8.732408904052642 12.914582469505854
P 13.68932003995506 11.950254551313776 13.328622518747853
P 7.562020724952615 10.171898576385168 13.922965076567891
P 8.941131086090648 11.619817148259461 12.908929762848805
P 11.59604439912601 13.598565228670019 14.615786228852905
P 13.577429022480988 9.828022269336907 14.210563700855552
P 8.681239248294633 13.160141253593094 14.610324458939127
P 11.464496791681237 10.392845914067676 14.749162027342999
P 8.417640314314916 9.910886947244816 15.939685779388116
P 10.168142400954762 8.654231029347162 15.231754320497801
P 9.123348357936504 12.01213553652281 16.432396941817004
P 11.401533978412933 12.03420842321976 16.279105446793768
