43
Energy = -222.6476865 eV
P 10.793705593100846 11.772110589520786 6.125496441472626
P 10.980102409483607 8.212007554026467 5.874115833823333
P 11.379895465582422 9.934066756939632 7.167389065416223
P 8.605734710610955 11.901888860998303 6.776160433731012
P 11.682660621210452 12.91742366806724 7.828020588660615
P 8.840787926885172 7.976426238374343 6.57888660147399
P 13.644907816039145 10.164343840459212 7.18760855086725
P 7.703810812059954 9.86404786558268 7.042254341465402
P 13.852399350849403 12.414314274715728 7.4620799746096536
P 11.46001864104232 6.699439879767578 7.530022315019776
P 8.785511224082525 10.842826252564604 8.721678907296106
P 9.382050268887381 6.850846012037652 8.476151950322043
P 6.899055582026176 13.518365343402442 10.254585378245247
P 11.771252580800372 11.66238193697431 9.768154660764939
P 8.89673136988083 14.374606878770571 10.455631142036324
P 13.091279640368192 9.762130268226985 9.270413439915858
P 12.273146889026188 7.685814034998927 9.41779028286628
P 7.290519884960433 11.399596721885723 10.345441852678816
P 9.883924882033106 13.127834897973393 12.075873017308838
P 10.200600600282971 8.31810252077282 10.01582828499215
P 13.673267284158882 12.807434699389654 9.692446379112033
P 14.984810125488591 11.722881735248341 11.16807145822802
P 13.769561569560942 8.232637994293603 12.3053209040006
P 14.832324097943543 9.56630546673626 10.615157270715429
P 10.530639239207327 16.759078209267486 12.182191628228487
P 9.18885073035976 11.109088067698332 11.556803343781207
P 10.01614724553925 7.1402867783721495 11.917246037624317
P 8.480820175289336 15.906872834898369 12.065372894247567
P 10.9948696931014 12.783458477846851 14.629971971210491
P 14.393308989478442 9.927972550300655 13.591749697743904
P 13.143701591715818 13.06568010528489 14.048827721679325
P 8.271905083111834 7.993554856170579 12.867863079882857
P 11.671386304052264 8.044167689682213 13.118053528448154
P 13.099724099240122 11.429677348239174 12.534221171885038
P 11.429405527900093 16.130602496899215 13.90181229558759
P 8.76083699145132 10.02547215816646 13.50109064032795
P 8.499037548620935 14.185086565626458 13.482585852329098
P 10.970558086078636 10.054321886693865 13.74989009280576
P 13.644796590318004 9.792760046562334 15.650180935090182
P 13.748256680675224 12.010294156182376 16.007199931076286
P 10.036172995943284 14.784678140386445 14.99622773976193
P 11.544820793472812 11.89529843054474 16.62308331196649
P 11.376465918450572 9.713578539821475 15.900812681671951
