43
Energy = -221.82508745 eV
P 15.323970886083094 16.499704797580737 8.52874897012321
P 15.369585244319683 17.329612260305097 10.69357625442911
P 14.90395713891118 15.624716161698476 11.970781021357146
P 14.81918592528265 14.380039286893256 8.737310985924818
P 15.545395642806266 13.908686246549369 10.761839445622567
P 13.190312464319023 15.83761227796993 8.85827115595787
P 13.236229641895907 16.65508866276508 10.994015946433972
P 11.627489010810704 14.394731439777786 13.531965431743785
P 13.903165942445785 10.731147826247899 8.493772964781602
P 12.243586692154546 12.88252986776807 10.698034259404059
P 10.474250077089875 12.723375733937317 8.330470232996543
P 11.931773299368052 11.228202495472566 9.243041186830297
P 14.179165249904392 12.349082647009547 11.634296760805807
P 14.522592287602485 10.144443685551222 13.821047645798803
P 9.63772970772042 12.032633712246042 6.404499610363307
P 10.930491165990484 13.489865649951076 15.372677923659616
P 10.215341794923974 9.940509329083094 6.048660817310701
P 8.775668552506843 12.963268511122152 11.61097762286888
P 14.910935352824621 10.675533190145915 10.382060904772707
P 8.546927299081444 12.644288138265566 9.438797504207786
P 10.865179233689574 12.723499411148868 12.44382511738053
P 6.9975412157210215 6.873138594355194 11.744854611783595
P 6.652946476647771 7.889950282991643 13.689640917009505
P 8.713706169965006 8.205203302856598 14.586758083893836
P 9.23407680033551 7.035779351843612 11.838128649682949
P 9.919528519545374 6.5277712050018915 13.840640261545436
P 6.037465073571957 8.75792853476676 10.87662564843709
P 6.222914523168127 9.921694712315208 12.767324515606232
P 11.53243857358134 11.31658849743906 15.776300694667857
P 10.175980151932013 6.448059257742675 10.026305454494226
P 9.527658383440908 9.067602885004437 12.731133121964305
P 7.8281748680543455 9.197707682137077 8.1292807229311
P 10.775945576828061 9.424637671317486 9.887804421334158
P 12.674211456566114 7.7836615450277735 12.173101668618331
P 12.531648263368398 9.612324587560252 14.602113872395615
P 8.021575627872588 10.502442485661913 6.299605019198277
P 9.865938468538133 11.736536720800908 14.499839059689595
P 9.982983234308437 8.669924417893105 7.940558676915659
P 8.157714965796927 10.723605382809112 11.826983482733278
P 12.077724600040572 7.621172577773777 10.020434874516969
P 7.291746707355075 10.551515542108014 9.810557060438391
P 11.648763676157063 9.69067293960623 12.56725735944325
P 14.617681244835097 8.92480767885977 12.00737724728838
