43
Energy = -221.31653487 eV
P 11.617087344786775 8.265666035412753 5.298482952068629
P 14.293615516689544 9.704743438696584 6.872877178480745
P 12.38576296871841 10.246132444007714 5.773399413991867
P 10.333479708781924 12.872156785144396 7.413713441200111
P 12.093704951549823 6.97835734646351 6.978725118466169
P 9.939609960598265 9.479389225819018 8.53022664928618
P 14.192632873433617 7.526573234497094 6.8162635652724495
P 8.263148169896683 12.50182284605346 7.754643239090904
P 10.943380561693084 14.089171190385294 9.25086146130418
P 11.438818095193586 10.8738128313203 7.701133677508073
P 13.38058206621848 10.419749734062671 8.80987751581849
P 11.25011162772661 7.731850290139653 8.94761654696266
P 11.643097138112443 16.077664062025214 9.048651783405408
P 7.707033635834252 12.498445898447454 9.864285405159114
P 12.444473982554523 14.934484353849376 10.705838459876182
P 13.004482877171677 8.591456008247706 10.016660959536063
P 14.722765950951384 12.081987677100502 9.317607592253058
P 9.203753274228154 13.88117129398338 10.706279549364409
P 14.37115316547279 13.183477860384338 11.055162284267341
P 10.328832006261841 10.620158259620897 10.481315115040214
P 8.187160590264773 10.615613542026285 11.177670420489576
P 11.33135996744266 7.5622043611418075 12.595612412222032
P 11.890045896736773 9.562155244816866 11.673616340495702
P 13.063344448005015 12.284064446861693 12.65406708534555
P 13.273440228257554 7.645312995682383 13.738389475858563
P 9.932360180445656 8.426540066251954 14.043306988401032
P 14.361062398755525 11.174756733740782 14.27534930442791
P 10.22071156509115 12.701780344198623 12.334310140549537
P 8.213103949215967 15.69202767109014 11.324980556487512
P 11.733553956964656 16.268561217829948 12.412694085927008
P 8.115412912074758 12.0913558703965 12.900459912980766
P 13.70941140600638 13.892419514848621 14.076770712448543
P 10.898766707456927 10.452734651812687 14.33457293615071
P 13.03023336088909 9.515044343287247 14.865267286764368
P 13.474369388322888 12.544184114408315 15.849743852574962
P 9.51578869643725 16.21579573645712 12.910733780006662
P 10.143108512641103 14.218389703189137 13.948408369992634
P 10.515124830251604 7.430443225125943 15.922974230108407
P 12.024950083451243 15.290314819353732 14.390016914095769
P 8.666202376099127 11.148662154270507 14.814178941544057
P 12.598805756371267 7.315252409472653 15.84881297946917
P 11.345510848761519 11.707788025371707 16.133990765116774
P 9.526529824282713 13.014211752803018 15.758334360289409
