43
Energy = -222.16802114 eV
P 10.842753569289178 14.806104195065258 7.209488918371485
P 9.851607171366625 13.094805256315354 6.247040700970199
P 10.620172160134874 9.610033116489102 6.305361668702384
P 10.026480977238748 11.255466361472473 7.670539104923066
P 12.63526331283842 13.925903822904779 8.304174767262896
P 9.776530720853536 14.99887352200704 9.239932790068021
P 7.751086095959757 13.406144610091621 6.861686744115991
P 12.880842562731196 9.71601119364514 6.456710559984133
P 10.221943083187615 7.896510349376971 7.67437453854902
P 12.970253886502597 11.686878539120054 7.943724879325609
P 7.770887131879905 11.188979465410823 7.440062297326391
P 13.549477264646006 8.160164708655179 7.713992468710802
P 7.871075442867345 13.839981376707748 9.109730784391049
P 11.158378159219465 13.391230906175723 9.890794958096693
P 9.168540272772875 6.556292906819687 10.014138149378008
P 8.604056076019049 8.595629422805866 9.074921333474611
P 15.246743593862211 11.769292352671732 7.979607434110805
P 11.430515075875388 6.384701437418915 10.099211764407833
P 11.858339013844212 8.34430869563997 9.10540280997231
P 7.7563302434529735 11.679644711588338 9.670126492027109
P 13.310638085135908 11.13898985195436 10.136286249670114
P 9.68661562589802 10.40194814850988 9.849249475656652
P 15.267959483857702 10.222848089605451 9.574703835559474
P 11.530707739353263 6.784976618912098 12.334917457330366
P 11.946728722809656 14.166541210432518 11.81538764762724
P 6.9069773161069685 9.104639744122188 12.039070618798856
P 9.317249965461357 6.233322252993342 12.23673995211368
P 15.23177456961856 12.366271469719265 10.143390391639075
P 9.262261178354166 12.096128943720945 13.42300338730113
P 8.452369408480322 13.538268763454498 12.062792762305541
P 11.286370038017477 8.991869827414172 12.621401965792728
P 11.550048944438418 12.269207735329024 12.9061599310027
P 13.505474819130187 9.430516771742854 12.638524729575984
P 8.175728933921363 7.865307304550163 13.163992787077822
P 10.038334337941844 15.015085641777722 12.65339429322961
P 5.8486004168895676 9.990288283020808 13.623178853138361
P 13.672470058310207 8.56645976421161 14.790658130062955
P 13.392640849882413 11.351869168786285 13.76992395498109
P 10.563309382644233 13.610502103277307 14.420124835413782
P 6.494341315302782 9.232325159118968 15.50036525854335
P 11.441428681374182 8.609970087291368 14.855302834353312
P 12.579267010750899 10.366522609246061 15.600043806209335
P 7.970571374007933 7.762327572658172 15.253507750679567
