43
Energy = -222.95426539 eV
P 12.93213229151267 10.11311680773879 5.526280124107865
P 14.473340900958567 10.322945813634172 7.03743705825474
P 14.262950210600703 8.543268118465205 8.380376004397048
P 11.239406167118965 9.223482080203746 6.514843943542383
P 11.826105580262853 12.442657808933099 7.404225687951226
P 12.167329313776335 7.805206841150301 7.947277815822925
P 10.945989723923226 14.1248438724318 8.528703039430088
P 13.554783460826846 11.585533888514268 8.69489342355684
P 10.234534417401202 10.963215185475141 7.730905207002062
P 14.482518336375676 10.002636139635081 10.069387589756365
P 7.721921309814109 12.669929747943197 9.479387103184218
P 12.959246900985491 14.989346111395502 9.115768992699687
P 14.649370853015503 13.474072991412106 9.220562497325906
P 10.682856587761368 8.151934914699602 9.594934332372352
P 9.838833359742482 13.123775294988803 10.230042653745732
P 7.509600850972131 10.939199511004148 10.85103431131632
P 12.57889138551154 12.593788535320384 11.581517145594384
P 12.949461803424837 9.80450714378391 11.601327900498319
P 10.975297247195131 10.340142313018838 9.738515023585867
P 14.582666443637399 15.024258850210343 12.29701843872042
P 11.742677245491963 7.863648568505221 11.525177029159464
P 8.923866809610399 14.414934881241766 11.763396630279457
P 9.971106345155302 8.758743747742988 12.611432944352227
P 12.613670104762061 14.897514442296334 11.300346021219914
P 11.269963995893402 16.36334684885106 11.945251613289054
P 7.057855638165647 13.007669611544511 11.59010511932749
P 10.337629560468406 13.66222957673523 13.396486838159065
P 9.669867484628496 10.782322009564338 11.489116310756359
P 14.799041731517486 12.917495476202367 11.441820803599082
P 13.52901492879756 14.517003874183398 14.23095386140957
P 14.329421852877031 9.273786490695409 13.288168874643821
P 11.371365787519816 15.537247184034795 13.99773423336399
P 12.575969836728925 12.506001389870434 13.810979014552526
P 14.22504451202685 11.08624320725593 14.58856710171622
P 11.140154160867032 10.31780231387518 13.776042389116533
P 9.225767476414418 13.07843257519073 15.26727475109896
P 9.527877676175065 10.765613029879825 15.26732804655508
P 12.829070554430507 9.381168061429685 14.96276206636511
P 10.503904368549865 14.16970052990311 16.722190750581717
P 11.916440437296925 12.53994948882356 16.732451993912946
P 12.467281540334591 9.841518376914347 17.84925596127853
P 10.606043511743103 10.914208437760273 17.23858137508353
P 13.344540067033728 11.71037067884576 18.204950748621066
