43
Energy = -221.4175978 eV
P 9.741006461130679 10.517244207757757 6.6623391205260205
P 10.629125051752059 8.461936930769848 6.472953020810692
P 11.506785216380594 11.761156247759606 7.250059782107863
P 13.626513984455613 11.76563953235178 6.387955336738634
P 6.9612059713911245 10.312556003068641 8.338675008963843
P 9.483495409521554 6.9387339643668025 7.822964660229401
P 14.078284951843699 13.882920505044938 6.729063809463363
P 14.679557667390565 10.664362974700135 8.009202853703371
P 5.849792292923777 11.336781206901513 10.041194863456898
P 9.100963300858403 10.1116934035249 8.810470293091443
P 10.659099959138768 13.77918290776751 7.6518135954306405
P 6.208716392255834 8.374066702072579 9.222996346110198
P 10.314084953986487 13.508268920947632 9.903645829197133
P 12.103857065768107 8.576331596137347 8.179559711149428
P 7.948313891422643 7.009881511296235 9.49223863489528
P 12.695383266554957 14.594454625519374 8.197773361439431
P 11.335332789595762 6.705433825425327 9.136593638690904
P 10.2278815841369 11.344261581828215 10.204545586200933
P 15.091385119550258 12.427106917992763 9.872436765455628
P 14.213831980944542 8.555746092175362 7.885819661259452
P 12.186696613756169 10.951874853203357 9.229687738847996
P 5.5554836275483455 9.402870835062835 11.242532465063992
P 11.066547982012443 8.109796567616145 10.869938424142047
P 14.63119840636497 11.786901306109227 12.042847092440754
P 13.04767808484332 10.130143566016708 11.792651294018588
P 8.86050603318776 8.248623897788477 11.132522365325999
P 13.004809352244443 13.078309579634624 9.852227361847536
P 11.442194906219251 10.874825237182502 13.08762145370725
P 7.597022366617068 11.878339989470865 11.26416223369526
P 8.371528721938105 13.963530458951162 10.988502150069676
P 13.288896381706325 13.595830816323975 11.991410018655232
P 11.536404996440638 7.216563777987209 12.860646992708093
P 6.777294159943013 9.665463648678745 13.15603525260748
P 9.063311461409517 10.20512418440812 12.750743748500248
P 13.287329554422316 8.545896741131124 13.410238229387993
P 8.24097527096548 7.0929209915147515 12.904345607087
P 9.452491384010742 13.865685011713252 13.024375464576027
P 9.81755456227599 8.291752544405606 13.837994165952177
P 6.600564307304432 11.978302756000161 13.221766449617695
P 11.556688995254126 13.029497438198385 13.354091126688772
P 12.173762192372823 9.84212712249722 14.964994991323106
P 8.653633808710383 12.065767501258737 14.119032926775422
P 10.518788132204248 8.73807013019291 15.815309180794719
