43
Energy = -222.1451491 eV
P 12.003159704083924 8.68977358537234 6.169081935621947
P 13.623931223809757 10.145638466630105 6.553972633188593
P 7.616283084448201 11.83671408269142 5.745575848368884
P 12.701603382770042 11.978281230424525 5.743004374698906
P 12.374713620300913 13.540264111480052 7.209949583978931
P 10.091980451629015 11.633260129311008 5.505436801430272
P 9.943661581535336 9.556608734411542 6.225164548135882
P 7.979467855845629 13.91289271140218 6.51850888337272
P 9.988917402697053 13.054772750533447 7.1891535197428
P 14.110424216698643 9.876277278443201 8.742311477731576
P 12.199230931298922 7.129744170648994 7.6447046243657635
P 6.973206247290526 10.679141112177383 7.545441464418901
P 9.007466965998145 10.058843375035368 8.184755502703155
P 12.52845619528919 8.421911593339125 9.312586388019184
P 12.123680244149964 12.903479381381077 9.288631618997352
P 7.3590414839102865 12.351087394497169 9.0508605802725
P 8.924807403552833 8.247228097664415 9.474434293875813
P 13.841095828408264 11.75159557327214 9.921687763457232
P 5.5845301656525965 9.787861427213903 10.73797808803138
P 6.822854396792375 14.245924024607115 8.31869404783295
P 13.379449921586096 7.027995271642424 10.833552963098201
P 7.246588425564836 8.43039937009832 11.055204634057418
P 12.799997669117129 10.66782705644087 11.676255018665872
P 9.696943661215883 12.027413646669828 9.157193336578676
P 6.278627727512 11.829493120824077 10.92763947891759
P 10.669161025099651 9.035999482767618 10.63475763433385
P 11.255381938454896 7.109147005094737 11.674710103320141
P 14.29939342688985 8.005879492254222 12.706650173962574
P 14.577834994135035 10.267198379230095 12.991155767724745
P 10.785279554539787 14.27967776606943 14.882272486486492
P 12.562710229803836 13.310384390548892 14.090317888136196
P 12.182925094715749 8.473071397668193 13.185130089385398
P 9.76997854245819 11.525236970406894 13.326403287637872
P 7.5264601894351175 11.628836464298534 12.793922686032143
P 7.486486518980542 9.410256712675501 13.011407161742735
P 9.768085529095625 9.36689939803955 13.50347162953327
P 9.583778814161827 12.542991804180986 15.323585471757063
P 13.95678641111228 9.939600988124868 15.156794038436384
P 12.92881887891497 11.857603941152012 15.735326234774073
P 12.316194276105316 8.283458554368474 15.385578368900996
P 11.567827538525318 12.450522009478933 12.331102028325418
P 10.307790485899444 9.201603527964409 15.712295154736578
P 10.925554182085461 11.197771441035563 16.493907806781394
