44
Energy = -227.60518342 eV
P 13.433678936085716 11.128399445910249 13.254555939158603
P 10.05012224670094 10.935747815047643 14.318783139626165
P 13.921409936110592 10.218612260589804 11.261274984759993
P 11.559606289474521 9.952082067122703 13.018686595429866
P 13.648818885597732 12.439753174328748 11.483408273408504
P 8.41377827211583 9.197396749868673 14.490818077820645
P 11.652270649493204 12.28698677455568 10.44363004830687
P 11.533396788239942 6.798800087678121 11.803094452317898
P 8.658011780811178 12.309417189735486 13.27053232971247
P 13.29917130776746 8.949609955829992 7.517661473119547
P 8.623220630514075 7.221698397769447 13.510695549557196
P 7.437165936935257 10.391223453752163 12.954225088748265
P 11.636190604722167 10.062627965443266 10.791531070519152
P 14.338491028007663 10.882287198497025 7.990246714206334
P 8.762022569717308 11.156923349982002 11.34991571691186
P 12.714130027285265 12.32995392265395 8.473699449508032
P 11.095247052720675 4.794279492570788 10.891620799878675
P 8.84157557991844 5.45545870233532 10.851742184388643
P 6.420149022660112 7.478586784335789 13.464999608932471
P 12.058208087410193 6.366328639431575 9.661290287562078
P 7.274805175536764 13.966107101079707 9.79321111185012
P 9.404297477751191 7.547282640663679 11.429173438078092
P 13.68580783091301 11.68570068390079 5.952327540515682
P 6.393577060455195 6.705198375317722 10.214919083026263
P 9.113059905218892 5.4303780239752095 8.651115877223976
P 13.288957900259918 9.481371740509934 5.339783987969769
P 11.342172702227986 9.577663507600965 6.375591432509991
P 11.58041387364502 11.975210335830592 6.676270511968738
P 10.281212419108058 7.317753522608455 8.621520013452784
P 6.34382070548519 13.558858652249336 7.971634838214303
P 8.518653486561622 10.16758499225042 8.112121242232831
P 6.883440442589786 11.981549418087834 10.51051377627247
P 5.689956287152166 9.11266950112278 12.244360052839445
P 6.539418252413142 8.83966268010238 10.150190283516576
P 7.089559295406252 6.306344039442061 8.101915267044049
P 9.488055719243473 9.707696506544838 4.800066440799303
P 10.924026974561272 7.3212017087461065 6.486869023255462
P 8.328323044021872 11.060931397189268 6.06332284459068
P 7.665381137637306 8.287209394030791 7.2978969568062455
P 6.446504900355625 11.367273622838823 8.179562843866231
P 4.99459654708506 9.74892876908932 8.625726261629232
P 5.598582217816496 8.840245549903038 6.642084519079383
P 8.878306842557803 7.6822457023509205 5.5252851019153315
P 6.11351429192293 10.889885095090472 5.8855509603348715
