44
Energy = -227.52822902 eV
P 6.927958070397042 7.960555408889304 4.194058867864827
P 5.487957105539571 6.8135144147631275 5.565865123901278
P 8.310646949447161 5.696694762598331 5.579000059049195
P 8.984408783830142 7.0796337753047105 4.174670815152986
P 4.4833496753415 8.69008005644019 6.434582565401098
P 9.205696121796938 10.684333548320298 5.062999945780579
P 10.230850986209465 9.745412863759576 6.828622359916065
P 5.533818175050767 10.495627292358424 5.515241180134564
P 11.283802825298936 7.922247584651161 6.0245694240724355
P 6.954987605381844 6.544100769027107 7.298083350544103
P 9.775997103475566 4.735045864922992 6.939195324720651
P 10.506859129150282 12.917519656882126 7.329274189471062
P 8.65947600330277 12.493961546961879 6.265286573577456
P 5.9179802703731985 6.330441899905795 9.448689783183557
P 11.933121353824976 11.258067612319682 6.871583857684463
P 7.935200230677001 4.718588149019231 8.306112901297945
P 5.3253001236846425 11.307924965573058 7.625708094614032
P 10.61457818889236 6.63379673500744 7.741023131209401
P 5.901817625209679 9.178472317449044 8.110028119879509
P 9.663052678614765 12.130227859361174 9.423199639363219
P 12.9999354682437 8.293668247254429 7.471067834047326
P 7.509736974898757 9.420837769812858 5.804633295306665
P 12.796336715805744 11.014651175181044 9.027011294330261
P 11.708192286312011 9.041639169432036 9.221582855953336
P 8.244036946018737 6.6473607488550455 9.472550167509029
P 12.852069364304082 7.379901746563818 10.248862952810693
P 11.701501707775018 12.46456671256584 10.366641126452373
P 7.465101986057595 11.76385862188457 8.322488871223735
P 12.743795178950386 6.203230956166793 8.314473189469762
P 7.076789767883623 9.0886541423324 10.959938174793637
P 8.048111754145172 13.681539520328094 9.410629204965694
P 5.153339657574439 8.327550576075561 10.060883543152691
P 6.611242555643675 11.226958711649333 10.475889942032024
P 9.470935317840654 8.82837868173206 12.654382741282145
P 12.689879838477793 9.697187216077335 12.015632871977415
P 11.1421599735555 11.081188242201923 12.009824960340747
P 9.39016421597922 5.670468041530687 11.264759663970745
P 8.235382735179796 12.39163110501448 11.26005837773526
P 11.52527477460114 6.4044256430242585 11.763926173607336
P 6.940550454501039 7.296924719722909 13.990442350243526
P 6.221332438726838 9.17947478565257 13.03750521234558
P 8.013679155400101 9.244668225764428 14.379380791935104
P 11.523910959247749 8.229129421327727 13.245070123250109
P 8.957292956934156 6.743470925890995 13.142181164002835
