44
Energy = -226.8971928 eV
P 5.08342059321618 7.898301425287568 3.1199888423146653
P 7.064542661891423 6.888493534188608 2.8357287037514953
P 7.721880160542962 8.98440227785914 3.28320095535168
P 5.47468059708771 4.674563991086168 4.420882010684644
P 2.9486435758932252 10.633007554726674 5.23734744341321
P 8.998305242366124 4.925282598119647 3.985389005015773
P 3.9100725883295326 6.2672878513391455 4.159624222729037
P 9.292212370268487 8.441190508694653 4.731963767385792
P 5.05296085630744 10.984485826734716 4.53333211312786
P 6.011137396330551 8.984797297560272 4.873114233143048
P 10.589827926528201 10.145551947473503 5.297253638614191
P 10.515086601370323 6.578497515518718 4.430139971144783
P 2.4667185170660044 8.63935039454931 6.269930675562274
P 7.2195569451432196 6.000679999653842 4.943758287901025
P 7.182277794289977 2.60597220493684 6.14174681083878
P 4.3839595298957805 3.8161124140789138 6.246261321322122
P 3.070278072433423 5.476821820190684 7.107512127412099
P 10.269462426801827 3.9711660570315117 5.626385056944843
P 8.860268063235438 10.808153674359824 6.705846054948626
P 10.806194876208863 8.853243844896399 7.178942871183319
P 4.196137895433057 7.19033741119357 6.169574206459758
P 4.380886461066223 11.705115616390774 6.5421771594976885
P 9.22450315353909 2.3799416295984575 6.815464795076672
P 6.241407263686161 5.519026813825801 8.485434352837093
P 7.475119959286996 10.97829984760437 10.273042978874201
P 11.571248356261682 3.7858517618849112 9.21790010535202
P 9.96378630384609 5.89911259229908 6.599478847542318
P 8.501262692649986 8.524056460429714 6.952131702620546
P 11.326268080134348 5.982900882166877 8.353267538286426
P 10.212000259835726 10.589504933805022 8.538630705111737
P 4.127702347382843 5.187514659415908 9.042783454018705
P 9.758960371907321 2.5651919199157973 9.009606718983902
P 4.927822089698034 9.932903068903439 7.87845792417528
P 9.28827295968788 6.030292187165984 9.250559492271808
P 5.987667885684279 3.3649004408653793 7.778012357509612
P 5.917294514249608 8.17446684181583 9.80713487223213
P 2.9618457670190472 9.177127645821543 8.339677853778827
P 6.2848608550350225 5.457624533460482 10.836586818787053
P 9.755880414540869 4.201624287352925 10.499160696379048
P 8.54452257286754 9.36415697261192 9.324298555291287
P 9.28428722907638 7.724279528893369 10.729964658624526
P 4.405882106549342 6.743124793161885 10.668071225726406
P 7.169159656733176 7.4441796676674175 11.502108121075763
P 5.39990903365698 10.329277790497573 10.086301771733448
