44
Energy = -227.60643258 eV
P 13.201391301438841 8.720538094596368 8.594239730640542
P 14.281301560636301 11.208575365603997 14.51480067292232
P 11.408032695975077 7.383736630329423 8.446575471059296
P 10.87746405788656 9.894716853932087 13.373779630729704
P 9.675401578754531 10.266564275314504 6.672392023145462
P 13.542997122795148 13.608962514397772 8.624477387468445
P 12.761982796573102 9.221691920707793 6.422296740120395
P 14.171430757577305 11.59784218835145 9.277643978505672
P 13.825594576741029 12.089513225058921 7.145125523944193
P 6.810109862539358 7.484079864796861 10.600498043031646
P 14.854552812547485 8.071377944733918 13.143006118703925
P 14.571245155012114 10.23000321324411 12.526592117353104
P 7.676286352800152 11.764348430490298 13.356530080256357
P 13.245119108012211 7.487307091680252 11.615376119959684
P 9.403946832307675 14.606217420690273 11.329933051334551
P 12.464788398342844 15.336967518595754 11.700729143578315
P 8.0422633782025 8.414787145564713 13.735754415747463
P 10.149816272583157 14.105595248482809 14.26012961136434
P 8.820049470250519 13.142623488217193 8.867914052163028
P 10.092250421075978 8.414006722224716 9.906308525096602
P 10.849535879041127 13.492309455777624 6.61619373416844
P 8.8291412713767 10.351235699850063 14.578833131548983
P 12.192846340680227 10.477447334846932 9.619478806324315
P 8.621470077049178 6.688798227675529 9.62954181344796
P 8.615568251374407 10.75146880962226 11.524320460970175
P 8.833025605437879 12.673693258691769 6.742680092225407
P 6.967103089231536 9.247284601916983 11.936594831614004
P 12.631534967724273 9.655867528317533 11.699037350883613
P 11.245204697013994 8.138004868728117 14.692160308255549
P 7.680663118556594 11.36726986811089 9.58352127332048
P 13.151439903595781 13.108874678107052 14.15559255514351
P 8.719598265548946 9.657837049964028 8.635874024793635
P 10.388671681852744 12.858734383348674 12.429524054784817
P 11.188154168638915 13.395473929663451 8.842694607794853
P 10.528485629618576 15.862297472618472 12.82066508772483
P 9.96606411224542 7.717563618041469 12.886299726543593
P 11.686369995119982 11.283162307254019 6.693193243046175
P 7.180910893165262 8.00655798489697 8.467845466823334
P 7.9605617868044085 13.833888300282041 13.893618519081853
P 12.9799812223651 7.061996619706096 13.762840988922672
P 12.130332515961813 11.285569970181403 14.893964660550903
P 12.551505451993021 13.118701923857545 11.984812685288093
P 11.031766312051465 15.345501216384497 9.957767973665776
P 10.7963645591858 8.203804202412856 6.432149359013682
