45
Energy = -233.15033434 eV
P 10.252473328484438 16.221415074692658 10.864609562272427
P 10.529730000746618 13.186228675579114 8.755030725265476
P 9.937090423377164 10.446735774705898 10.06423484385084
P 9.972643483129833 14.52677700364109 14.160567860177661
P 13.153034685738408 12.691947344234848 15.102180979790763
P 11.043392233338178 12.850700116963587 6.596261623262025
P 13.955478660821989 9.108813296218297 8.071054502146689
P 12.93520446801751 11.019776458242363 8.622722565605336
P 8.397281177025569 12.915599738474002 8.050293074513531
P 12.303241678119548 10.408290943964861 16.978078593733155
P 12.981888645208196 11.64841594867466 6.4906180067049375
P 12.834802968283455 8.336263821379735 9.915882626168946
P 10.55542209959261 10.756023188859421 15.697385327132576
P 5.992537351918135 11.716216203714485 13.487548679767825
P 10.070012020237359 4.902795725296078 12.464133996820111
P 5.482255579627788 11.123214905725307 11.404359776478055
P 10.696094772640409 5.528931919306436 14.491323319349101
P 10.952851095669125 15.376936885223092 8.91923549151489
P 14.166977334017789 12.778355714114703 11.415998279930342
P 16.24274709268182 10.060095663164127 11.148154721432018
P 11.811750841938634 6.250033798339334 12.071336493497753
P 11.99291910027292 9.721734141246557 7.133310863791227
P 15.226157449986893 13.160123010155486 9.48235134716765
P 10.67876270327456 8.163008276143254 12.368169131656122
P 6.148980513431323 13.193349264780656 11.815807736093042
P 16.814812586091747 11.636987691984988 9.807313681918936
P 8.921160051986895 15.00784979232307 12.182171257469495
P 9.243771339165214 11.488186841828607 6.483651064377595
P 15.102490140455116 11.17260964876391 12.555624493403704
P 8.39417025857329 10.73771829497328 8.442456839197975
P 9.08211671570173 11.364137871926726 11.943323759320734
P 12.019039103066065 13.985870980635662 13.675478735897276
P 8.233457405788581 13.226926171790469 11.07076602849913
P 9.22315988311952 6.721234827098545 13.437577850638945
P 11.53854490465787 12.502947045442278 16.677544890249063
P 12.57885523873418 10.531462637951956 14.740442888636165
P 15.819293027608492 13.328254188038292 12.755676680264203
P 12.38916925427739 6.168589898763328 9.888349942280092
P 12.350843058911448 15.441521638637001 10.697950200627163
P 17.01338652391342 13.602385785085882 10.806508711625487
P 7.258626398825269 10.227303542850258 12.428278551941634
P 9.446923633825074 8.267372528047645 10.481623951406123
P 11.657163046718736 15.949136535065083 14.304458379985066
P 10.970176676920856 7.603390608290249 8.971211391993089
P 12.033655809576654 13.371317086073429 11.487866710666122
