45
Energy = -231.97731353 eV
P 14.931810714705497 15.696166948051085 9.090954296324256
P 15.379887433179237 10.55641801067907 7.5023997456082565
P 7.905053181997105 12.292490373904888 9.063842905799081
P 15.189377232399982 14.017517048303379 7.672885717659726
P 15.01036615414718 12.181639289392125 8.970769487056033
P 8.07161515626783 8.811711346085477 8.550714377579126
P 6.677302013105709 10.473311222703849 8.829377832821997
P 13.248354989881829 11.081825497062884 7.5920768691119145
P 16.95350346438594 15.22925291579172 8.328460185894077
P 13.891353417688311 9.316913815528476 8.635021435173812
P 16.517963206222767 14.981803130819156 10.514906482561013
P 9.534331336621849 11.62115164777922 10.465718127370494
P 9.283372245659363 9.384373797378968 10.319335348896585
P 11.093211615997632 8.237776372718018 10.442464068015253
P 4.8978315747860695 8.384458044353014 10.799434334594748
P 6.375016013230425 13.30695107210942 10.273955316124223
P 16.622644295198405 12.785495587823858 10.556859883412901
P 12.511998816491774 15.617284752242588 11.491572258817603
P 6.75400136063544 7.428874895470105 10.210184916412764
P 15.234872585445713 8.818763351385284 11.974289355094891
P 6.249692709460313 10.081236225756268 11.026450683268221
P 11.890024546626483 17.60566949535746 12.291472941642825
P 14.265593064630712 10.43061234743139 10.606416610365564
P 9.977913121870298 16.904226292824873 12.767242593543791
P 7.72550326240967 8.664883609534042 11.7932629771988
P 6.342834031566748 12.075866580050674 12.070790147072548
P 10.341102339042374 14.967968958201089 11.739170055552648
P 16.235595630552616 10.41473476374856 13.231982026322072
P 8.575368113169041 12.132804500064989 12.42985486602336
P 13.415670286961122 8.05257559024651 13.022374535524802
P 15.23359003919997 12.034594661580543 12.081308901865784
P 12.528498659713062 11.275035099603311 11.612490219391544
P 11.778811635321086 9.324517169347203 12.180358240777277
P 12.782117930777789 14.66945584354942 13.499317611431179
P 11.020666609384788 13.315786305887615 13.13757920344374
P 8.662423604297134 10.623673006106543 14.137126924448742
P 15.176660119465074 10.534657333471907 15.208098514540467
P 8.98211643681131 11.974627584017092 15.76923612847569
P 14.750301605303429 13.679770805474382 13.51803754688699
P 13.631523627424608 8.882473788047871 15.094600179797084
P 14.287976022928483 12.584789423600496 15.41226488654131
P 10.39957190495619 9.15502999359561 13.909425325296814
P 11.66706873101422 9.823910559390466 15.624213118779588
P 12.201881612052263 11.99285636521249 16.00873635858472
P 10.601112101049267 13.381549132352346 15.350451012931817
