45
Energy = -231.78603737 eV
P 10.328702663249445 6.24176382260626 7.808409611419976
P 11.149847803593165 13.078580085973998 7.473683680948823
P 12.348203195695534 9.09629177613629 7.265590348066077
P 8.04213918482959 6.682131965764966 7.823034989003959
P 14.693292107364263 13.348767490860974 8.619147984080621
P 10.277894252255479 8.252248007125955 6.903257773333854
P 14.153996397647633 11.22786814280866 8.84109984866878
P 13.127524171997667 14.194915993426111 7.336428398712433
P 12.137265819927224 11.193762868563054 8.04223575354905
P 10.162916514152148 13.08244846092729 9.662795530705166
P 8.2442240032815 7.62006214791189 9.861664991427949
P 10.140580432477947 6.503562595838307 10.045502322922461
P 8.119852871132087 13.223141577840746 10.862848273168977
P 12.985302828698332 7.730288931667588 8.963352938749264
P 12.993067883223642 16.196874966377752 8.084367788315479
P 8.465782739699595 8.884317401809772 8.061669594745462
P 13.03050795927624 10.99398899916169 11.069080399826987
P 10.822436377370655 11.019908345112025 10.002843741214315
P 14.911163710697961 8.23944426388865 9.82068223325848
P 14.486667518700248 14.499043990136395 10.59367744536615
P 10.698672101759508 15.265453877756306 10.232958653522052
P 12.81419625072636 15.90715356536959 10.23793865297908
P 7.783766378983688 11.051478687731537 11.146937767815098
P 9.864121868890752 15.499214165370814 12.314024545138388
P 12.071411957588005 13.29540857004591 13.398343515443914
P 11.509583715021575 8.187080806424877 10.57171605508805
P 13.860262837314224 12.945984639603937 12.059879076978175
P 9.624935145216304 13.262852747525969 12.482470386624136
P 14.379607770545038 9.15120950052914 11.693692059453715
P 15.528180459901115 12.504878304372438 13.39567295639943
P 12.82024907510813 7.699154921929643 12.32850785897654
P 11.452326416316078 15.471248358770081 13.86070485481388
P 9.923434517179016 10.93803831437145 12.1145286780505
P 7.265880401385059 10.439047970851314 13.331851123271084
P 9.030353099455745 9.093574303385124 12.960798625254679
P 8.472279950689462 13.678266335949308 14.31129821170482
P 11.986820891531876 10.937916496497538 13.069524628065565
P 12.228178541852072 9.027460753681606 14.078844635535766
P 8.03043126978012 11.665902126697075 15.16348835647605
P 14.624881840082368 11.671586907469232 15.124660583585303
P 10.143422125946524 14.559190469236327 15.525448103638558
P 13.120902846502208 13.218774979749064 15.34228865177429
P 9.915906521964166 10.809658006222367 16.000405403829472
P 11.209431916547105 12.688467755067357 16.358681510727262
P 10.111540048126091 8.813731985136387 14.846107841052838
