45
Energy = -226.1775024 eV
P 14.643738768447637 19.436984528760238 13.666835616939002
P 17.46729262683909 16.566889656759553 11.682979518101742
P 10.600857350934843 12.087455540907593 17.16172155347106
P 21.134736440082268 19.038224623681085 14.85904617808754
P 13.457270145531922 13.673389056475193 15.705285317665158
P 15.592076892175042 16.975700180373153 11.744583559322571
P 19.37458543797841 9.800138574785812 20.093870909702822
P 20.209523997509937 18.689388689969086 12.039617629121544
P 12.628658093962992 12.81480183247379 10.585139445285323
P 18.607797753896808 10.597355099551233 18.275063000372715
P 17.889692080405485 19.28278002789143 14.551553406938297
P 11.97592462729003 21.038004903748277 12.967572217573817
P 15.321960802610683 11.177485677006475 10.469152259454455
P 10.860039665414527 16.35300305856383 10.54308871046768
P 15.699080566399594 14.786580808802503 19.788279572543253
P 8.142584487012309 12.352143476468568 19.233296099203688
P 13.64464026491729 22.02492116612969 12.093685879021189
P 17.891666150847623 9.555177964143686 9.507902589148703
P 13.511374004537652 11.16019545811 11.649428006459212
P 15.973797041590196 18.244322099044485 15.00196619728855
P 18.38379311300327 12.507139712029536 19.325884974736756
P 10.688841230800826 12.945609535610242 11.787012717210025
P 18.293864203274513 11.265258189885198 21.168450398053153
P 9.743221692260613 10.158844588045104 17.0617288554449
P 11.843253659946367 16.190299354838967 12.52555677139159
P 15.90358343823182 9.215248271320675 10.079288343057678
P 22.08766290141483 19.0456458304902 12.953455344071656
P 8.098419497979016 10.41198584540122 18.31704791331818
P 18.33422197586592 11.636526035739827 9.549325360986924
P 12.704195915153113 12.556019204477614 14.11346745553656
P 9.608837208515848 16.16291839956717 12.362872589334174
P 12.58511484424241 19.343596169001277 14.043229257827578
P 16.34222550067164 13.065610799109333 18.607429993079048
P 15.069400311411982 11.740581763700483 19.88885062962421
P 12.808842113338248 11.953270913987097 17.00543190595016
P 13.035302643188997 12.099610461313178 19.209330450456005
P 16.01872189773976 19.32535748640666 16.915815035524172
P 13.997143216199891 13.632082695665101 20.57416726117392
P 16.691510665282483 12.756264779363624 10.240244795684662
P 9.806248140376786 13.427545535752106 18.594531697843408
P 12.444961006296548 14.069852050414525 12.449443436983385
P 19.504850139456742 17.85283123100701 13.96716554601107
P 18.090847348774965 19.502948320626153 16.716721438132538
P 15.434900456636624 21.07399670952123 12.605721925362676
P 9.539668185775513 14.576458802454953 10.794610561943692
