45
Energy = -230.12766758 eV
P 11.007459284902861 10.781361112294677 6.301754415462921
P 11.849731913411485 8.736140165793682 6.2137308641766715
P 7.367651281483897 12.680258843994913 6.912162357279472
P 6.305943209159071 10.926573853529366 6.858500032221435
P 10.506065174843341 7.8900753728506805 7.9266677114720965
P 14.549520884431368 10.831617495650942 6.7693161791589915
P 12.68511020435732 12.069471629940926 6.675718678416792
P 13.906103706443286 8.731382645259194 7.101939043465387
P 10.484768603857095 9.995303055131094 8.63373727354697
P 8.539201740500715 12.835668870510872 8.790330616420475
P 7.38477050257383 6.992726886288691 9.177211306574304
P 9.147071979270704 10.303181138279978 10.35094980334671
P 5.973396281001148 9.798174505087518 8.710343817427937
P 12.854670087866538 12.52275965430286 8.95973169490626
P 11.061847503566728 13.584458230114766 10.981894435204202
P 6.145333019331326 7.8308969018114585 7.743403733260334
P 14.990006345020172 11.727789049456517 8.833080928139191
P 13.845184455486898 8.324446031348302 9.297363414890366
P 8.258778430481545 14.978124539739463 9.438202856999135
P 11.97917792755762 14.45525561682291 9.255339688914288
P 11.656354764537017 8.171917906689274 9.771362198544656
P 6.0641695771647885 14.326899952653735 10.130898975442431
P 12.29060011566074 11.257834204494042 10.79422286767815
P 14.365315226278053 10.236569618958168 10.351793074957307
P 7.4632332573610665 8.911503023631623 10.282305160603311
P 11.31930889451155 6.219611639975457 11.013195182777292
P 15.12723368233587 5.4966022528085325 12.234578018489957
P 6.902423000994372 12.243188043842371 10.187724331433156
P 5.9393136840068905 14.252140178331848 12.294240853459563
P 12.14991477755539 13.899706995945712 12.983922860190651
P 15.509406492795572 7.181580994168568 13.461992673404682
P 12.958304032284138 11.850029794139347 12.923265110251007
P 13.153570391417414 6.351031538283369 12.23319331757891
P 9.202192459711199 14.710288369127117 11.4100630582183
P 10.290054676499215 9.44727823029064 12.325458009205667
P 10.394802044294016 7.139441487853878 12.818983012497794
P 6.855796914759272 8.553077622138797 12.300894706716022
P 8.352346496824042 9.560748203084836 13.487610098024728
P 7.702345810225138 13.042328328011461 12.07928248652684
P 13.638027032644153 8.324965162194097 12.989973440028281
P 10.681156578668816 13.985514037408494 14.535140879043198
P 11.44566876982632 10.587307060749286 13.974251137494896
P 9.955627268836613 11.970766443953082 14.88772430365211
P 12.213851618628414 7.002395043985201 14.154497139699844
P 7.9621704760794385 11.716588848518688 13.877028832243393
