45
Energy = -231.83128202 eV
P 11.004691235233745 7.181115137506578 7.709484169919675
P 13.19036055612916 7.934732082800921 8.183369084375927
P 8.272911529415424 14.775833738260737 7.6963817213314485
P 9.664422075050185 16.20859515433728 8.071945343938879
P 12.726612115149281 10.170680179189416 7.940751582491482
P 14.606669077261785 13.397932143658496 8.267652677506938
P 14.50882781783066 11.34700828703232 8.936892750884173
P 8.37567342951948 6.8546049686373305 6.914546225283779
P 7.496929951006313 14.04440889919066 9.614898238184066
P 10.421406973001723 5.673470742696428 9.315453688094028
P 9.968120175220102 9.062070467098087 8.160581569906924
P 12.809290383754309 8.328504183092942 10.31562289507651
P 7.951316414864714 8.160251610512093 8.602276203319635
P 11.636802509494641 14.67568480221373 9.236617359612284
P 8.25682447628017 5.944957429582822 8.912654703999209
P 8.409740874567843 15.357705744254222 11.136478516246099
P 10.277197217989048 16.228232870593544 10.22602842345277
P 8.336672628302217 11.971912762553867 9.889261935076632
P 10.282715701016507 6.24327610165499 11.46601909440182
P 13.893050863486863 14.934992339002541 9.618351360996375
P 13.662355986526725 11.156825308515605 10.987466977024521
P 11.349723953395964 10.026048125147817 9.702334565960848
P 14.74449663765168 9.117057735863701 11.079126204574086
P 12.475933363129625 6.518138774425201 11.58757403363034
P 14.374882861398458 14.561543641847546 11.83097529874608
P 9.913332170297123 12.030329763350931 11.403068623538614
P 6.865602547646037 11.22506512765692 11.377281968917915
P 8.87562569619054 13.659249951277536 12.509756713061492
P 11.77913355078899 9.577812917007451 13.131817934238443
P 9.523366935993188 8.28275824652918 11.88151229598821
P 15.13095739158336 12.437073005036945 12.079008974574384
P 11.206921183428658 15.869818076733775 13.21578491060397
P 12.651451390977593 7.507419205819706 13.558155728231837
P 14.700409514023558 8.42970899434331 13.238565377177293
P 12.312327577561089 14.16548488452649 12.488383995634448
P 11.721095339236934 12.980314229626536 10.631266421099843
P 9.701255946555673 14.696103043207426 14.282849265542206
P 7.249380598320835 12.330888689466407 13.158692551768876
P 13.596546019090013 10.012982305173068 14.36778279959232
P 9.450181073561755 7.763534458591215 13.918642256990944
P 8.958984773196274 11.470451852702855 14.740265763584398
P 12.628762588934624 13.337275939974221 14.47021132455327
P 14.468377689374044 12.032635727892385 14.212243770618828
P 10.22791084282136 9.667280806781887 14.778140075928276
P 10.574187445098282 12.881668625987956 15.38726370567655
