45
Energy = -233.45842938 eV
P 10.483415029266482 12.24427033550723 7.122139956400309
P 9.21640638295078 10.383330121541043 6.808882527735491
P 12.561653244637384 11.456311759529394 6.854561928438968
P 10.645306862274737 8.76707979714149 7.517553219461209
P 8.860391968625432 13.926764644255048 9.375151409774892
P 12.177438591323396 10.054018408602824 8.48895805029155
P 10.238747111562658 12.251515185105598 9.389059688024064
P 7.3730494495304555 10.677190658382964 8.179797651647247
P 13.383905397307508 8.12702214307288 8.83525193635006
P 7.071955902956027 12.658191839550462 9.29002074729866
P 13.593021627090785 13.068996698811306 8.21980314301432
P 11.894315881357178 15.204120570671522 10.740627583198034
P 10.029501121772402 7.733261604751967 9.422586226239673
P 11.904521992093308 8.335736131634366 10.47496971570885
P 6.886879055310953 9.053785769290673 9.64044646971946
P 15.026780390772897 8.858525997288274 10.176203226403292
P 15.372140615422767 12.354822788238762 9.160410947792728
P 12.242440618388194 13.052834222372082 9.9957401300529
P 14.653052550234591 11.005387551839773 10.721750689640812
P 13.773338916138947 16.270797250559397 11.269261823936676
P 12.560092538521237 11.263832669551606 11.319381153521078
P 6.910664768029079 11.86840655006256 11.371929949358627
P 13.204075190349817 13.886644085877702 13.278161253815824
P 8.832067943065203 9.091119378916721 10.740507311794799
P 11.162484687702511 14.557864017406178 12.70319137731924
P 5.60513586746115 10.181196522395567 10.9328569137171
P 12.43473037494111 7.023066361690757 12.189983693694584
P 15.894007234485912 11.087151517672455 12.50642039828569
P 12.38334660469768 17.881390887568973 12.091929944094131
P 8.923358122689171 11.065223049695039 11.86365929860889
P 14.330861519151867 15.711317142353256 13.37167901560075
P 13.633589383027681 12.499257992633524 14.960111470412354
P 9.060546545838173 7.94964271515383 12.671608190187252
P 12.724337835689788 10.762043059444128 13.811685799388174
P 10.987338472974047 16.70465011846564 13.3840911089903
P 12.92410055040947 17.286367054166707 14.219927003204393
P 14.594985309382277 7.817382261644993 12.113380550881784
P 8.017251943807524 9.756846563090955 13.51764716812882
P 14.781447360640666 9.59075560455145 13.518649159831382
P 11.189274233594478 8.671517933404273 13.188456375514578
P 10.62634196466341 11.847998141135232 14.396464795113136
P 11.788834186012588 12.023069934103818 16.256301823060014
P 10.817675332082619 8.559579045974264 15.426318680335738
P 12.57330698294742 9.8923979120438 15.957763347933398
P 9.382369961229594 10.267803625261369 15.255204768490803
