45
Energy = -232.72263522 eV
P 9.491924869977934 17.11718807057464 10.927697372356175
P 10.027954606419089 6.10393850026935 11.994578339441444
P 14.804672532908402 12.259341346872219 12.808201781072931
P 9.344315112334575 15.108675100875246 7.936253684744418
P 11.426294785815195 11.892019166227533 14.625602033520378
P 11.246207919982963 16.110492836400407 8.390560364952698
P 8.665974992931984 10.927410732783375 10.087800401184905
P 8.105655983042439 15.825609548536073 9.650795240020992
P 7.661179793850867 14.669364747963595 12.78590644044293
P 11.346681872906508 7.269520789677583 15.01496839653491
P 8.164582419567193 11.053963818842025 13.541763599673121
P 9.61747015782134 8.575388876428379 14.60185606739235
P 7.857200288765627 13.919494735353512 10.709447752863124
P 16.74286427726807 12.268695048131873 11.784137676236083
P 9.950112166309118 13.026973822232955 8.432821627358335
P 16.0939353009511 9.312060069767506 13.584830984913381
P 10.815455037180884 7.300076676444751 10.105240856113467
P 9.089853646917128 13.01213896832289 13.245192674402174
P 17.048455969060715 10.054278694260018 11.65389495287231
P 14.525946734283522 14.554181753031928 10.657166076055868
P 8.441332841633194 11.494450947885374 8.061741720434155
P 11.703310632572913 6.062613785449233 13.356723845573185
P 9.46327334243338 16.059561591195063 12.906703331166506
P 8.52756601611026 7.228893613705932 13.217457841594078
P 14.358723720451824 8.07506326704529 12.881615328744202
P 9.741891595443565 9.12784915577916 10.886018153764988
P 7.78826951161647 8.323736699356914 11.386329201735782
P 12.945854742429471 10.299017031614287 14.832834201268161
P 11.56749487140772 16.381121271591955 10.619713601827838
P 12.717863659595585 14.683588903471781 7.6007908275616805
P 11.791124815775733 12.82663775200477 7.368945683679517
P 15.72725862060849 9.50585269053754 9.91796410982896
P 12.252893636361845 14.015492435565186 13.733420588274218
P 15.667036458443622 12.837170377905442 9.896651269984522
P 14.241029550026965 11.089667305379425 9.689732727926621
P 12.501187071287276 8.6979284732194 10.367360426420644
P 14.54646494974187 7.728464655159679 10.656706869106314
P 15.053799852878225 11.059959298118029 14.645955386624149
P 7.0948808902060705 10.490031059838545 11.629874231598087
P 14.369162894659544 14.391605607902854 12.896144741414291
P 10.998562990710345 14.69433864615697 12.036970438299338
P 9.856847142757596 12.85700880313963 11.02740406668541
P 13.144035962064345 11.477114709573774 11.574769673542853
P 10.344479021941645 10.27120753877945 13.25643389945172
P 12.71530151791855 9.54719565503848 12.599405890789306
