45
Energy = -232.26000547 eV
P 10.874621083873162 12.888237718799282 7.3561055821862125
P 12.54904581507042 8.241104236351534 7.2754754185395765
P 8.991806338567065 14.086365611582778 7.420724381472024
P 9.558172650313555 10.198222125831764 8.764439301387545
P 13.60526000284553 10.219725696696313 7.423527379054144
P 10.35080395580123 8.645943216632725 7.309982656662366
P 12.46674702348261 14.419382644953757 7.677611292999034
P 9.285082293383963 15.497475454569 9.048182907192986
P 15.290417213138143 9.707920338097916 8.664599891571125
P 8.242933775305906 11.12050147273922 11.787101900207704
P 13.400971984565778 7.031799816488089 9.001263511648839
P 9.989609961387885 6.571797358925707 8.164776086948725
P 11.415352287651672 14.309969138127528 9.58201970529098
P 13.404556394017579 13.151044675348182 9.327083060487203
P 8.02049548730295 13.738519257079751 9.391551200098128
P 7.569199589201354 9.017557167830608 9.02536037465299
P 9.525366640855383 12.742979014463602 10.817761232327463
P 12.264169760584936 11.329158839471662 8.898502088868039
P 11.577040498571277 5.893121478212536 9.709375806645108
P 14.061460341465825 8.835328159472416 10.19175659929822
P 10.521330530816922 9.029933983672134 10.599500320473389
P 8.979285598987708 7.540149513842418 9.823445856807094
P 6.841972512508176 9.430680315469568 11.147283748784794
P 12.54275321162456 10.326528922051432 10.860481392850811
P 12.003742141948653 15.69462324459243 11.297537322964198
P 11.140188286012691 6.898892061206673 11.641342640116282
P 8.972338041732598 6.322374456866645 11.63293171544225
P 9.138338276670376 14.384274500723508 12.412889991054898
P 7.966111019210017 8.169564820856756 12.682288330734604
P 15.308251984420828 9.181113178737165 12.073860948314804
P 14.1005064530191 15.933893933402986 11.73535625429569
P 11.315817836048124 14.354769310090857 12.884635831595485
P 14.623205110330034 11.269062732920904 11.916324728268465
P 11.366853443946619 11.91693316014773 12.914280502348618
P 9.720829730820752 9.704299460152345 12.680913538607214
P 13.474840371677647 11.582242934387216 13.772386662810717
P 7.031080279151189 11.937808056508192 13.44490266299998
P 14.053236002905965 8.169136615323477 13.583644930409852
P 8.521970887696167 13.338593385704522 14.28123950425901
P 12.152633602805597 15.240463869184975 14.658805033516785
P 7.2427628543831535 10.250476929311896 14.820244710657663
P 13.953027022126516 15.987586201730204 13.826911298507884
P 10.29483725474511 12.088542239139795 14.922675133186758
P 12.998304955911877 9.605749134032365 14.593616168960251
P 9.37234261863289 10.075826743787903 15.034973520011699
