46
Energy = -237.95001184 eV
P 12.277753000013243 12.274743946911354 14.282758760921155
P 15.12694481142292 12.884552096664846 12.678536662230195
P 15.184878402311348 9.523677718246967 11.329537740661372
P 12.780448164163085 7.63300052174396 13.259008309801597
P 13.491615042058264 9.994726948396007 12.665584764373374
P 13.498978466357736 9.854577136979241 9.834545571770274
P 13.615652345523895 12.357978121642683 11.111245854071264
P 12.991307198357335 7.8320280904162844 8.982207172097247
P 14.610575561262186 10.39251343927564 7.90613310935924
P 15.783249958910895 11.646083742160707 10.951632161287932
P 12.921853738758971 15.462001817785485 13.062123446519301
P 14.243796949802649 13.7957383863436 9.527411863458505
P 14.558034691997298 12.606758642903452 7.6526708331824365
P 11.108083432573418 15.680757476711383 10.305182241062765
P 11.065426960232505 13.712837079063807 7.712082708015117
P 9.618357026196742 11.166866624492355 6.763094512673149
P 9.980593983339936 7.515517061237312 8.693569050965642
P 11.263177278078649 11.263163789269152 8.287049500578284
P 11.46092382487879 8.813488991055683 7.712161145775264
P 12.907996775751544 11.359442853024014 6.763117893159423
P 11.418251514144087 6.84561309175283 10.305220705733351
P 12.545728896029926 15.010796187325369 8.693609778264369
P 11.318685461705414 5.86686288529146 13.871349236830163
P 8.282522158520901 8.730600505333019 9.527403567157021
P 11.112435417734162 8.37659934659845 11.93561456867677
P 9.604435201195152 7.06430841394005 13.062176995374678
P 7.968332685716967 9.919593824539305 7.652635385348523
P 7.3993637379713135 9.641745313503872 12.678567584808784
P 6.743021634230771 10.880216684845003 10.951573332967902
P 7.915766927547467 12.133796792450047 7.906131600940906
P 11.263122220804616 11.26315549296735 15.917354248179816
P 9.745877732043283 14.893364013046432 13.258987191943145
P 10.655992801386928 14.971165582027492 15.269316816531612
P 14.375852631260955 11.369330205744369 14.1552500582821
P 12.771250463699129 14.32789635200995 15.001666346111321
P 8.150493628594862 11.157062988997115 14.15520405151888
P 11.87036854265351 7.555162750719661 15.269319833368602
P 10.24861362349185 10.251553463257371 14.282774599314793
P 9.535045849381627 14.694269319752594 8.982158148497037
P 9.027340641965969 12.671761754697368 9.83457800276736
P 9.75502037523337 8.198460640688287 15.001682938714769
P 7.3414407060123565 13.002579718832354 11.329533969615055
P 8.910672796473468 10.168334372710667 11.111242837234434
P 9.034749318819173 12.531596859096142 12.665606636441154
P 11.207612528759517 16.65948807373296 13.871355270504143
P 11.413921401050962 14.149798373398196 11.935600238701467
