46
Energy = -237.26639113 eV
P 10.482008422768027 10.12320886783993 3.9066071771457698
P 7.885681875913899 7.036956365968106 4.694390843258269
P 7.5904560471048566 12.075755124871089 5.407123012399817
P 8.517347487350646 9.187214709648773 4.44571312892946
P 12.469364487828505 7.8406959136180445 5.652860279188949
P 12.38286755827251 10.030184792763883 5.203645251513921
P 9.783959029692886 11.725065657205286 5.425140039070566
P 8.419739869010412 6.851975780803034 6.864143996327436
P 9.604016926283949 5.742057502186665 5.390678885828638
P 7.749456875248193 13.395813014295367 7.321889505553595
P 2.8273240049663406 8.768638853132444 7.357584972168492
P 13.509644329264122 7.903122023558519 7.647420009219899
P 11.281266429812806 7.907038414166094 7.506324545762011
P 12.312084359412722 5.995164100702079 7.8846205796487645
P 4.8621931758746575 9.370220982023602 8.07975295127226
P 8.001100411200294 4.695604246505108 6.616130305368834
P 8.417474003362074 10.279388961279658 6.421287159015723
P 12.131534717392684 11.3477794499806 7.028395933799396
P 9.581054804370204 3.9477211688106255 8.092893737457837
P 9.837429290066913 14.14554307724873 7.664311242948938
P 5.766052765807093 7.383813913749841 8.49884498796533
P 9.606290320539761 5.66917198588263 9.48502474660064
P 3.0859239222306414 9.705845662251258 9.361369146484085
P 4.088647255577785 6.210207710009352 9.403534535076643
P 9.124518130534005 14.101136173627465 9.773270308306124
P 13.286376291962078 10.79009484108064 8.851821335718382
P 12.104810479758635 12.49491951620995 9.9081359954331
P 6.567355115353325 4.206255366865302 9.951142562208021
P 8.221281121125777 12.201527052389533 9.153259885855393
P 2.377541690008579 7.603363590689894 9.201859818864925
P 6.743712865380445 7.731476956975418 10.486804309728836
P 10.466256402592393 12.096912792684169 8.394818912657922
P 8.727559834133235 3.7167629164596114 10.151475987270882
P 8.506876523168472 9.106630206396742 10.539399263271875
P 4.4594999579759484 6.26720187983253 11.632472538102363
P 7.59625915643421 9.923007664665578 12.453838851461917
P 11.786801233098466 5.724016325437726 10.068043741187102
P 8.913737371267553 11.171124594415453 13.476504205763009
P 11.658403104435633 9.600550059912308 9.83326607130669
P 12.191004282939504 10.898695173157432 11.54791207304334
P 5.049251484877522 8.45822860016312 11.722240458136403
P 6.618378762283755 5.6327074024791255 11.515794433120277
P 10.630091978392434 9.993135955428903 12.912059620113329
P 9.95806589843616 8.053487749275593 11.97193412297843
P 6.311080037717903 8.645851874511745 13.517303738747762
P 11.997179969845654 7.733685089912346 11.065914855790847
