46
Energy = -237.03488358 eV
P 12.922023102260345 8.840937342831646 5.3999848051218065
P 12.91605355001322 10.928211216786302 4.671716798006853
P 10.558344872447435 10.895700128375367 4.9331069349111285
P 11.081767867502426 7.6546913752859425 4.790331931660933
P 12.89056739921081 11.48758389756143 9.147680179429107
P 11.343639157395616 12.995437367620434 9.003446919510377
P 10.389920724722508 13.10284319517417 5.270137869055122
P 12.871307715341354 7.011482128880088 7.8753029575538935
P 11.956087984052814 10.431770513791829 6.588720230199002
P 8.123696516279303 10.68296247540113 5.70811760161741
P 12.76436552799085 6.99057519762974 11.148060917184186
P 9.909218298047545 7.801679971192955 6.703602217482854
P 8.066055122405507 12.827914475627983 5.197337582479686
P 9.849852132884449 13.365285288696395 7.396731388577427
P 13.558674758636554 11.894908429919257 11.241328265500547
P 9.524622428165353 13.096815011730735 10.331182782596343
P 11.40718871333968 6.17068239617503 6.428999184136089
P 12.754938361612888 9.168910813367356 10.259424770479978
P 9.26690411980911 10.920269420874721 10.635211243375977
P 11.940368067608214 5.88711159186905 9.428869450324031
P 14.566816982173666 9.891165805486882 11.350231197577104
P 7.933284238762502 12.075623803450686 7.313625522702486
P 10.023928139096856 12.209565148489268 12.305296783366455
P 7.206180396456415 14.006996888187585 11.358556081433385
P 7.131297051970611 11.14005383422619 11.570244067041598
P 6.811462788393296 8.111200513248905 7.45844362685387
P 12.578804232063064 10.157023158154972 12.270542272221368
P 4.767020279037324 7.6402160624486335 6.7369530440031244
P 8.703426063924992 5.096282403185406 8.02771851748986
P 3.5902082212737674 8.67626209697798 8.312203010022772
P 5.947768342819903 12.563507455860154 10.450957016425491
P 9.648845015453931 8.294580672984477 12.026487441109978
P 9.733939642187549 6.409980183434556 9.512880009122037
P 8.045105266420524 6.562150056061751 6.428554042317138
P 7.852093069887403 12.650322066479774 13.006768642833075
P 11.287837010416542 6.993873963736096 12.70329872142593
P 7.61307571783613 7.275969408284224 11.933257074091841
P 4.560380609753057 7.564714858123335 9.993003213777833
P 9.268015619155058 8.791417168177025 14.195408280722415
P 6.73286247701011 7.370183759565885 9.558808186376812
P 6.23797947154367 9.291128297772788 12.28939376756531
P 3.653587398096958 6.461420454561471 8.266695996861554
P 7.013401126604798 5.131697670638105 9.490205130046768
P 8.636236904795819 5.300677601564538 11.067318758324427
P 7.726626040411482 7.207860346705806 14.30127312456771
P 7.090151026123128 9.333092211405349 14.344854642577179
