46
Energy = -221.8959819 eV
P 18.753593995524575 8.994182160925199 12.287429562625784
P 16.498961362110485 13.695740065942156 19.272951600611954
P 20.460528947591413 23.909033804507562 12.534946248907197
P 11.554666781587663 22.2861396091885 13.540611520614878
P 19.68111888320651 17.51171325595009 19.78000691013904
P 13.363803251445775 10.512799868264803 16.026483751252815
P 18.158213327389213 17.92383807794746 12.144627270155723
P 19.74217741047825 15.837201736360855 18.38363432791512
P 10.106593892838667 20.26230162196883 13.364175959566083
P 18.09417846101541 19.545070960974556 10.939340182196393
P 18.441028910953957 12.563661783732183 11.406740504045572
P 17.360095024834195 9.297063283509972 17.17523009659341
P 20.260868522492366 22.129709429058142 13.193295913953792
P 18.733226974433215 10.49646523523219 10.881670518207944
P 13.479754154139163 13.376525977221934 13.571687858096187
P 10.636854577785536 23.639042201004738 14.83245143625839
P 16.345000827351424 14.963029742607285 11.354885244311141
P 16.91708835071104 14.61787716954385 13.48776049672094
P 9.801814308284555 17.563013798437463 13.627608971404277
P 18.10936344395565 14.641489095123866 20.697820996227854
P 15.13818368565915 14.913314908008758 22.97599881673444
P 17.69288419231132 16.882603507980917 20.668347920542402
P 18.46101411486027 11.018651659657431 17.28274763825335
P 18.932247620651342 17.579550569853904 17.687317400403213
P 8.363923051879405 11.435267940410045 12.349592402510224
P 14.397512929721378 12.137606297829041 15.11057432955289
P 11.731178894310213 17.47478808225222 12.75028475224442
P 11.585660774617063 11.668739578025901 15.885458377221683
P 17.961240421255585 11.28272660923 15.092762398587395
P 8.9624929969368 15.682046503309689 13.271517630477828
P 9.28222746638338 22.05396124887563 14.377273826190772
P 16.887333625501615 9.377513837272287 14.941694799862642
P 11.626343956266984 13.45644433720522 14.78944144131784
P 7.562030450534804 14.346093701732244 13.381761909664057
P 14.93381306210024 14.826958989789203 14.515681301102193
P 15.647128371760186 13.497393740536952 16.111909083821658
P 21.21869869576519 20.97305644945178 19.370118635400956
P 16.48433014849712 16.390880223066087 23.824600001380894
P 17.23409401740386 16.6650350182916 10.578220574210917
P 19.078102172408776 9.460294419173024 14.42865894621136
P 12.125198683073396 19.521792320373905 12.960818557382725
P 17.187331253080696 12.397191666418582 13.103396545768058
P 17.868121413408858 17.49345208602294 22.75178275648299
P 7.043788208293582 10.046521360602643 12.522311447128482
P 22.248744876906372 22.04166378361195 18.179382953856212
P 15.99698444496865 14.422575072821552 21.13024895788025
