46
Energy = -236.6553508 eV
P 8.28730853318923 9.823830033919364 3.444131111601194
P 7.467156831071331 6.452256502134736 3.2193916293005587
P 6.083794060641594 9.607180896321456 3.735068475068646
P 10.757913424707482 5.8155184003261375 4.723919554316814
P 5.778894411362969 5.423525919088269 4.3301065131548215
P 8.84682429962328 4.979099695206407 4.2859850407239986
P 8.6287220105258 11.552258170698016 4.8443319407868755
P 11.049517475822139 9.34756950047088 5.212074536203922
P 7.530109499828539 8.157394679694203 4.671007591226396
P 5.1714075218052535 12.138277335876143 6.203075773621097
P 4.72107997058793 6.932699226974049 5.700074633871116
P 12.50540767709414 8.15492611007481 6.401911920095795
P 6.384917091223428 3.6121728433129117 7.184434902058483
P 10.711557710165547 3.6719412392598425 8.2102544231556
P 7.277116966222043 5.2485799649880605 5.9499727904931605
P 3.7060656684168167 8.871537818038869 5.8101510101068925
P 5.655133080040462 9.940475895608978 5.942726138065089
P 3.2245415941373192 5.847073478838857 6.943492960817259
P 10.33849031343843 11.232787006310776 6.222632834186493
P 10.423382842458917 7.419664676324833 6.1887104953681025
P 9.442042963220533 2.6614300188299254 6.763972781666669
P 8.218314122847907 10.67390457996507 6.828128411433961
P 7.076972620622814 12.640350862191088 7.259954673945314
P 5.942230745389845 7.032534467289622 7.635309790735911
P 12.47068120151776 8.894301981116456 8.549700808814794
P 9.22943089529718 2.055471342352605 8.804536317803436
P 4.939746040709274 5.065987543063592 8.220452075245268
P 6.835135381289382 10.021081408744582 10.538087661728197
P 5.2262647644673175 12.250003840197342 8.468392438321768
P 5.428175033277355 10.085498784686772 8.85070010058133
P 9.362470641027576 11.207853600498343 10.494213194371566
P 7.728843782496318 3.8186422855600157 8.980068427572457
P 3.8048157300554717 7.7946173313957505 8.106793919475217
P 10.38700362266189 8.387871387280628 9.092973080200874
P 9.262969673683411 5.392297987969331 8.724724278045626
P 11.976195065088197 6.908317520796543 9.480787985672507
P 6.566225134480207 6.9836124955579395 10.337803028655637
P 11.255134765301662 8.238460615257198 11.140326951042228
P 9.25795046517808 5.154763549236522 10.995210123446789
P 7.56612848502813 11.794376083677955 11.63058220080916
P 9.086518582862722 10.41190943447787 12.447671015094619
P 4.436475624616773 7.315466723192592 10.554612462633857
P 4.623625940336919 9.527819945431855 10.889842579068043
P 7.0098823615231405 4.881968023169778 10.969325343425089
P 9.514120709578 7.103859403027046 12.046473876654181
P 7.740835763857762 8.40636049034268 11.903433298110468
