46
Energy = -237.46286744 eV
P 6.3056964135512175 4.584865689838244 9.911531918226517
P 9.739158714740519 9.82154754487245 8.35946299884362
P 11.840020920170142 10.383975698317283 7.709358632214708
P 9.396656321729877 3.9722310761079114 6.0882982840172435
P 6.942800096974695 8.884631166175035 9.294895669868357
P 12.170980535239085 10.02757624711049 5.500328079855911
P 6.607170694871612 7.980744953311214 11.375561089517067
P 4.594217091492332 11.237365667626412 7.683158839186767
P 7.714969400131265 6.803117449077746 5.403622476335493
P 3.5244237263963107 5.30563922825442 8.820199630467439
P 7.883885338944421 2.3613887448828392 8.249822860685626
P 4.451412629212624 5.617062051413729 5.992642913539966
P 9.165696309038667 11.749266166928157 9.295004600921128
P 5.681565735679023 3.833691942430951 6.421422859906359
P 7.909756329624179 13.189704123879157 5.004797864013523
P 10.577942650712073 8.959709998504671 4.252771307580585
P 9.266210271532406 11.632700434690578 5.816346166928929
P 7.828907549868241 10.548848835794692 10.59994552894559
P 4.805589545038467 3.4687906026933932 8.448561585155359
P 5.602911083806928 8.836361491798415 5.516061317780122
P 9.56196127279581 5.749859064791623 4.723160097709625
P 10.775459722139868 4.4432580733974865 7.775956664291492
P 6.655751903981581 11.681612832066003 6.845169698994209
P 11.449639009798148 12.031140929384229 6.243886552722297
P 7.446430548480063 11.64014694592119 3.4594770854624657
P 9.6890833859734 7.687720531270651 5.88457518317473
P 10.06558863281741 2.656321779847841 8.909365216946886
P 5.000009357787859 6.765146014962523 7.884516290581425
P 9.47917703226347 5.51622482927997 10.879999350939253
P 9.48793816189486 3.2942178701638034 10.981579596625382
P 4.8855733114718625 9.8337725902982 9.45056789074976
P 3.5524148255860504 8.44943996968318 8.217207288723449
P 9.61642560757052 10.95600321999673 3.8186486707008926
P 5.8938443442765776 10.96631214334444 4.958625308693349
P 4.3659842671603055 5.009073028761353 10.893594118717171
P 10.028200333860099 10.148657600931038 10.563452579560188
P 5.051318493672113 8.136602546812215 3.4800434692293587
P 6.945383531015104 6.91844031851548 3.297041189635542
P 4.994763118544628 5.9551022750362055 3.8397152197927342
P 7.167716298426625 5.94461925451229 11.620180112308363
P 3.691589062205519 9.664559999307471 6.308011602867478
P 9.92459497613934 6.260261052444266 8.857278634812767
P 7.3367536211863085 2.704203904125247 10.437030779450582
P 7.620653447836358 4.438477554993915 7.418180599332127
P 11.467593902390202 6.123050118599798 10.43996804817302
P 4.855052028678214 6.845427994551441 12.087845682522286
