46
Energy = -237.61780549 eV
P 4.0323603623885615 10.025821867188009 11.250963368087275
P 12.504333526302947 8.459325967132465 6.135125035397818
P 7.3277299997843315 6.247550441176448 6.184157130568559
P 3.63702337106679 7.249286262543588 10.212578519120397
P 6.847721717677763 11.636456362468277 5.769877649687901
P 6.610828946318136 8.031322537499985 11.363070441881856
P 9.880618508092622 12.728128264656336 6.825425555710863
P 9.831023615404487 6.262162573498514 11.832223143307168
P 8.627177957455647 4.562879823529703 7.051942675131973
P 6.64013165741536 5.811256514673044 11.240050505836383
P 6.615679135375955 13.037569013227172 7.681926018825052
P 4.195219227547687 9.276159094982992 9.06857885934202
P 12.447353519213877 10.29714933993963 10.521422311476691
P 7.9958894391933875 10.717700984443843 9.458437260213078
P 10.523507251376623 4.986816088647746 5.943721924385483
P 10.563126781507508 8.074206492351076 9.114925354274229
P 6.15598153996831 12.782135393460235 11.120936848021891
P 11.46050368630821 6.298439421669758 7.450290123621666
P 11.510390719843741 12.091612788010702 9.591771235438157
P 9.429899290673482 8.380787597029293 4.607620718007059
P 9.902554093943586 8.342861168221582 12.634234396652843
P 8.277078091337223 11.806601028862083 11.404949881046475
P 10.274180761489571 9.651412070413832 10.791249230177486
P 12.833679562934 9.86352441996911 4.629530601227665
P 9.031614071163382 6.217671177464322 4.701459242189356
P 8.454992112664657 6.3749249328836255 10.051341737863007
P 5.906543376768637 9.696414920175803 5.800446695698068
P 11.61688210874604 8.057762356654623 4.158283309019025
P 5.31807084050763 5.965856022838664 9.427478228906633
P 5.297279299898988 11.254988891337671 12.581479022952815
P 11.627866953623638 6.690428780301273 10.567887541317624
P 7.735098008542046 8.480966574716453 13.21885248078646
P 9.238344736764326 4.43303620393724 9.22151544945758
P 11.464538104611217 11.373419047861672 7.642669018536631
P 9.413166129185043 9.248250907781053 6.688263921705994
P 4.505528086662769 8.051473381671938 12.142458135422403
P 7.24602229383814 8.426207089926576 6.919212981700037
P 8.982512539065626 11.16538598421044 5.558965664223153
P 11.461382236430712 4.895089067230257 9.19427193736287
P 12.49771298516664 9.096919721559479 8.589891950454174
P 5.776144809147347 7.911071536620553 8.478120678298295
P 5.903655545748514 11.591944459237295 9.23842277062277
P 8.589159356634731 12.76424856912691 8.642552707600244
P 13.691565549534785 6.682466220204805 6.955090132173409
P 7.419173108662045 10.710723883060831 13.139915492567193
P 14.224244334298074 7.815074105888956 8.72190146398688
