47
Energy = -241.96897394 eV
P 10.062077606204792 11.033887830897427 5.409290026431731
P 9.542853625869501 13.995829793095123 7.091989048721469
P 8.881672651812854 10.150872110502956 7.100538192031794
P 8.101670624703305 12.210746466694948 7.336800928710804
P 11.912791167339401 11.261816673293188 6.595715425257061
P 11.658346687068322 13.322398781277808 7.527754532317393
P 10.934550346496584 9.624114884224312 7.759843125721641
P 10.840219495676088 13.003911693103372 9.56813986309897
P 7.2319021875692595 12.400074197903589 9.42441561124885
P 9.782406049376343 14.902987947840016 9.146291658305572
P 13.714731942114772 11.455349063484483 9.682608973518937
P 7.72378327074245 14.475110704619132 10.027054174727757
P 15.757797795097567 12.232559206733598 9.449459721463933
P 12.686366764921566 8.57329039458464 10.775762991447115
P 12.923717628331918 13.404419784732543 10.31416301244164
P 8.106627900150915 10.836572331826988 10.762853388956412
P 13.694949269547099 10.396084125346976 11.852876699602842
P 14.047757369577115 15.137318992135146 9.639621830425956
P 15.781827555173159 14.167477140764344 10.58311417464008
P 15.857975949715469 9.698873993818669 11.843420649945354
P 10.314487443746433 10.87699360428263 11.421431576231441
P 17.014314636141393 10.800584723087862 10.573103864733593
P 10.791623988953654 9.266395897048815 9.92914825650498
P 13.495550874866446 8.625972041722509 13.649855347214515
P 13.675883389368892 15.826613587281374 13.180772025286952
P 8.515373657554461 13.798504728052208 12.010476622334394
P 15.227637958826037 15.714579129522578 14.680895873864818
P 17.03069608336883 12.234631121976184 15.519802848039431
P 14.110821207782537 12.349703302299844 13.761357466570082
P 7.245981421892947 11.987570033916791 12.448621599063765
P 14.178594622066965 14.002808642650214 12.095701754223079
P 15.717556167974902 10.891111903023228 14.500442730293551
P 8.083145270266769 14.978631640168116 13.79704141765408
P 9.93891419957782 9.119260233985038 12.802127272961517
P 11.752195183638952 7.750368939181411 12.641851300818017
P 11.881091864238796 12.798374896735966 14.070573407600754
P 14.452468073471637 13.881662842016567 15.421803112800719
P 9.113442875298075 11.906519705890307 13.685195216007978
P 15.682525397931634 13.03565187827931 17.0521681503339
P 12.789062179896383 9.167648152967104 15.62203161187362
P 9.58394201322786 10.017320228144758 14.822248106783602
P 8.513208652502321 13.458098455275891 15.138053657988396
P 14.778099581646686 9.883080930375625 16.237627554929617
P 12.245977022381561 14.013354544957815 15.918415977707022
P 14.251273622488682 11.426128669005061 17.713606014817938
P 11.577449414877345 11.031910845228463 15.419017257221412
P 12.101940964663372 12.180106862187255 17.302199603265578
