47
Energy = -242.86121366 eV
P 10.07860284520776 8.7995300643638 5.251657459290917
P 9.175100363019018 11.812375172830407 6.210137930409655
P 11.937951909834638 9.627370024178381 6.039472090922483
P 8.514792718716318 9.686435713143807 6.426008646424721
P 11.452130517043468 11.845385978442955 6.214084320000738
P 11.228130614018504 7.286189201724635 9.010760012584155
P 11.336951410506046 9.278921018281913 8.121000340789468
P 12.121924546305477 12.340749811040478 8.29331286930129
P 8.660140295822849 13.289628384660466 7.859177226237584
P 14.488543866899304 10.02544399610111 9.04883117999511
P 13.949054025565305 13.42769840576136 8.302459286907862
P 9.01436369541158 9.70554362523367 8.641694515865648
P 9.058574598406278 7.73933849653306 9.743279096537842
P 14.747734936967065 7.9065956628846354 9.671999731126183
P 12.867654589105014 7.688014369928187 10.600192954857945
P 9.842958276115208 11.036152189500582 10.394048091418346
P 11.12229818826853 15.33881019334414 9.83680962997349
P 9.135070677133983 16.083260816555022 10.22881227551836
P 6.79387427091098 10.222010939359654 9.157724815380407
P 6.7644053672641915 12.423083901344565 8.769369131618532
P 10.218261810791823 13.109492252811284 9.470297881967689
P 12.305687238097708 10.553256746638121 9.608166415063096
P 14.611821236868954 13.241031826864683 10.393340906070156
P 15.481992493170832 11.110831299680019 10.708619618161602
P 8.770318275345813 14.124259254662055 10.955397190756175
P 6.6663555692089185 13.41824273019857 10.829725291506616
P 12.463837971021285 9.453386230001055 11.92928066681067
P 12.401454931819647 5.8780766486128275 11.902840124135357
P 11.819995470558073 14.834469400544808 11.966951762464003
P 6.33328721206083 9.920913677037008 11.258902405178393
P 6.419111822285647 11.769867148174848 12.316852925865291
P 9.822484154577399 8.709506682969975 11.659994325656161
P 12.751471835449122 12.841235969223016 11.549998796702244
P 9.960218159350484 13.877994952514142 12.878326183061947
P 14.519652533966347 10.211816168100373 12.562033115209568
P 10.43933652300073 11.700266551528747 12.539289969099137
P 8.47899859206859 11.276018556912156 13.527026946998843
P 13.547082699465173 6.284742710263916 13.733986911322368
P 10.564440761975586 6.83159221386056 12.856345590107708
P 8.289623100721634 9.079258277552613 13.318292036993318
P 9.149184318417161 11.260167417398906 15.82556487263669
P 12.239125515805412 7.969708629632606 13.658353002453602
P 13.810300833211583 12.170800187080415 13.437332771445014
P 10.930080493831046 12.484616781767985 15.99758426711478
P 11.879583524548094 11.478624783414887 14.376626377378242
P 9.678787154924523 9.113190656002594 15.329995274966532
P 11.873629124494911 9.45047535089814 15.304423835272567
