47
Energy = -242.72149063 eV
P 10.542579469745304 12.951907409675838 6.842125091954079
P 12.220988390106386 7.979861289018195 6.347729972277281
P 12.711113694315758 10.187885630783354 6.768769102261361
P 8.801597188477073 9.911669607893689 7.296602097844169
P 10.799075148972014 10.865697774300495 7.534803962177129
P 13.729333839631252 6.587197316653573 7.431985566986233
P 11.046341129008233 13.57889399031164 8.988865687257626
P 10.669150739687264 7.012523340682597 7.645145889367141
P 14.83813080602827 8.431396631346615 8.00369849902678
P 8.378265505581162 13.060598463875175 6.859179817205745
P 9.091571103699266 8.187126845576561 8.716335719637872
P 7.897640044188997 11.646922110872726 8.429596473840663
P 13.30560155680564 14.459934634634129 8.484636066538908
P 13.213265795429583 9.597682853797554 8.977969945377657
P 12.139006958246991 5.83551009060365 8.903923822967249
P 10.482049478999665 15.69717962907017 9.263334193065774
P 11.095257228026107 10.888238081237525 9.802349140330936
P 15.912694790028805 8.549891352275873 10.012798804590451
P 9.056627101455096 15.909688659252643 10.942879234201536
P 12.682981527429748 16.264257512618812 9.592655065661436
P 15.006592932982015 10.673402319903275 9.948429953674896
P 9.36113967423342 12.275977273325779 10.026076404341303
P 6.750018862179388 10.05043807723395 11.22216240615918
P 10.266480472212502 8.935804310975405 10.4765676453299
P 13.941656216502519 8.235442657023587 10.913611103301248
P 13.808840529086506 14.6406263253337 10.610400191927289
P 12.987108647428148 6.283782099583553 10.963263834723872
P 6.216231994992671 7.005742203737644 12.680909619826835
P 5.320218582421829 8.963378889183614 12.56474942158543
P 9.673317355733774 15.75470022227055 12.911725450889904
P 12.00085330076691 13.61426977796429 11.434951586465926
P 8.668438365554552 9.350406829549778 12.076424511900598
P 6.639889131555303 12.155697741489 11.955216042296858
P 14.596116694962657 10.991497699780261 12.171809248708211
P 11.29014434828708 7.16875480647423 12.066522005371676
P 12.422697367164536 11.636038122017391 12.378035136793784
P 12.133417352051694 8.377453488207212 13.571625759289935
P 14.24204023335272 8.83749127020346 12.972576307352028
P 8.16382675127369 7.545243911978605 13.385227507122297
P 12.470490504888321 12.004861006371417 14.568326713947643
P 11.71406755950872 14.982971457064926 13.13377197319092
P 11.625236740692024 13.82740749108892 14.980592820753241
P 5.801123249251236 9.821434483947645 14.558159963150962
P 8.080132893326393 12.454673739656178 13.618912756502692
P 5.960945331385705 11.999756544889653 14.125456386931782
P 9.278035089726473 10.582178638446344 13.819822142054099
P 7.906546880536208 9.165383945739704 14.958167511757928
