47
Energy = -241.60067145 eV
P 9.623474340101383 11.692145747885673 5.256648115587535
P 11.607277958746812 12.51096494642315 5.914165422385016
P 9.308359955509868 11.412941564229293 7.499447787820887
P 10.388142827137154 13.356819662834141 7.631465455895121
P 11.020602577693047 10.418834447651115 6.365874724135109
P 13.83373916873132 7.961092482610852 7.050599772737844
P 11.918072977065624 13.732963324148953 9.22471380736008
P 7.585694024154473 13.459108801162625 9.299659201562207
P 13.864040084082196 6.733125747336129 10.241792229605718
P 12.665053045040887 6.638594565167298 8.352416714101274
P 10.895661737111409 7.977015349772499 8.874376747237426
P 8.694941992994563 15.253230295249116 9.801318234805947
P 13.444549405635348 16.468823118365904 11.930352772570387
P 8.056172772534584 12.303401545379641 11.081625965887435
P 13.918044598828498 9.010867751957914 10.159348171246268
P 12.565092088050406 12.177079429750744 10.73566775037433
P 14.502596021696318 9.624439212603772 8.199418657457862
P 11.621045485782313 16.68702707954779 10.63889849825185
P 12.007542138800835 7.031908038606785 11.439094241860117
P 13.31121571840514 14.852201391468205 13.44877689023396
P 10.182641763452624 6.422927490443271 10.34600873189037
P 14.956987569304635 14.822946603898142 11.916891821506535
P 10.660584763532121 14.716472150263463 10.730369023469041
P 9.97117521403248 11.22729228422862 10.716671886283702
P 6.946335116977113 10.567637390516605 11.834872493785248
P 14.66275805581977 12.957044963250993 10.690146152528463
P 7.7708435042473765 15.590119392762302 11.790836922466816
P 8.845419760178338 7.478712108888813 11.873511565878703
P 12.011054446350661 13.151985428409528 12.734094029133722
P 11.710331229494445 9.13246782518668 10.662086723343476
P 11.873727750407742 5.964643634915236 13.368468702326565
P 10.72426011920601 17.702141931680003 12.423570336086511
P 8.03914059096207 13.651888667769454 12.876943090187183
P 8.943706377469812 9.811592041800033 12.002265215940488
P 12.194501867399827 9.845156434330173 13.48881067265762
P 8.928778666637564 16.967927732831715 13.090313968193582
P 10.06072764733363 13.629043415511045 13.819920024024752
P 15.346388115612884 9.594647897426096 11.756053464630503
P 15.667430750601996 11.615103944330011 12.086093199059361
P 9.756793378516022 6.6394226215226855 13.769318311278296
P 13.033041612608216 11.777258969658476 14.207083180786308
P 13.119435203432477 6.683009314820396 14.939314394073962
P 10.064984001016732 10.104782619574241 13.998739377700485
P 9.874384876308135 12.025079901761105 15.301126375631066
P 12.271501549752749 8.59710795844039 15.433959048398895
P 10.037124926063637 8.309828184288742 15.312526592047305
P 11.874966908637456 12.07151927279872 16.044688219032853
