47
Energy = -243.5427573 eV
P 11.99141889022986 11.155166635826461 5.582752802408569
P 10.600036062111174 9.822766974139512 6.56164044036923
P 13.87654623596351 10.270593680712793 6.231679182469692
P 13.60537048220796 8.04303022084042 6.087180739006042
P 9.816123532276931 12.244408836399792 8.395670926266222
P 11.372499005361494 7.814985562560605 6.144728346438893
P 7.834944160102245 11.259334010738147 8.603731889703159
P 8.074660404242483 9.028756427480944 8.475548301166487
P 11.347810986632949 10.476666788594681 8.608923724825729
P 11.712428411785025 15.157757224207762 10.099032121065662
P 14.4480814935774 7.222257331583375 7.94083785103765
P 13.373079717522575 11.277784931376283 8.13117817892697
P 11.000092401887791 6.68684434376642 8.062518065514203
P 6.434687475265204 8.0766813147109 9.678254650177095
P 8.534242489122096 12.695922786393934 10.16793048779746
P 13.570703192112957 16.3461197186799 10.569536696290626
P 12.39218246777545 9.112560785437854 10.190780643195426
P 14.440856287140772 14.189284200694791 9.984506011446525
P 14.32968131182447 10.106944878647111 9.913853506183953
P 12.831598709283696 7.027030426624731 9.260790745952072
P 7.98605805921605 6.445480149489832 9.919876966339114
P 10.217505235308504 15.399398315699917 11.619067579436472
P 7.554010821388499 14.09724779889814 14.035403854606296
P 13.462783659754932 16.387096619426124 12.813261810090694
P 12.79209572450056 13.411950377576913 11.22428424563636
P 7.885765085422546 6.749116970188535 12.177006598295433
P 9.690374026837123 7.874290116335023 9.508969988265772
P 11.24628740910369 16.636846056573205 13.133741452576478
P 9.331328156630304 11.628951379002151 11.931094810510222
P 11.33153067494113 9.150360184174511 12.192300514666805
P 11.67990441033753 7.120791965279649 13.078480137061106
P 8.558926959742173 8.881846250609666 12.103146385773137
P 6.384746064078947 8.42241691767444 11.944526269494053
P 14.281211471091897 11.597322032422545 11.564877032323901
P 15.939545986479434 12.885403611241514 10.868895747669672
P 13.85392320915497 14.252731014551049 13.099840873194731
P 7.575181257307651 12.03469741686556 13.330522142688997
P 10.748554869263907 13.168524849830858 12.615606975945814
P 11.03442611555424 15.487538503623927 15.072072858827985
P 9.60649220908553 13.9045457765893 14.445763249472567
P 10.86031424779384 8.10351186261174 14.88467741711724
P 8.440663851553387 10.985593389550804 15.119579449467052
P 12.708943201912328 8.935024901689944 13.902679074039906
P 8.792827865594566 8.879691404220083 14.348619769510625
P 12.779362532527715 13.927233306051301 14.999970663761475
P 10.28178695430411 12.152048408202251 15.70791902194128
P 11.941293346849868 12.018330464365427 14.219626923207148
