47
Energy = -242.56531793 eV
P 11.46111445855987 11.75372681151346 6.337977406807357
P 7.645788132844317 11.381184943406565 6.11764743043142
P 11.542989572711619 9.612025462784228 7.054623799860122
P 9.416534341609212 12.72451599455195 5.963653550956795
P 7.587329302119843 7.768453309404233 7.633011429294305
P 8.128834776790656 9.876933943186673 7.8123248195496
P 12.388918858466209 13.089833667476757 7.907564403392288
P 13.559104787471556 10.101903674438935 8.004891113945913
P 10.310563452034344 9.548140264081173 8.919137214980559
P 6.214799449521992 12.599702342111726 7.197626047141709
P 10.912781520190427 14.676161726642917 8.617206467809671
P 9.006688214629627 14.364453380798242 7.437079086525775
P 12.581783975570815 11.490763523301979 9.469299006069196
P 7.2605255842595415 13.84156170620084 8.686219032206004
P 9.171728870912217 7.6364657668275 9.07123035346038
P 6.697444640157808 10.690131663187755 9.297366205202286
P 13.767045930776867 8.280786839380504 9.273326922955189
P 10.870734412911721 6.158033336494581 9.598881388567346
P 7.943664292900966 12.29199040222122 10.178598847606468
P 11.777307858152799 8.031648615269367 10.31180289485155
P 6.794192102698713 9.163829643446363 10.976335699510091
P 10.199995935477514 14.601671594338498 10.734845983049654
P 14.181226973485845 12.58573087119478 10.674575864267412
P 14.314968899492953 8.965187124565205 11.32276753641492
P 10.478537034215368 12.435086692584038 11.266403727396888
P 12.52630444314822 13.140260786475336 12.114122494317439
P 6.900360238449338 10.434004207737681 12.839203993949685
P 12.082114420539739 15.276822820472288 11.91867580926392
P 6.59009547557022 12.482708322659516 11.969427618907183
P 8.653305162249373 7.932057213719124 11.28655881893984
P 7.664212767857491 13.788320287841284 13.331862220154587
P 15.995110245852649 8.225649352461788 12.688750655588708
P 10.024979627858281 5.570555058632604 11.556820116445069
P 10.335433703977001 9.347384341528821 11.603476348498038
P 15.423998477693088 10.852463305759699 11.382920691329659
P 8.871279320762355 10.673992525500475 14.076503899702116
P 12.767136687742003 12.525609058077176 14.205387726511443
P 13.142686082033107 6.963788957091804 12.123595522908063
P 11.354572389979381 15.516520612370206 13.97686130367908
P 15.790167598555783 10.339999932113537 13.56121731773446
P 14.35105216090145 7.44355033383178 14.005697734369258
P 12.434507594256623 10.420649250445587 13.329109667055294
P 10.588297420097627 9.1704182234217 13.808819737539835
P 11.492120336932718 5.902243817695513 13.02880402683913
P 13.943699459369093 9.579548365571041 14.711314071104361
P 9.459453915998381 12.656018402645962 13.309573256525784
P 10.879531944477193 13.572534376801883 14.79192358864762
