48
Energy = -249.6663146 eV
P 10.235961296285172 13.253765528927618 8.34426697702247
P 9.590659579982082 16.35027438260172 8.081305626497446
P 8.653993741663193 14.623633290126406 9.136663378833278
P 11.804467080148125 15.871641433013039 7.796430130192448
P 12.199807002514389 14.06749010760275 8.972493541752488
P 8.275801793618305 10.436824127931716 9.563728067373255
P 10.084539259591928 11.653376774209733 9.817243178700119
P 17.376869778507917 14.104400379772573 10.957383701697333
P 6.886951503592614 11.566361972911775 10.796677482674253
P 8.866833469224845 14.737750166893541 11.342495115364303
P 10.051179944216262 17.8424112152852 9.712425133205727
P 15.381554142946273 13.944937959575048 9.96787938090995
P 18.08463957363847 11.967605359300086 10.977205406021424
P 12.28164211976499 14.182297526080106 11.210126820787584
P 9.117949796894408 8.489308359050142 10.35795938527131
P 14.592996642276217 12.23344151612424 11.173432577117453
P 16.184942494999298 10.832841370809515 10.600579843678519
P 11.836085443445446 10.366457900162786 9.936204014066032
P 12.230000651859775 17.665606595452275 9.125933540800924
P 9.759079043647008 16.75255234622872 11.661738413571092
P 8.101062146623748 11.770377372667223 12.535081903418275
P 10.219204657763127 12.534805516569296 12.00258480788587
P 16.888843635318306 14.136840719691529 13.135204577821257
P 11.050691856499036 8.428066344587885 9.404483318053385
P 13.804260629156273 7.2014596198198815 12.24594637686529
P 16.278866352022188 9.59355837902789 12.439948673024318
P 11.488246754317633 10.567381785322565 12.271498680553467
P 9.873386588909085 9.039874531656892 12.372265782792816
P 7.21071946307365 13.025093273712208 14.081719431526823
P 15.021214982126931 7.421624015249362 14.134237930941115
P 14.0983511806554 9.199788129905942 13.150374718155385
P 14.284595785930328 15.187157366786964 11.487467499893123
P 13.23265188063565 17.24208433349562 11.07810446343784
P 8.172237497243177 9.825965171553998 13.619207147451949
P 10.752556465187764 13.351332829631982 14.191334771922223
P 11.755888030170045 16.069331509812862 12.269102432692858
P 12.24424207187086 6.297351053171002 13.649947690969734
P 15.001537455454033 12.88099487763587 13.280233183760211
P 16.364120473104077 11.187776364729055 13.972839703180883
P 18.190970954811174 12.220010355281902 13.264532931274031
P 10.120044091376505 7.191434664997804 13.618285808687546
P 8.855175962573282 13.629406967692049 15.220787665273969
P 13.243623492375612 7.030060379224785 15.540227981509247
P 9.291950239373064 10.244343928293048 15.491354397789596
P 11.169094361131762 11.288013625214262 14.74895517791412
P 12.347302757446702 8.979696145055614 15.052229640650529
P 12.723300713726857 10.84349543690688 16.137806607334163
P 10.27167805225028 8.221469880191043 15.623837869625689
