48
Energy = -248.96024959 eV
P 10.413737939872757 11.890599676298303 4.82848330816164
P 13.393321168102139 13.303436944641085 5.576980303450789
P 10.135576390869737 13.856344538701014 5.922650049546579
P 12.426918145547662 12.410111928062886 4.010029441019837
P 14.7323522297843 5.449224371633117 9.503736387173987
P 8.212415576098694 9.651582336301487 7.207684443073061
P 11.872078401262044 13.20701167433447 7.209554035589329
P 9.63172425654624 4.315714413488004 9.613735648193101
P 6.264385474698204 13.435533747345893 9.557501689004972
P 8.50383989982442 12.981579126291352 7.1191874081582345
P 11.267237304301732 11.074415666150797 6.764649326953161
P 11.629316425007291 4.966849864558779 8.868791897044504
P 12.936603615330503 4.620591900341946 10.573153305409317
P 13.916504194408539 7.324111498111598 8.611415839053128
P 6.345710878545686 10.172657909862467 8.24146841641058
P 13.586269854349531 13.330598497555696 9.977714279837883
P 8.059947164968909 14.430938356114295 8.719699880749717
P 14.584942565843217 7.336271632105168 10.750624048012995
P 11.554539743037544 14.312759556646931 10.090133392884347
P 7.417863361260361 8.400411290894665 8.881120551370044
P 11.688408533390687 7.151378515275861 8.647738761269844
P 8.635886301883884 12.436632665126746 11.658591202418577
P 12.788907188792306 6.5044063519304025 11.824964602739627
P 9.526160989298566 11.247656462358508 8.111362968150184
P 7.241350432220488 11.451418549459664 10.066229487565918
P 13.29331500523065 11.2811359847673 10.810791067233277
P 14.061369922112513 14.589920055823002 11.79029808280813
P 11.664321608440856 11.356751013595302 12.364433074101889
P 8.435841143761092 5.726948119506963 10.521990919520483
P 9.167427205627915 14.410317163376329 10.696263614600133
P 6.064484675311754 10.326155493929981 11.537873738403524
P 11.860760744986523 14.999727034983106 12.141250100452591
P 6.8386296933302475 14.686362967567833 11.341928944625526
P 9.463269220262378 7.413137359898258 11.423444554512615
P 11.505773582576767 7.88998924324236 10.714847886858614
P 8.344136337079025 9.249056261205759 10.766257148879152
P 14.003724287348737 13.23806254542136 13.592614400447262
P 13.033045741133382 9.856618917463447 13.292771459197313
P 14.615072881829935 11.291740681286345 12.612523888456863
P 9.583945481831305 10.639718141401314 12.413397328418613
P 7.208434852717777 13.254509574326983 13.063084935122513
P 5.844851681608866 11.535110514843428 13.248066071644777
P 11.786382374575311 13.148719720331222 13.643785083088801
P 12.767061866900965 9.955742427364871 15.480683844660097
P 11.327085956654201 8.453344278239841 15.984092282356814
P 10.335648383400446 9.409568040346771 17.53440280512477
P 10.951657839661543 11.45214501163933 17.731040560268784
P 12.399797901449777 11.895018398923721 16.278993959050933
