48
Energy = -246.54116148 eV
P 11.711171351929295 11.173115557984172 5.704949536783437
P 13.430209213224183 9.815157276871474 6.0952125698756285
P 10.143826072568345 9.790534421912856 6.584372533384765
P 12.146302346572092 12.072029870135754 7.786141682665688
P 11.922917801432316 8.39753889678276 6.959806107547365
P 14.342679493893757 11.67844869660164 7.514112480597187
P 9.844797114030285 11.379869401157627 8.220541662032735
P 8.012910265883768 12.495795686382499 8.387930974052116
P 12.309718063156861 14.256804921133526 8.366013602982035
P 12.514454327296457 10.736802882205186 10.039763915278174
P 11.128983162854977 13.771392546056648 10.258210191817698
P 12.323050807567645 8.461530653750435 9.11217067994603
P 14.652502020335923 10.47851566857517 9.350751177635544
P 10.045958179219044 10.835873936748579 10.393777293043954
P 11.10996344904021 7.214402317450588 10.534793157949844
P 14.443394241338325 8.26202254177208 9.734661529595375
P 14.311692336160894 13.602872683922172 9.285659326852496
P 16.193443204041312 11.502372709138154 10.492252044168556
P 9.356005420304854 8.68870626832404 10.494866802003523
P 13.011889526332046 12.81390179681265 10.868292487039893
P 10.646010110539487 15.3294433128818 11.846328994086763
P 14.11945631608528 16.554971827606682 11.243308014908369
P 7.839751350808393 11.376773054503463 10.213946869651872
P 13.36771569518113 9.231644279556736 11.672239825037499
P 12.59747527229702 16.081129728948678 12.59551970505137
P 12.458493088641296 10.897065924115246 13.223468777314144
P 15.629819350441641 11.59008219696852 12.591998689306253
P 8.564368311516228 8.54334670709924 12.590207191781234
P 10.332305267418912 13.926662511712983 13.49644820752553
P 12.468492203350856 7.342065045443314 12.202588302317954
P 13.666414346605272 12.746440901981327 12.987832409257113
P 10.365996615070927 11.30630779463546 13.507869882724481
P 7.048148285253809 12.248749577978248 12.056598438005555
P 15.093148541931416 9.4909030702109 13.121967937810258
P 15.61887430085402 17.05646523321722 12.63432314776645
P 12.886665324704426 16.251654447499533 14.665473586207199
P 10.192584792672386 9.01794085176584 14.00330242956301
P 13.435787715203073 9.652699023117215 14.719465644393358
P 14.887302896702673 16.893348868743914 14.618499838851672
P 6.924627439532451 10.147118907888546 12.85826118274301
P 8.163021604916578 13.82549569798732 13.225979813323418
P 10.163659815541612 11.549580279401143 15.776639779752067
P 13.829487023635666 11.131845347268566 16.315579424561378
P 7.128581205437634 10.628303813274886 15.023038034059208
P 8.999284434802373 9.58976096564713 15.78353522242896
P 9.02586889192725 13.160350906921412 16.55430243572546
P 12.021983524783506 11.896774349555132 16.96079581552972
P 7.38526846388881 12.921847227278581 15.142661231991697
