48
Energy = -247.31585744 eV
P 6.977194682712722 11.385452902861816 6.648420405653687
P 9.089284940975341 11.634982582534006 7.151287282045983
P 6.066370928430472 13.55426847032733 6.950278925966665
P 8.797035931926015 9.412519385648046 7.305486748823517
P 8.20682583325449 8.693285775672168 9.264746846041284
P 11.698830320266781 9.16565953085904 8.16916916477407
P 12.941557033980333 13.309818569825945 7.223322824758344
P 5.94250583634292 10.696141977871775 8.532356562258602
P 4.875156712292848 12.744863576157671 8.684889989366425
P 13.861709381134006 9.843748270182662 7.965047263271725
P 13.719815504950379 14.713313032304754 8.758783966876162
P 7.643914964537337 10.689574991541024 9.90874065159159
P 8.730680525900755 12.72930449638313 9.142944628911104
P 11.649334624454083 7.115214274927564 9.090897947860963
P 14.931915251932475 8.651517994705586 9.491103632696813
P 10.28710432006062 8.203465330126901 10.58696125647185
P 11.805413254513372 9.92996507598206 10.335239804832058
P 14.374774725221561 12.831385619887032 9.938889750482923
P 7.581336377925895 14.527312295469978 8.273939976958378
P 11.576337426979908 14.759464363571004 8.178613214970147
P 7.021991013212824 11.214914028763607 11.904287555951118
P 13.272011906781644 7.471043263346341 10.606488269306706
P 12.860318130390526 11.640688124894005 8.955991806815033
P 15.607270395717979 9.604187074671572 11.422045854657787
P 6.012197624639918 14.297110150221897 9.873403188356633
P 16.16557144247237 7.569040011668255 12.332947481734887
P 14.077433554184447 12.56870706048909 12.078954960533691
P 7.482203079516466 13.35405200982174 11.263249999333661
P 14.835556599209719 5.9851634461732965 11.370333578972083
P 14.319534745427163 10.594450848598207 14.705365886884433
P 10.802927493986525 13.319543034195824 9.759439989241566
P 11.017352411891759 14.61599938499249 11.615303667374091
P 9.034259751284626 10.397429706851362 12.685245775180352
P 10.264120601572527 7.413686512075417 12.660965932520984
P 11.983910081913834 12.79097352421786 12.458176667903277
P 13.737283070822109 9.713121211413425 12.706665909506311
P 7.521494254773312 14.945031182902383 12.653664268467368
P 14.464406119105448 7.892496023474281 13.780391112431522
P 9.566575346476014 14.795135343658258 13.360710295771302
P 10.52472502849507 11.3984795004828 11.39610067438535
P 11.938903416678574 6.267015143573355 12.048444048107488
P 14.575784630452954 8.652595480148806 15.732995600550716
P 9.852933257516435 13.27906139869667 14.963989314427353
P 13.669545928279023 5.809011409532366 13.318858689951865
P 12.016845126171887 13.18431969981161 14.66931702288016
P 12.359309481590246 11.264189147251338 15.68750417752251
P 10.76776672142951 9.84998375919502 15.240863963879296
P 9.10133566542331 11.13197945924924 14.757838919949519
