48
Energy = -248.28606119 eV
P 12.613611912563298 13.496967733232221 6.263205121405018
P 11.196820198731226 10.232967248724623 7.13768855311181
P 13.29834065528164 12.264302166909522 8.010108913820165
P 13.440219265010475 10.194027361873296 7.061467320235398
P 8.291310887983483 8.249434656867281 8.652544188143835
P 11.030844430780427 11.989863926456033 5.7397119754837895
P 11.539482935504312 15.041903519551507 7.539688212467872
P 9.117114861211327 12.907899978742577 6.252992407409512
P 6.78436239010175 9.701198336405913 9.370965391242201
P 15.327995238313992 12.460545228401905 8.902382244398595
P 13.462897107134921 9.36236928439551 9.109763119988553
P 9.487570209390912 14.205911327329924 7.865069097304197
P 15.48015349977312 10.213579755876767 9.457290526529091
P 11.55925253474946 10.987497134399158 9.265103752090466
P 9.743486653468297 7.866417390783913 10.147044949120003
P 14.354633677705921 13.11501667467505 10.80321653569815
P 12.36656071142636 14.115578775303849 9.446675112947327
P 5.757023257553312 8.838647407505233 11.15787118028352
P 7.188902798842393 12.028149555865255 11.813197621718942
P 5.901394883784203 10.359649951971509 12.781451183327238
P 10.446109540383487 13.029297610538208 9.734598997054091
P 8.272968394599976 11.177141029542948 10.078232630185921
P 12.716491752482264 6.812954878069815 11.572859521422574
P 13.53763842545826 10.58570557393673 12.073850890822658
P 15.68779599261673 10.154591713450131 11.745325538561461
P 11.454655158106208 6.105684419896421 13.119066868060742
P 16.131234420930028 12.345283865294414 11.985689236239505
P 10.77416694976357 12.140380328106275 11.857355298967388
P 12.568456507442743 15.65411091735759 11.181934158165584
P 6.929120982632708 8.700320735388479 13.948374601885288
P 14.810662615098297 15.265912551999522 11.282584575409187
P 10.093690028301193 10.128316565617155 10.950299296481557
P 9.077064144839571 7.294812684396916 12.155414465519186
P 12.647456022149221 14.086810216769088 12.75033878073624
P 6.835105557995737 7.174909041975135 12.229532175648597
P 8.952396277075252 12.613946975421035 13.090393033942384
P 8.980235044343578 9.289303537234936 13.366190739358268
P 12.207066580237841 8.796904539492887 12.330281464892701
P 15.394409784314712 12.755991299668363 14.0336285425813
P 13.708771912584188 11.196617750302012 14.206724693652802
P 12.054286527074483 7.8751511806353065 14.331054702126343
P 11.528685833807295 11.833424175314235 14.24071567406378
P 9.233869037568343 14.557510597244443 13.940999149282963
P 10.156444478785442 8.680368927906958 15.166160344653402
P 14.555801516809868 14.87926787508587 13.519818831821732
P 11.2635521053205 14.052379483717296 14.57491778210387
P 10.416505634428633 10.816382600625497 15.878942269059136
P 8.502574187051914 11.243785031254209 14.756471852089161
