48
Energy = -248.41143998 eV
P 11.36588846803068 9.504130596262659 6.169837903149109
P 10.415068129967167 11.225890470027991 5.529035493246081
P 7.070902439480623 6.664875950066468 7.11521963844866
P 6.953829127808688 9.893017414653556 6.090923766485965
P 8.2108523868523 8.08668215077946 5.861261951637266
P 14.416212238930777 14.368072317432986 7.923711779332882
P 12.583849656000648 12.991662866329806 7.616588760355649
P 8.528981544577618 11.47192927585288 6.685221842147749
P 15.544102531020888 12.48691816622147 8.539525332485386
P 9.789954900195951 8.590888667518277 7.381885795370744
P 13.717147048875088 11.199231802441567 8.487022757316875
P 8.6343678582282 5.750923950415971 8.512415151903715
P 10.526748600681552 6.760479680588248 8.180236900028026
P 6.128364919105826 7.875235839330867 8.77652528445621
P 6.756634712507668 9.969652090720093 8.348351336055064
P 12.530791883161191 14.655839269902309 9.033870839532803
P 8.956363778217098 10.333787931913843 8.56515051063431
P 14.807651852071382 14.326794786080217 11.496894916267799
P 16.10781729100757 12.664025628136493 10.709903355262407
P 13.190598522760801 11.383945545002868 10.634365083779347
P 7.470931097008276 6.755906700572025 10.23948368393831
P 11.509896152801184 9.957998923947663 10.683709706034527
P 9.259258943152282 11.064340410225597 12.429385499976313
P 12.500457045116347 14.111302054128391 11.195626139387116
P 9.819617530306571 14.64132630059578 10.691294996698858
P 12.438583383912992 7.916253983225985 10.922957987904947
P 14.621015293847181 13.530941958382902 13.532658381735594
P 9.024994669097813 8.259172351249058 10.7535527084062
P 7.779918407621324 12.521247903165916 13.228456471255887
P 11.436063899897508 10.019708717697696 13.05953202274139
P 15.200381585994098 10.741151622525175 11.411951433431437
P 12.72898351482912 12.326653472893842 13.449340091347239
P 9.257229944978281 13.935991023957909 12.595104312997004
P 8.023657838642965 9.220861676284787 12.550314105660956
P 11.278029905146498 16.038210461431387 11.678192385667169
P 10.566706337191969 6.904995182977154 11.633519748007947
P 11.035633458467249 13.551955469044529 14.09676960154032
P 15.48274092177446 11.434223531355517 13.550827991928513
P 13.253580092817682 8.654744293395867 12.901383943963463
P 10.459101009051116 8.044245758034906 13.5744993096415
P 8.30610116378254 13.71950307921632 15.317202217526393
P 12.378527663979288 7.6483851098357745 14.698108848375925
P 8.865259085002979 15.581447333567501 14.003872279598893
P 13.758725736937002 11.222887419083351 15.10756524548845
P 8.522540825032053 8.145156388791289 14.387576463859748
P 11.120291029209278 15.797789088367091 13.955102045856478
P 10.18586794593966 12.844446210488497 15.881342173902876
P 12.04672664113827 9.772118188038911 15.379670817390043
