49
Energy = -254.02252399 eV
P 12.476511137141049 8.337955739542807 6.702667816730156
P 12.04796138175333 13.63286504171064 8.050319220783047
P 11.731651014806884 10.321787036601851 7.230480167462662
P 9.262292784676308 7.7430280705056465 7.891293446594221
P 9.697548334161855 9.63871445957626 6.73797369727368
P 11.301587148267252 6.750710407239845 7.734836785163917
P 14.5358555722607 8.393436239641922 7.635143698493199
P 13.72018609232938 14.614553210922843 8.837345543776568
P 8.468980652748163 11.216218758190761 7.73817044326754
P 12.815016808847451 10.5346678599105 9.278184724966337
P 10.956585719634603 13.381593893581659 9.939553248819497
P 14.776547882368524 10.460036441281792 8.379851562925488
P 12.475460128332308 6.062962602510659 9.587298393108226
P 9.927895356399661 9.923354646438781 10.7415028071434
P 14.311253243092008 7.37942997283363 9.607974761674122
P 8.507077011893427 8.470529170755901 9.852039176970717
P 9.284185411575379 11.863896036351488 9.742410263602542
P 13.452158579892584 16.10551761919157 10.491976695471847
P 11.602668051572222 16.09972471238736 11.698452420477654
P 7.098337203019674 9.777158866154211 8.717682496352472
P 12.273776011534293 11.899550709505169 10.969028698984674
P 12.332305498756016 17.84019313308626 12.847403205673118
P 11.642970716017398 7.238770030800955 11.297385012826082
P 13.070823459866231 8.850316841041936 10.71238808674142
P 14.459005088022247 12.981982099628885 10.997906204980932
P 14.945689412953977 15.043189684117735 11.807739342004467
P 13.055830705412868 6.430450297746082 12.844902484655742
P 7.602070128903109 12.848590628823553 10.530276638796776
P 7.924737443956314 6.956642185035468 12.837132434660546
P 6.266806221258175 11.091131947507154 10.417679569065136
P 11.987769116579774 14.444913599154084 13.110698986386785
P 14.125219195635799 17.144443846891843 14.052546132739945
P 13.626485387596855 9.821124947242392 12.559042494171509
P 9.365529083639215 8.44487590892202 13.656989738012541
P 9.023179094562268 10.408596123253824 12.720637200765639
P 14.028706046975202 14.949733278905418 13.805289241751487
P 10.57034457137372 15.101013746924666 14.703369732444019
P 16.216556408821024 11.896487495407822 10.446323440902553
P 14.31539530179318 7.939335557973412 13.479735302842752
P 6.188769453359537 8.334402002125072 12.951801521363057
P 15.43718587110317 11.566027494152857 12.39581016240777
P 6.811355640200501 10.414817314604548 12.470305220880661
P 11.006320523926453 17.57117595384854 14.623501292362514
P 12.612444358398358 13.282983709886674 16.95963765925789
P 7.446627582144035 8.002759212788938 14.752011688996442
P 11.927457026441111 15.361237350364837 16.43454333352904
P 10.63613558357222 12.887677649660022 16.1027813558572
P 12.805728823345346 17.50428976411357 15.890644735645788
P 10.776140970146532 13.966270942223348 17.958455951303648
