49
Energy = -251.96948855 eV
P 5.729304626242415 9.636627286255855 4.282381003638487
P 8.384911921862649 7.5216850922767176 3.804856901800684
P 7.475305096855153 11.07270285285654 4.077014737286399
P 6.101670726514325 6.2343424064546955 5.3422222177138545
P 9.790024695259103 10.1053088102322 5.285010552306257
P 9.908608993610732 6.890381921098985 5.29403401804007
P 4.377781263937102 8.244901290443941 6.6957225347924565
P 8.169829445837339 5.532906617284909 4.827691621822806
P 4.981266129416626 11.149781649079179 5.765197499461285
P 11.766433732756205 9.192587624993921 6.0664429148694765
P 6.996312410043884 8.272021382854208 5.4880449365010024
P 6.877656938034966 12.22621363473302 5.74491524863124
P 5.622768385959018 5.356498126537821 7.358647257044556
P 10.097983093613246 11.989794521396792 6.51183480326254
P 9.742278052618175 8.552994714150191 6.845351396260684
P 4.037598136327159 6.752894537498468 8.151220563513105
P 12.982529268513012 8.269271995974327 8.789864944366505
P 12.156079792859419 11.156535549571547 7.060138342355856
P 8.26929361524374 4.200171781440366 9.039686181512844
P 10.2374880214557 4.740529394680158 8.200401805257622
P 4.174098914375728 10.191288412099398 7.661298319420527
P 14.740035147406935 9.514574454397737 9.090106312084053
P 7.303261472558375 6.182216576172789 8.606691374057911
P 7.294912515256962 12.735381483363556 8.778908507392359
P 13.640963113167926 11.022216974282635 10.468775670992633
P 9.39946123975074 5.238307933712127 10.827440686697313
P 11.754634728113558 10.848492395656752 9.282105379902326
P 5.357070959159461 10.92660741748048 10.751409801269492
P 11.054305130641822 13.060105555753234 9.222061201696812
P 7.005067514616858 12.446865943185301 10.916436478409226
P 5.971716585920694 9.699559021698077 9.005562999672442
P 9.274812494784639 11.896469741000647 8.589656947820847
P 6.425513455776634 6.573835105207272 10.651023540907095
P 10.367188763601423 6.658482536830689 9.386970152255087
P 10.225451467219974 13.185197698904746 11.305285405943291
P 8.962526173969776 11.344011950001496 11.208969415269795
P 14.279962046151478 7.850607380600951 10.48981970643907
P 11.487557157882609 4.9828422478871195 10.23930655256819
P 11.266282701203236 8.51585523540226 11.703422494965208
P 4.848992998189252 8.102001783376823 10.207974741999319
P 11.295341604439452 11.374312987015003 11.959234321974613
P 5.758640507840451 9.2341616293317 12.105814860162804
P 7.6950738247416925 8.332331548742 11.321282989363576
P 9.573039882038088 11.063323851607194 13.38827406477726
P 9.77401016524674 5.860437438076616 13.095822704947778
P 13.336890523756367 9.358130911283896 11.985681376619539
P 11.743098187823918 6.463745516197912 12.492215225006863
P 8.446832214571453 7.671436787920264 13.348974641459266
P 10.220980177727263 8.95189430789097 13.661640660381222
