49
Energy = -253.67400251 eV
P 10.183803271224408 10.719393592169254 6.185831586145379
P 11.76450698599505 10.18725142284921 4.663316993671092
P 10.423038745315466 7.394107988761731 6.097563143425493
P 8.387531937153879 12.290553952010741 7.3592957302876885
P 7.62832788534652 8.70101467941898 6.88996514623763
P 9.771095232207282 8.965117565132335 7.541242287201264
P 12.395675913876401 8.107954054853742 5.326828863429865
P 6.882179425748944 10.702917903318918 7.741697852047984
P 12.370472245839075 11.362968678522106 10.046049342020343
P 12.238566502412393 11.079096526765351 6.748821262645723
P 12.998052756840229 7.3209731712913175 8.427892900317183
P 6.71169457698632 7.953465926784616 8.823844909183356
P 11.2765836174454 6.024713776160946 7.668802719460814
P 11.054626094732745 9.604623273214603 10.59795709309775
P 11.470925740286546 14.757674746183701 9.164234686380773
P 13.466689021719786 14.234350397774216 10.05486566142066
P 13.32579412644435 9.051219026164265 7.099233152823275
P 8.685256912836508 12.407669049573219 9.541782195695998
P 10.027358648699819 6.8935411915147355 9.32031371526697
P 12.688007231468623 8.059690650665415 10.523181270156789
P 7.92223465900946 6.2707506102175365 9.86596051876788
P 7.669276756377449 9.806632141523249 9.663399823809485
P 10.017895215212029 15.63982161080979 10.694814139581764
P 8.069770963871653 14.483920314608206 10.164756527943252
P 10.83726179041639 12.838165062363993 10.066758370820015
P 10.771141363525231 14.020405640578113 12.013654526364602
P 15.686459116497659 13.61422762831754 12.4281494734456
P 14.971218671677729 11.65516932312992 13.326503322166547
P 17.527427173656346 12.982226075600112 14.750390588764017
P 13.5083110869733 14.458905528140331 12.231052890056766
P 16.20513480703561 14.716207676508235 14.292209505376876
P 7.401350476890899 13.69418726093927 12.226038133013258
P 15.716545895534683 11.825957248760295 15.424386856063311
P 8.523658762530575 7.858029537228442 11.340827881645975
P 11.368106352851632 6.261924062020422 11.01352003765182
P 6.360979436369888 10.41270519749278 11.411540636677367
P 11.685412190985064 9.634700756758177 12.742993090157862
P 9.208450443847777 14.21095715062391 13.542403025733039
P 11.168529799014127 11.769734181934341 12.996237927402644
P 9.828832018123213 6.6858298243537915 12.678989738339762
P 14.934923302169805 13.844921684863289 15.94346951899026
P 8.108075047034088 11.578838877859365 12.108611886449216
P 6.81357186007366 8.486772811285114 12.612851947849535
P 13.049256309328811 12.697896979748357 13.717547031752458
P 9.803903186548403 12.340556353104887 14.719321736467794
P 8.157389031497447 9.045755351274531 14.356433810451529
P 10.319328997930574 8.44587582113195 14.014031669236681
P 7.860493371370842 11.289678433584099 14.283029831304717
P 12.798160367428377 13.654234608472205 15.590680369161783
