49
Energy = -244.19469042 eV
P 13.91294454212884 23.116401466435747 18.870624288291786
P 13.458431729944962 18.785906726748 11.61535733392796
P 14.91387086872881 16.380462383652198 13.399449089919578
P 21.522982468771232 15.949826718169511 16.86281547791608
P 18.52247337861709 12.49675772464564 12.316411405437309
P 15.648914935409996 21.950238419381414 19.081440431235176
P 17.39391007900107 19.2792119902763 18.200708186535696
P 17.95273302631548 10.885690765198618 13.487309120589615
P 11.495804316034937 19.291588185298423 11.86593720162232
P 10.355242559789223 17.43237624303447 11.718937367572634
P 20.588703418603778 19.390740733477337 16.95873334628392
P 8.855097903280834 17.88431433690747 13.23599431225849
P 11.781738343775512 9.47898010521436 15.556250680977051
P 19.066316849685297 18.072209066286042 17.51530156764647
P 21.259542726066524 12.607512475129635 19.387819189650717
P 16.506348840240534 14.184653073260957 9.64546007978935
P 21.852057887708188 17.868865868567706 16.121655223722204
P 16.65814988160631 15.795816379549949 12.338018198222114
P 23.973980842080778 20.68944074318143 12.573073137770493
P 15.021677967680153 7.492854654494952 16.1950952659204
P 11.876463441912916 15.35585829972205 14.25574449252589
P 20.100735306542653 16.038444257071518 18.55067865835746
P 21.237253129246533 13.559673190760183 21.363566945177155
P 9.755132257945805 14.186973361559675 16.50891176826161
P 15.930384702674836 22.994160664735432 16.02310584020121
P 14.161578358913141 23.784500699397892 16.891588610049304
P 15.959563819780143 20.783014581434248 20.861525979192287
P 14.883364170582556 12.368482366430547 12.201087216522424
P 15.831843577847769 11.091626153466281 13.614091286201738
P 14.962529492026778 9.063988675205865 13.449625831067623
P 9.526050763294107 15.659980977733891 17.9798881426979
P 10.38538640108846 12.451360000731269 19.09854534064629
P 9.82239272591486 14.660228590042315 14.35244687208203
P 17.709986598805056 13.823394888148938 19.841295865409954
P 16.97563245489516 21.82560070832159 17.437390457358074
P 8.409685809274512 16.346622243893272 14.508179778476228
P 9.922790173647869 14.44815419869128 19.652723220641228
P 19.38865613943112 12.589198285751873 20.593917462229776
P 21.689481046831613 14.796449369250563 19.530168997804957
P 13.610187782704482 8.88660067255448 15.23729370063037
P 11.695627332387664 15.657049820666032 12.101787538160748
P 18.051487561813826 15.341322969394136 18.50223811334026
P 16.048811708166422 16.135997301360227 10.257864519472689
P 10.277726732195196 12.208343865187704 17.010958332336322
P 24.408243222702012 19.06275499916386 13.436485669672576
P 17.302016674313624 19.252219965111664 20.303290020729424
P 16.377754265624944 7.877135090550163 14.663084499169715
P 16.65255747872388 13.465624263938908 11.732982942656129
P 13.68453747498074 16.59190822267814 11.601060351997715
