49
Energy = -248.63555892 eV
P 15.982637278572131 11.115393375112783 6.594594818724987
P 13.970494817430101 10.245312931241422 6.390012852674039
P 16.5839156253911 9.655529030432042 8.173451269889027
P 14.581302631788434 8.63599969216538 7.780031861739601
P 8.32694313633289 8.655299205905711 9.246601144201815
P 15.715173973409337 12.509472516648907 8.57394935414775
P 14.608592198038998 14.332775954017112 9.4356860860767
P 10.695401196139251 11.366977372989519 7.944885242390569
P 12.847157290704438 12.044603588859315 7.5646065162575455
P 8.031325170862388 13.482770902737403 9.447135641221614
P 9.579591860530568 13.401513116889939 7.755751321443603
P 7.306893880452171 10.347015863434775 10.031756736472477
P 15.536623129733687 10.777857614334884 9.877799980855817
P 11.265946638863548 14.65475930809676 8.493917768629785
P 9.079000034218943 7.3455513848822545 10.72805676833058
P 13.515514432904222 9.632386820808359 9.455043713207653
P 12.74297447020971 13.225372419370848 9.434856632920685
P 12.370861982904332 8.09740356982016 10.668818890830917
P 15.233365753658093 14.504170254189884 11.585032407559641
P 10.486435036420751 11.253601102296743 10.150927769302804
P 8.30123854113965 15.61402114462411 10.219448135619867
P 6.948013473986638 9.90769272700815 12.14736379467986
P 16.291542327264157 11.021473926485172 11.888765906168674
P 9.48995498152297 13.119642321390247 11.127260274710098
P 9.791610628752803 11.46432508659757 12.899473287143245
P 10.446265184963522 15.112464921969885 10.472842215703725
P 12.303071174367094 11.96985767405333 11.300090049922757
P 13.039978156430534 7.208806166183468 12.711690841268885
P 12.574304975928714 9.769246976416243 12.050892821520872
P 8.232097109850637 8.20148115400157 12.470330506453053
P 8.413323553549265 14.836113776037616 12.395397950367641
P 13.72443090147625 15.195211724905347 13.20997043223414
P 14.726496514042639 12.458508347515794 12.277551952371415
P 10.245467978756697 15.880400222275053 13.252647269626678
P 7.708740304854259 11.299734727962788 13.721849744800187
P 14.478263184193837 9.082364416534748 12.983794193186627
P 11.75896646830507 14.302360455816451 12.619419743600421
P 14.563730754600517 13.460444391664806 14.30848166456984
P 9.085713626434291 8.080082968144238 14.438286188130423
P 10.714224402358871 12.874073875435085 14.321488584589266
P 11.844658828834225 8.742040686828767 13.906857588891226
P 13.568597749054184 9.652164205296378 14.987637247195899
P 8.009275518899456 9.725322771452914 15.285236154863268
P 9.91547659362875 14.761249016260438 15.183954875545922
P 12.722593735812302 12.514800484354565 15.250196020270044
P 9.974880256673414 11.634721836413922 16.302810219127693
P 11.924449391605975 14.53583117308983 16.269237375434262
P 12.002289922023797 11.279296068181322 17.055635076707468
P 10.864173350029521 13.136480856770243 17.73245323632442
