5
Energy = -22.8956995 eV
P 12.263177558074666 9.047132649589006 8.09543969551192
P 11.62744223135442 9.663397390184208 9.776769352427236
P 11.065660101797679 13.72165455596999 13.4207707237279
P 9.005218759664869 13.418801872295813 13.318168486825373
P 9.982837214894017 12.253790274872323 14.739302128922938
