5
Energy = -24.40792007 eV
P 10.04263924617855 8.920486829255342 8.119933186930764
P 8.667579437799105 9.847987458278345 9.379633175965541
P 9.01311825623922 7.271842031394406 7.241040375209372
P 7.028852390363673 7.008792450842581 7.828780608916858
P 6.942133558974004 8.645214119784235 9.124935542532137
