5
Energy = -23.13091338 eV
P 9.557486121620446 6.222241437808755 8.137946804052227
P 7.683976234288547 10.01072341932045 9.408443560301542
P 8.849121935712295 8.08642673396812 7.964093605504623
P 6.752114776547704 8.529973206355972 8.19058432661592
P 9.748231258914977 9.795452700723175 8.922314179272249
