50
Energy = -250.89774019 eV
P 8.49688114452356 8.270557128063572 3.0273179103296863
P 7.644583548251326 10.187490436323765 3.824635168173242
P 12.090423232466053 5.392255088309969 5.357161744665912
P 10.642618488196925 8.351034124058284 3.564503574996524
P 8.632903795382086 5.4084121584003055 3.87037674229235
P 4.119791561681816 6.942564196365076 5.632182903316491
P 5.699126512157417 9.078326189982981 3.9602608309569143
P 9.203764946537985 11.910962398394085 6.479320235874961
P 12.447964212718443 4.83838757816519 7.435233675523611
P 6.534180336637663 5.747909502229618 4.528914638374078
P 4.729389412639493 10.066665129021793 5.778761033391945
P 10.617990872800497 10.31734607872283 4.491817940675766
P 9.061758409503335 8.845537030120381 5.210583759354829
P 12.393903288167637 10.170147671581947 5.891694118607187
P 9.003851476561405 3.7004796247679472 5.244075935016138
P 13.364277566957943 6.679186075512634 6.549409591547984
P 6.277471159553153 11.480798546685186 5.925187282683964
P 9.883681453828718 5.737176143702456 5.648023896327217
P 3.36460448532417 7.497277616613141 7.707428083559518
P 4.535111084936383 5.680672660337811 7.387642064266653
P 6.199099798291819 7.6714514391923645 5.648050433784228
P 7.153922991631877 4.535936281535574 6.394119930021047
P 11.355219566304935 8.77471039204772 7.280315800494076
P 6.367089891597409 11.877681719962219 8.116195996473495
P 7.997366134123105 10.400830191767069 7.793252495847016
P 8.681284878648201 5.85268233815865 7.511058464022597
P 9.160985902482073 3.982407398439762 8.677749414374622
P 8.561527321036266 12.397172654223613 8.559655772204252
P 3.6300799206779355 10.14942150534102 9.38514725728722
P 11.223688767123084 6.319077986389997 8.7890883318723
P 11.080645565663293 11.116722883129142 7.474860262424797
P 5.008067903073382 8.708120314173302 8.51508858270419
P 6.992647524233272 3.9743330444974374 9.055281503408882
P 12.567572085421762 9.159728244531966 9.066146585750662
P 9.424575068662387 8.566843956115925 10.18409422442369
P 6.825077063238059 6.064553990483624 9.857061964016435
P 4.695999557889391 5.948992420020891 10.131405921826254
P 7.220566019974491 10.385322138994425 10.696652170382277
P 10.042882884854127 5.312148082191737 10.206467347578005
P 3.6618718307257883 8.010262089880358 10.34197104973329
P 5.083776111156951 11.09224868323338 10.77964352772039
P 11.170564058293296 7.937137335164738 11.406248699091227
P 6.0115695663939555 8.31105671447861 11.832138257105088
P 11.09013503093675 9.982494552636721 10.539990958220809
P 7.1095897475299346 5.47778519240032 12.027069500090791
P 9.345324845450998 8.726422256877044 12.411503885222574
P 4.993363104954818 6.249306583816665 12.30522332309449
P 7.148785593203308 10.451572837549929 12.855095696955278
P 4.946117359159921 10.030044064971923 12.747786222732707
P 7.6767433274917165 7.40076373948581 13.067521700253263
