50
Energy = -243.80236173 eV
P 15.481850894150355 11.35827564061303 15.242774447625894
P 13.652585492167084 17.11887085358077 22.228879108283866
P 15.804155094817066 13.158081555915645 16.40457822095325
P 19.136243133863243 14.857949110111251 15.667551415470582
P 14.684031659993034 11.86075599105488 19.80929555368311
P 13.221278267293124 9.833868202082543 17.219796332497
P 15.294988415207436 12.631007515179368 11.99453035816225
P 13.54391136318125 11.68108287326737 16.163769565970615
P 19.46186267579952 16.92986825931043 19.440052300320534
P 12.077421568971573 21.042441797596243 14.039403340831088
P 9.921502057503025 15.080189061945692 14.311100403770231
P 13.650321020566667 15.769701603274815 20.397509686482934
P 12.263367892172335 15.59948153506376 21.940649577943436
P 19.77134238162171 13.662956933884146 12.329903907226399
P 17.13637490877957 14.197267762764248 14.925481620884705
P 10.600093586899586 17.605166308554242 13.963399126810112
P 14.779636909688666 20.141618427417917 12.060157823191407
P 21.80323877199343 13.495306596537912 11.090584859912965
P 19.367175183051835 13.092147007341325 16.97067823970426
P 8.108466990733296 12.857289414453644 19.438158078820585
P 9.786681620352535 13.327346990831971 13.063762646479313
P 9.116745652437443 18.84596908233607 14.893290087879821
P 17.879911811966494 11.255959087233444 19.225299615311474
P 20.85145821938061 21.240040316303613 16.11273933792516
P 18.86289426844159 12.820531694415592 14.75146080549052
P 20.221166320259044 18.899696481042298 19.07779139528409
P 15.862540166266237 15.053099489081687 10.268640410554907
P 12.302076337410726 18.986111712147288 13.676208311514769
P 10.038845785607624 13.262705888800436 9.784448184092286
P 17.3964438600288 12.934909692601494 17.93474476152585
P 18.83278273505954 20.45834632682556 16.454434492521134
P 8.767974941293204 9.922395230956958 10.631592282787329
P 22.157165128256135 11.500244110448147 10.321478852611845
P 16.060069926675954 16.47785495249548 8.93580645810566
P 16.724205948514747 12.951607182569894 10.338526322485874
P 14.262036622519023 14.410722136905301 11.625716890684108
P 10.237754214717292 17.48165814991668 16.145590488648786
P 19.95481928689276 21.74996551493409 17.886237092867265
P 8.868375885673984 15.59550376210959 15.978480944988018
P 13.820497070028301 18.321199022964038 12.382937940461995
P 13.763260274820267 21.723475084879183 13.023505843236917
P 18.37393891469689 16.998415586187818 17.626266925312976
P 14.176761148285593 9.913221455530612 19.1484350771288
P 19.84453313038881 18.525088736393016 16.970663776798446
P 20.852662955425807 12.744641028880318 9.26193694243829
P 10.56182465959851 14.483029471130685 11.396552623863803
P 7.9046992333827415 12.886177123792475 17.535968484743186
P 18.877298936941706 12.730611579775909 10.72800109603522
P 16.33585068043006 10.638351760698791 20.497252090524242
P 9.062470638797844 11.805478534471813 11.061514138786588
