50
Energy = -257.66688905 eV
P 6.268942757801455 9.433610943090377 4.015637304423401
P 7.93781399776942 3.7667035714319805 9.910784152413322
P 6.241313871903362 12.039711081608957 6.07062147873921
P 12.475656354806624 10.804297329679022 6.189908879712848
P 7.894946061449895 13.555658620656605 6.172847621444991
P 12.728265417600548 7.365640986724507 12.585710065455581
P 7.322426747131899 10.064038407386814 5.898055383765639
P 12.889657625897687 4.605509860775022 7.599716620861
P 2.8773232797284862 9.713857307351887 9.727329948085998
P 11.085458370534381 3.39557674969765 7.957827095929051
P 11.926851443727179 12.503731876778046 9.383270149485977
P 11.841862222726322 9.444513297450277 12.604350692703045
P 8.229039872763252 10.45775771928265 12.036062383567478
P 8.087181059366616 5.975056890206912 10.493983289712869
P 3.3757261605109528 7.207064004522923 7.3735191299195435
P 9.949584553650485 8.414738292949528 5.57967804940634
P 11.496908803810634 9.726727400805482 7.838157044620491
P 7.7350609140986935 7.928638099769639 3.212318930520296
P 8.889510849681418 5.410340242224952 12.488056802554135
P 4.132656972377446 9.22295837076558 7.965187729662812
P 12.233608183071837 4.195972412915709 9.664001510931064
P 13.178239906540252 10.6503105270437 9.016321808757136
P 5.154533988580955 5.955617170053752 6.901958965053946
P 3.4021401768496413 7.831420962044682 10.817213602191577
P 9.395998464217273 12.114412234831232 7.01413307879898
P 13.468216404807789 9.958102750564903 11.132248349027305
P 11.101631992023876 13.500489553371219 7.465998589691985
P 10.071563415250376 11.669695781069038 12.112057293454802
P 3.1630692053610354 6.194751721369412 9.344669964297005
P 11.020509608609004 12.355823321602355 5.531768109692999
P 5.00719723041433 9.14852768113823 10.009584712397011
P 11.067311271229777 5.554886189059839 8.380790206732787
P 12.16682978715181 8.619790897666674 5.953096377518679
P 8.819243246715201 13.124476008715238 10.88338804941152
P 9.792531074423053 6.231262751333238 5.244654009405665
P 5.7909845205197135 12.359455822633983 8.210825677709991
P 9.473611642594395 7.489568449551276 13.212069578233644
P 8.037617391912974 10.818271213226312 3.9467101983660933
P 7.641644862650633 8.518219276710228 12.508476741309808
P 9.590052604991106 9.154287739751425 3.524971612272678
P 7.970958558809344 6.040346319975424 4.324530940259103
P 5.762471482028069 3.583318675043065 9.454394156633159
P 6.986067804339497 11.841270471012358 11.067545434561367
P 7.072713285027737 14.014957604016319 8.206318984341847
P 6.689634983895914 5.636075665865507 12.205645797958956
P 6.441823131286951 3.46177129366338 11.569277097541478
P 5.3293111923034395 5.721402848006386 9.041832185422148
P 9.960112781132445 11.504567584001125 9.869932584586254
P 13.951322334044487 7.8679491017409715 10.797117298367777
P 10.849208347379795 7.823213134363141 11.461790547586814
