50
Energy = -258.32606162 eV
P 11.001481945537067 14.408692590133255 16.85981778033507
P 6.870024542391669 9.093048288168074 9.672396139856708
P 13.085320162121716 14.973782701100367 12.718431475126927
P 11.982256894270385 13.008756382707356 6.553482663043529
P 10.310844042397276 12.209227101753948 17.04012470228766
P 10.800589303438805 15.190471566656656 12.824204827941594
P 12.637535767042769 17.053685855688503 9.855835855930422
P 11.284962897688226 9.32658019102236 11.208614786263054
P 13.707945942502214 13.941121564508865 7.434117730560193
P 10.191851743941562 13.602881676044493 7.753731922122747
P 10.372031718480397 9.755925282241986 9.258358038341674
P 16.857880531778513 11.87129107481818 11.16688951257077
P 12.431943234043374 15.261974637259101 8.722546526824459
P 7.357171234033822 8.27127962277481 11.70099388804925
P 10.707792557302493 9.033626927952872 15.136517971379195
P 14.856122886376003 12.055615815934829 14.184215980312663
P 8.760814547405039 6.869570689460582 10.616124231977063
P 13.549667343649002 13.10906332198856 11.49046977694861
P 12.888101889379074 13.19302611950742 14.140609834940642
P 10.476607003448146 16.92727616702051 9.569996666578472
P 15.59699545256152 13.225838879157072 12.424992351866157
P 14.179081351160807 7.5963540891717996 9.287211558909712
P 10.018315558052679 15.004747745335166 10.758053827698122
P 8.553355274163229 10.089890427844606 12.366388127837663
P 9.509155011799733 13.53066081280998 15.501913703540318
P 14.001292667313693 8.784669365826199 14.756100614138305
P 13.896466700963476 10.284334995844077 13.051569395527167
P 12.282300498063094 7.389385843871825 14.410870861166945
P 12.274079605128971 6.563636614262221 12.297151382137502
P 13.66281275646372 10.839318187168328 9.838948494127406
P 10.71369585518229 15.80849613631887 7.534082212196574
P 13.092177332068177 13.718338071830868 16.287055104043773
P 7.274950634434847 11.335280968357491 9.889703641374666
P 16.094829632743185 8.711332568286418 9.469403575400358
P 15.373486099106607 10.191011043725338 11.112676925555437
P 8.944593736818554 10.094644628463458 14.471815956234353
P 7.911319901678562 14.857433602809158 11.024063110983109
P 8.778044065492125 8.224737880536287 8.794733578138354
P 14.457171161878891 9.490826328064587 8.16657269849006
P 12.512213392114951 11.612191113202172 16.802630273875383
P 10.252851662940653 7.534701292685041 12.10074279238432
P 9.359976645358204 11.253143505059262 10.57584744952274
P 14.476311891077218 12.919847516432041 9.363785728468017
P 13.254458778454264 8.311032653191889 11.245499924716336
P 7.8390305677006955 13.577917710191185 12.773403262420619
P 16.60338339844341 12.926436335461663 9.288546958964734
P 10.024682604274275 13.099958299062223 13.339734074365401
P 6.843384329688533 11.495275319484554 12.109830719894086
P 12.414713632282476 10.406237796960916 14.905840264375401
P 11.266278828624461 13.51227468493165 9.706254072034183
