51
Energy = -262.64204766 eV
P 11.188642148496974 7.532853314212565 6.044340591499173
P 8.472201435275876 8.019387841038714 13.806146454353728
P 6.503133776013142 5.012341511494416 9.782070713410048
P 8.670293406717777 4.4836322053754785 10.292209194702686
P 5.521464208065564 9.47437782160584 10.548328968574035
P 11.884922063422156 8.239281209843913 12.43467465941125
P 14.139347950857287 6.916071558946691 7.900947892532629
P 6.424626612259245 7.864923302716356 13.482768662977966
P 9.186301437915072 6.549090604220966 11.003526911570312
P 5.146231799208722 6.1882649852557075 11.20030554400821
P 3.8615288763819424 7.729285036758729 8.567575706830988
P 7.666828645515798 10.794948385162279 4.075765744364418
P 12.861697051208676 10.52751348357828 11.012242876055051
P 5.97592930885771 5.7587754185424505 13.087501044043083
P 10.03847000336011 14.030581778198428 5.819379070230517
P 10.775043062276556 9.830467805133692 6.642991781233885
P 11.103778421848652 6.179640045361864 12.097865703800666
P 10.765144206814382 9.664741568754778 11.089012356159397
P 8.954401005754216 8.859104100409333 3.6400704310353897
P 9.152085526738317 6.002520747499102 13.159750469548658
P 10.033851749425695 11.237830766273232 12.47024366524288
P 12.623670284352187 5.884596826796555 6.649657785657539
P 10.146960332935151 6.7538451052478905 4.305352567534952
P 6.778365180771832 12.792047019092587 6.896516872795192
P 13.520203655029222 8.367671401517082 10.88447051561166
P 8.932580761131478 4.410715263031447 8.07987726007226
P 8.641007046636444 13.964686642192355 7.492388629379476
P 10.570820766894183 10.195860003909297 4.512730669796472
P 13.05091953841519 11.30371909943006 8.981931544525938
P 4.206268115568964 4.506577023771708 10.090227024331794
P 8.367702351650692 5.761191532815771 5.239236345923869
P 4.733548060748929 10.632863847238687 8.803129268265257
P 7.580888455331007 10.792471028260824 6.303831270064418
P 12.559154136487917 5.6917219995201656 8.864824973990808
P 6.6875164108358405 4.882601999749648 7.5833067822088625
P 12.425811485939867 7.92411244695425 8.940914601840776
P 8.61458219452171 13.43734100191964 10.659563833427026
P 10.28008370323362 12.493519283310624 7.23355211395335
P 5.892867716068482 8.770183209942722 8.420599604591768
P 11.63632304680195 12.872892886001953 9.170765717166162
P 5.625634665450749 8.092746437378102 5.507172505980398
P 5.773770892484602 10.257728767037966 5.082265188755857
P 3.941679934133809 5.554629416677118 8.225396505648055
P 8.157928196714252 11.456961511296502 9.75477196998925
P 10.754192422934567 12.985955369419724 11.20676736075976
P 12.410560264656821 9.176778943274675 5.214622961334672
P 8.296799237724546 6.435081333448511 7.394212250702441
P 6.212304496577704 12.318080459350279 9.034897648214384
P 3.849929805338984 7.9573420806535395 10.764440620032861
P 7.243823770293075 7.467521868575099 4.337571510457921
P 7.894189001187629 11.698931329067722 11.943294282667969
