51
Energy = -264.18357844 eV
P 7.651604168281694 6.46748387290167 5.566920622840189
P 8.501262744948104 9.966177379865947 4.902030797689335
P 9.261589210622601 7.870957146855935 4.856416942027001
P 5.490686878241603 11.657349815618419 6.400790493187192
P 6.077915825938247 9.197765503433818 8.030175126842476
P 8.775879565944996 4.844068775463646 6.652675796244954
P 8.255893529019634 12.9188150868704 5.696375121651292
P 7.584417313797416 10.895157784981357 6.7533526686780645
P 4.47923146432788 10.537306333383821 8.013538253039435
P 10.630043569901492 10.937876885562384 5.005640004552245
P 5.856582470293796 13.532609122583256 7.6723302795318356
P 10.910491210882947 5.4988405859168825 6.519426856391867
P 7.750279462090305 6.480865685034313 7.775939831297239
P 11.531938311535072 5.366212049465416 8.645001315396922
P 9.273113096382296 8.083737803893646 8.166956139102698
P 12.12924627640719 9.686821549138537 5.991992171511698
P 5.426490226767904 13.160972669314685 9.851806972850671
P 5.806119010597003 8.216167772905495 10.046857420531373
P 9.430939374904044 12.27751091591821 8.32735745487912
P 8.029336821945904 13.963529256930043 7.633263126900729
P 10.691204473251965 7.70592982253475 6.521943037198308
P 10.400123387920496 12.706951753250774 6.342875542987996
P 5.287256982756885 10.004757664478426 11.330588671143715
P 11.715595101149898 10.128772850520818 8.14487497951686
P 6.758360165858615 11.454028920664445 10.420947275377937
P 13.407348815768392 6.702973838469513 8.424428735548805
P 6.909784414679943 14.790647549899347 10.329610401863006
P 12.932561990313872 8.93925889891543 11.190540109743749
P 6.854300422354938 12.321803177462145 12.445150636625721
P 11.215938105237974 13.01872504601525 9.514244001111855
P 12.752474922570169 12.034476312397176 8.333737420298954
P 6.797246241614802 9.030697049454826 12.740916556905002
P 10.445203551013632 6.994253869708491 9.725873450507825
P 7.873380632886804 8.627244575190717 10.815657873855843
P 9.959353891646792 10.313316248829803 12.415550866666951
P 13.375501292665206 8.898783764708789 8.971363027394183
P 8.864821526186526 6.658849757241228 11.291726192877315
P 7.976648463500994 14.158070293451884 11.980966131191343
P 13.975926327254479 6.085114235896144 10.497762092994785
P 11.196946774812037 12.222403329197137 11.598660842326947
P 13.185642888075003 11.288228367790495 11.667920088205335
P 8.027357565034297 10.783530166939471 13.527885449657031
P 9.518346760256069 7.573245255436455 14.723467340282257
P 12.409541730668803 8.740528667179744 13.663677714358798
P 12.062944188845165 6.64224530389847 11.608354152942054
P 10.884287418508666 10.948842711117903 14.360115842500562
P 10.246585987578376 7.794163049316122 12.748248593352509
P 14.83171350994739 7.830745774574102 11.668899157605566
P 13.101029344992952 10.863745907305388 13.88985624690761
P 11.108389309331217 8.905122510754415 15.467691809412425
P 13.581191478264238 6.855503769086274 13.338676942465362
