52
Energy = -269.31575293 eV
P 6.996818014746674 10.534218957720958 10.286302116440208
P 5.75803103649977 6.499256987997357 10.845369274210448
P 12.932555100090134 6.910500729615124 12.710765520512044
P 12.622008138296616 7.0109750629993846 14.813013841438998
P 7.5615071673382 5.064750306530794 5.885813651124447
P 10.988554976299152 6.297536259442011 13.54660077301443
P 13.015410913384152 8.28536886236341 9.695675475414223
P 9.518301296201997 12.094929120933847 10.279729821683054
P 7.833717907394393 7.007207089470779 9.685158533566122
P 11.509351195652567 12.464222729979875 9.878198307835765
P 5.980272945176402 6.431402130768828 6.706296637136212
P 9.834454182256305 8.257680446721537 13.665201849694256
P 8.16683285970755 8.10652874278199 12.155665717916346
P 5.45852001256609 11.13872914794677 5.292556760577891
P 6.454218562569242 12.956368848180844 6.060060968377613
P 7.53249073058063 10.305988564372965 12.463205674418449
P 12.744632804217847 10.186631007114483 6.849117885200367
P 8.613160494638784 12.702276883724469 5.284211296524327
P 4.323824295253945 10.969565634939709 8.165783963956859
P 7.843264003654365 3.6728648415647944 10.957808711027916
P 4.088035168918792 6.230882760315743 5.464109615871773
P 9.92500285691409 6.488310340908627 10.530719203045246
P 4.768325837017599 10.858923796476645 10.375903556056233
P 11.455622490739838 8.96549661719544 8.203138440778837
P 6.168198181867246 12.583008280274479 10.081383850768406
P 6.3425369429744825 4.908450786163107 12.250444707811392
P 6.110710855868403 4.355834080438886 7.440559917578725
P 4.200478079885553 8.028394312792523 4.126932110158723
P 6.434024948590641 11.73916650711859 7.965896971782078
P 9.20950816890885 6.055544039352893 7.181435042076827
P 12.32279077706551 7.0376446617630375 7.3929290157218
P 6.330837174711065 7.039349990735847 12.907568810466097
P 10.7041683213722 7.750327034486283 4.42514630107395
P 9.381471646143938 4.022835104079534 8.209622640349489
P 6.623368765231521 10.497903517936486 3.5204899982904867
P 9.704906692185663 11.924351653087628 7.09079675274729
P 11.024308832258509 6.038102336401765 5.887125379682261
P 11.072312550825325 13.499522282041596 7.951800258530175
P 10.46052265100417 9.15250887657596 11.733105510283881
P 7.556373886748608 4.788593743682115 9.108329156330978
P 11.767505744829334 12.156560947972421 6.310480977219067
P 11.657983903065544 9.707931229286201 4.918413382897296
P 8.798997371988671 10.778461697040102 4.060663829337902
P 9.585855334173386 9.31220541217812 5.619593958960368
P 12.62281929854273 9.074913503161977 11.772369676027669
P 9.998493217040975 4.2784479910897595 10.435060812827894
P 6.476443663720694 9.424823428094214 6.399030441563709
P 3.2177811534766354 8.22267208153963 6.087060075566757
P 9.63487549884086 11.192707694155123 12.298915103151451
P 4.757421420166677 8.787636994133933 7.640832908699673
P 12.012995545556242 6.281834735459805 9.489446935442464
P 6.396865456421773 8.419120282471484 4.393626952412323
