52
Energy = -270.88473571 eV
P 10.047551916034191 9.39536967174751 14.246481658920505
P 10.24061824320346 10.69663981264812 4.622512086031736
P 5.333399938841056 9.092159264515082 12.285941648706089
P 5.7256306590132455 12.742678619015281 8.205390678236107
P 14.714776366136238 9.641095874275157 11.39854187020669
P 6.9205547384518455 7.5531904689196105 12.593257324527949
P 9.343445283817433 7.732179224991305 4.712315012524652
P 4.842227062904094 7.8622423236594585 7.365220743712237
P 3.9837885225721905 9.961981028517265 7.525466413499594
P 11.584104765775237 5.540090594015785 11.608179701836614
P 7.373868890174271 9.34929445907885 11.387592931577053
P 11.599416713760466 10.940306339871285 11.153372621793913
P 10.344016383710876 12.580672486993366 12.003477313967712
P 7.742908026134557 6.670615662683972 5.837014063118057
P 14.170611899116892 11.169650929061946 8.58931431246619
P 10.338787871949034 12.727158502140362 5.549838589864551
P 12.637004309291761 10.880596781075592 7.017835784616296
P 9.285567268722346 11.480033273596812 13.697203897397502
P 8.072245949640038 10.413097311937273 4.376591283876677
P 9.251498274974475 6.166940931977635 13.207971340533723
P 13.397810983958491 6.676118474407975 10.828701677341297
P 9.26001383399004 13.803035290520372 8.980141791441
P 8.84899984023408 12.093849066386646 10.397148951616103
P 9.244636977372249 12.161190887460219 7.422266408755692
P 12.192240799311596 12.881119668690205 6.744630486456301
P 5.451105175476681 11.345801380211428 6.4796487504681775
P 8.332642470418039 7.860042379204035 14.35149392896313
P 6.252609768712071 8.329228269287674 5.700218466433808
P 12.979213435443974 12.338390074018253 10.088350689354327
P 13.574454446844229 8.110558247818739 12.520699742228343
P 7.360250280287954 10.095242985877782 6.460010140323333
P 6.878987438742624 12.539305708429952 11.353253099136309
P 7.632927013282081 13.671828271083138 7.460251589121619
P 7.790771114732671 4.9746680834954375 8.758702914162027
P 10.315954671362318 9.089344841945318 6.192266095409469
P 4.2824044605173395 8.329403996608246 10.423818074102856
P 8.726683077406387 6.782331623982588 7.8768980811797125
P 11.445440495688178 6.282922690199658 13.766799870051955
P 12.499870590157428 6.717009050161523 7.646313983692032
P 9.995809332981043 7.127768734177626 11.246214855280757
P 6.0869192390999896 7.809499494216496 9.234174962625348
P 12.30807360537277 8.078575075181549 9.425370683299837
P 6.310652527921054 11.113603273593025 9.608646425057502
P 14.345653382344034 9.07972545506451 9.271690927405713
P 10.57454284900296 5.586858450384854 7.399985222268995
P 12.235579857530288 7.957300020880867 5.802164555590631
P 6.067033232504901 5.643212943045733 9.66848502324891
P 7.242995168689698 10.988524687380037 12.966398684971502
P 4.140975763096138 10.474169975424244 9.736498533070309
P 13.56988248148077 11.484775417902576 12.037567385816205
P 11.27752739964064 8.266322888327172 12.723732005709227
P 10.953355589591936 6.148743676733698 5.2131360172439205
