52
Energy = -265.81112487 eV
P 4.475816926402407 10.154263420606528 10.202018467147623
P 9.852133941331665 6.6820201542329745 10.378865060112739
P 3.9768560137478257 10.522048640667172 5.1088521923224475
P 9.205809289824156 12.285266682221263 5.119993936317104
P 6.978647391804702 9.81549504639408 7.621674985903031
P 5.6354969268209425 4.854127945093852 6.2306201516372814
P 8.437811005126997 3.556492879272991 7.411196781859295
P 9.572236812411685 9.65505199161536 11.842682962456292
P 12.44638899986862 8.681210801634931 6.562261844074385
P 7.734788404929581 10.65712055948121 4.906584896040812
P 10.943941253732374 7.184944290362185 7.331173439349933
P 10.520499706765689 5.5584510554555555 5.863295958373098
P 6.743832193519795 10.356081534594658 9.82121427381279
P 11.31759138681449 10.142332438012568 3.931824200319896
P 10.463510770045987 4.34650960112483 7.7160108223004835
P 9.745174532289562 9.261282240788399 2.5710704465337186
P 4.428181157736591 8.92172505127528 3.870475185299068
P 7.0017922575207185 12.700448344825288 5.345284403196309
P 7.329649121820399 12.031508892905546 7.4617193778344175
P 5.055225150939971 4.797003689519517 11.004666737974661
P 3.6379514112304885 8.916750488635987 8.554767634794494
P 7.766854581338386 10.308572697482607 2.702546341909261
P 5.5315035002771245 6.683137387809628 12.17782221681355
P 8.670422004010767 3.4207722922155335 12.599593441333063
P 7.111873561050889 7.604819091567447 10.955269876919859
P 11.598722733361335 6.082241903739532 9.13912079679275
P 10.368023338382361 4.710199244658773 13.123163346296181
P 10.424784499668224 9.326750365250403 5.819818541591613
P 7.106480209162556 5.329854334318749 7.844162936275977
P 4.791578641351343 10.241698209965481 7.167467389155641
P 10.648722410916918 3.1294825156763793 11.549530973091445
P 9.402426053492377 12.590564642255265 7.522630006535711
P 9.761824377756783 9.572965233550853 9.532390393165857
P 11.686098920586511 8.01627789050686 4.56313312780686
P 5.9743763842187265 3.9156027483115197 9.195619413563271
P 6.707595791350409 5.679037349191443 4.392909534345714
P 7.042147809663027 8.193045660249714 2.6335898032847527
P 6.015574612105422 7.8015926372809385 4.9768435676394445
P 6.296063744691274 12.548766468553588 9.355840966082397
P 10.583595012678103 11.576818571754515 8.980606703897998
P 4.269825862644658 11.851094366172237 8.67806680401387
P 7.490838396167525 9.01709380625033 12.637217562506494
P 3.63746249885676 5.820413218820222 9.664559203381648
P 7.738413584568599 6.802206847403094 12.922644821277018
P 4.421280053650621 6.728896050874965 6.396864129795856
P 7.922040040545184 2.715796736044314 9.409094655553552
P 8.480037511154446 6.7067335092303635 5.3863595598160705
P 8.978402757296047 4.302394057402559 10.600489651951113
P 11.715261019148624 8.51351686345895 10.03767663295927
P 9.01502126858054 7.2537842081188035 3.199544060812759
P 10.906072547448254 7.841535343155816 11.999557718127404
P 4.970763676236578 7.171622057056635 8.51703412269103
