53
Energy = -271.15221199 eV
P 9.411096166764654 9.033045763657599 5.299950917155462
P 12.159309210622272 6.703213144297968 6.2468883724677555
P 8.006243421713771 6.098994457332117 6.840232408647015
P 8.238987187102513 10.992553882406632 5.569094874214839
P 6.454587359512865 8.67235538501936 6.734652723901855
P 9.933500883117365 4.92621261165308 7.2245902985545865
P 11.258521353834661 10.302962955622393 5.784880630181414
P 14.153747380096714 6.64855055049476 7.171745901565767
P 10.061227936881794 12.08890653344731 6.3565590252466855
P 13.420380206377562 8.519751102646042 6.267967669827162
P 7.558828398065264 13.204028483702627 7.642744952471677
P 9.218175227869567 14.745601812592612 7.473099700601204
P 13.327467616366485 11.52277399905203 8.157963448925624
P 8.62771724607503 8.240838807005593 7.267108927327244
P 5.139062124344328 10.021858942455603 7.976990353141112
P 8.93384096626509 3.8997689321965754 8.986676581124762
P 10.929195781317404 6.551327911971854 8.29690485834425
P 7.614762373511582 5.711167875271231 9.033162340667694
P 11.255365992260947 14.323329954010408 8.516648155304555
P 5.273534282557159 7.896337841258059 8.501570217072933
P 8.610449626624025 11.222017987135152 7.776377345887483
P 11.87209486133197 4.852634198069925 9.428492998548743
P 12.112899235375764 9.63789752511413 7.742525195105598
P 13.991056213576734 7.339700785766923 9.241286578524111
P 14.544052486293948 10.190441867240242 9.505939094231941
P 8.024176971326703 15.748315132913746 9.169987607820376
P 6.707399184451523 13.87766263499689 9.553287857802522
P 6.604207953394565 8.681867580343589 10.21658680262615
P 11.599283368096689 12.259044612671886 9.472364789744262
P 8.782863131302275 14.244158660987638 10.597518564698813
P 10.988864874825426 15.15382689367152 10.537876151610485
P 6.19853314713986 10.87565584986992 9.818072838860003
P 12.509413753867916 7.36021605955433 11.427887192310255
P 9.25640999048116 6.92946464405332 10.020197959806959
P 8.169855525314944 14.820788294159875 12.619061760022245
P 12.279085010481321 13.467512576082422 11.264442615208067
P 9.986868060281527 9.142927130989321 12.305242990918678
P 4.887583574688551 9.73226939369028 11.209658188501002
P 13.458003189299104 10.560969300019863 11.22396320041395
P 7.832368682669185 11.454659275271357 12.297107654885668
P 13.632152507290224 5.585684854584723 10.587031054575984
P 13.894588048336324 8.784345653518418 12.447416912558406
P 10.008715869463472 4.919919386196003 10.700361809072875
P 6.655047197115502 13.20086207776826 13.009469225030688
P 9.755258217024428 13.672153663344377 13.802879172613196
P 7.13128677754807 8.08861246854163 12.391516322005142
P 10.965809943555934 12.298745960328493 12.62367757186309
P 11.884217444475933 9.117892714718467 13.636578013541635
P 6.253437429529113 9.987975128678519 13.016220404493744
P 9.651721255860544 7.139707461662522 13.199334888726943
P 11.884063644517346 6.927677749318588 13.576686315980957
P 9.246646540828024 8.959798792788677 14.341180850393396
P 8.147459947718477 12.162437518599887 14.3917624936174
