54
Energy = -277.78489882 eV
P 7.203530885730368 9.26431101104534 3.5119602022107537
P 9.401987549339154 8.946873491670116 3.152168231970802
P 7.990919317026844 5.468134797938042 3.285965930107362
P 5.029598827593329 7.77581716976293 4.026171031102209
P 5.7795056685882065 5.760039385992089 3.322468035786886
P 8.875002659092814 4.239241497520794 4.957624855761668
P 7.044351963022049 11.312366582979374 4.470456800057778
P 10.416743668508037 9.993808990324487 4.887727917095494
P 10.719469887187834 5.3500310443890555 4.149186136973911
P 9.154747199957884 5.503716726166862 6.855635499737586
P 6.887315469900035 7.99254024966324 5.3446254840961265
P 9.152488401232869 7.033179282110197 4.377714431539654
P 8.667217626004255 10.925864167759443 5.8963887603649265
P 3.594035844856336 6.5424851703576845 5.264161402620127
P 4.827892891525021 4.61856304992215 5.066696973037141
P 6.023968428356653 5.045390248016932 6.906396455233621
P 2.8190540732175875 8.909288893458452 7.322248430632425
P 9.938014606808558 11.962781403224005 7.497642884254856
P 6.840912345044221 13.163674962349235 6.800264384430927
P 11.361091465868666 5.313498692902921 6.298654087212043
P 12.141894399961393 7.396630669444904 6.328692115031925
P 10.211457009042851 8.514763061930601 6.56214083011976
P 6.086539183077731 11.073117814376442 6.625971158063967
P 3.8450903791879 10.935445052564202 7.179366066064057
P 12.6821092347381 9.767981334528173 8.836817850634088
P 4.5418270293114 7.515950161668001 7.086832543681581
P 7.4705953004718735 9.312993399339378 6.998827999175966
P 4.116772780726517 5.528122983105273 8.011504527189242
P 12.898021382317088 7.563146831011806 8.435718972947035
P 6.767450161407011 3.172611564577853 7.752570314632562
P 11.94577334446338 5.0421791740154704 10.328689744101343
P 8.100952912812929 10.190731591154139 9.979296240214778
P 8.879426331190338 3.6783759417002324 8.17336142090658
P 5.291168779580001 8.847399305809448 9.854105282341104
P 10.49430161343214 9.938490260884814 8.396316188050701
P 7.138251015913895 6.17633907597956 10.015189706947854
P 8.208739895754146 13.15934681897589 8.518147536260077
P 10.998297650024801 6.847270190425947 9.359653855247624
P 6.681487424141493 11.81552103093676 9.460286244701004
P 3.493858007434998 9.97835324958688 9.18581510188056
P 9.906734396671801 11.386589304974933 10.564353154931199
P 4.384328417535984 7.138648999836913 11.066815199267834
P 12.50855480937755 9.310311926647067 11.084349142031163
P 8.841956749988626 8.036087722117674 11.332218115976996
P 5.057653545818389 5.294179262081482 9.982275965905515
P 11.689076092330502 7.03055318465353 11.491688760959422
P 8.267021976049753 4.208675131455655 10.224349888711275
P 10.168090754810052 4.512672381920289 11.510820573950262
P 7.1439520167835395 11.316448143565173 11.601035660180123
P 5.471595635048252 9.794323130535206 11.919911019269414
P 10.518129317409826 9.769607280647469 11.917139709277338
P 6.256989678392609 6.475760899043132 12.11271831468976
P 9.650368379449409 6.355487930109911 12.628964484384253
P 7.083347798524804 8.463940554884635 12.74956056008914
