54
Energy = -278.14428529 eV
P 12.948837776102879 11.78895076357533 5.691606926444694
P 11.03839640232273 10.65171577107995 5.417454360528621
P 8.796228998917705 14.229467903933466 6.489435281243159
P 13.319584159629143 10.625436389902687 7.668850632967585
P 9.963039387869342 10.715792608444792 7.352654978875436
P 10.873618405224823 13.99625245052188 7.1256825725108435
P 12.546199894014991 13.894119548929996 5.756879927716865
P 11.635306633066964 9.248252933134731 7.09779541249994
P 15.058707847656574 9.306211224038215 7.057552799998584
P 11.328162162526212 15.704235366458414 8.523688750229075
P 14.579974862647124 14.098092104958234 9.192656654422041
P 11.107266933765748 12.251016887549383 8.531404354894272
P 7.125079670864507 9.240791394825868 11.408951466755207
P 9.052417164953134 7.787061618306006 11.005137607210445
P 7.711740870027995 13.445117851451771 8.187071357821518
P 9.658138704481882 14.992312602485821 9.855595939438464
P 12.529231433809004 14.368136756764583 9.88919749670829
P 17.475024736893666 9.147377884016565 9.650900301355248
P 16.16939644932638 10.523016227255702 8.506418996092192
P 9.331810604602948 12.792022943636013 9.689030009662085
P 7.519766849285398 15.339540408672379 9.674009252591597
P 10.518980445437007 9.401450323293584 11.41566592549352
P 14.09595224808238 8.219492009818246 10.315286818725859
P 14.5429354277225 7.481455482593587 8.266039414172946
P 14.749494448484521 10.392139331626984 10.169287290265375
P 14.843926785828774 12.719403491449539 10.761405074897478
P 6.17486975791285 7.960776998646285 12.74133059649417
P 16.858179191140703 12.392976246294639 11.347196202609043
P 16.099912693678476 7.362415438031771 9.853866409498979
P 8.267317118119244 7.225377660873891 12.99654089196662
P 11.221770622761573 12.703348078721275 11.914349777626697
P 16.545126529497463 10.190716500198663 11.52710140928425
P 10.719401242679744 5.722148343193178 11.492554132553087
P 8.587685651305426 10.365209894050647 12.983098056452656
P 7.957885412591636 12.76902045941082 12.354719429270165
P 13.415478073380488 13.149194585746478 12.548551662439586
P 11.063517133954676 8.71248814364536 13.38558938278956
P 12.9944994093627 15.278912251723572 11.891788470910948
P 9.673009222131615 15.926373691817261 11.828714192888688
P 9.787409810222103 12.201736064659503 13.582052372701687
P 6.789273949701637 11.697820001451577 13.94244058962251
P 7.613762047253656 15.015071171613078 12.019630038981077
P 11.538452263152646 6.512798188439179 13.288649358805575
P 9.699031549250657 5.335299592998816 13.408593530229346
P 12.72161582424768 9.69886564439452 14.336344565195887
P 14.020021775164391 8.077330781424434 14.731527460887209
P 13.452647548442906 6.133462366072281 14.245816608484065
P 11.111567145021777 14.687511524186988 12.98208520616579
P 9.0552770738706 8.70823110620312 14.453673952297683
P 7.645289654626057 12.397212703075791 15.873387178652358
P 8.935735633352524 12.447264377678186 18.791397332045825
P 7.628405397049417 14.452225993162758 16.263881885674753
P 8.362151557344419 11.061562040217105 17.316107402150347
P 8.512525613457422 14.426826077563454 18.17039050401861
