54
Energy = -272.47593302 eV
P 9.416475507092537 13.263126861027912 9.575049711440435
P 13.127350313273498 8.613791523968354 6.880070570185091
P 5.893986810135705 12.958591670243674 7.597877655069539
P 9.171913317077436 13.159651516046965 6.983647428125615
P 11.468616724272593 11.475578949262603 10.9833416389256
P 7.417207609626262 12.47416324161403 5.934685483189102
P 13.113870720853699 9.968003276530277 8.810546105580418
P 6.175312839368483 12.779846602354787 10.692868780059998
P 9.37508710520616 12.038128861954485 11.407592731285906
P 11.533602375440745 12.729625276571136 9.120677490359391
P 13.471799548783117 8.221025904921666 10.225832687472643
P 10.430751227547598 11.60347857686896 6.356696637632584
P 10.258808304603845 8.78058293419928 4.459960999740236
P 5.065597463484334 10.942836759832208 7.816743927900728
P 10.960789233861307 8.094604982839767 6.521916033842376
P 7.7383494085006745 10.259421401409453 6.330765356954293
P 9.19937558145157 10.777415153586857 4.720507598067205
P 11.257600633019683 7.791037710937076 10.10925845138934
P 10.469866951051863 8.237745651693716 12.781790384860063
P 4.796219710062582 11.028749551606507 11.245357057138865
P 12.667117416500732 7.205673721442416 8.436894175743431
P 5.702779459558342 10.08688105369231 5.528348712275182
P 6.436405226220628 11.620366582107932 12.581132721608702
P 7.0428054585689654 11.60498184301144 8.93229235610651
P 9.579561876389025 10.029736620097951 13.425014064112405
P 8.031421575901323 10.23272538153859 11.826769357150313
P 10.973647728486036 10.581288780627052 9.014651510632559
P 6.378334713938467 3.675732023786001 9.847296259199334
P 9.792942484624653 4.471186778523825 6.089581202534447
P 4.38093721550923 4.380276697668106 7.5156315149965724
P 8.14011261717817 4.574243364334549 4.622754040131008
P 8.389604545066408 4.438945756030997 10.633576292490181
P 4.465118029483399 5.208782303046324 5.446812732234157
P 9.379581173698817 3.2327947591082147 9.079551733005333
P 3.960816440307735 6.318381034923962 8.749929122677324
P 5.814286736273603 6.8184244537101595 11.069751862316627
P 6.471544655203903 4.882733958189324 7.995067272307396
P 11.038334653979385 5.741608806505809 10.883214009254367
P 7.373664173893502 2.8790207411100592 7.977870679555779
P 9.14538117199721 6.3875487504532105 3.7661393204136657
P 3.882931010466408 7.320533168489774 5.996918332017296
P 11.500793246931664 5.830194776659211 5.8422479988440745
P 6.493645692342118 6.057956647612934 5.409582162402095
P 7.745134418379329 8.199755992656666 3.3933945865264294
P 10.118410424436957 5.333744499321563 8.866100402411499
P 8.98672769099291 6.887796455977831 11.999547376939192
P 3.8090441529483954 8.690042678186234 8.871582680245629
P 12.203925443760175 5.141327546259697 7.894447710575942
P 5.59452076638828 7.997325028986747 4.361275071749789
P 5.616281961986807 8.951001566059984 10.142057040690586
P 5.3459477055267115 7.661003727201073 7.635867202496001
P 7.121142906345591 8.043102766490236 12.412703274524713
P 7.8312063160097845 6.901276930612373 10.131067820324866
P 8.586135122032903 7.759023994147828 5.408568268328052
