54
Energy = -280.05688865 eV
P 6.344774145407374 14.194851901709518 8.114330568606803
P 15.39034007350466 10.490734778338318 7.720587769280213
P 13.434379038985984 10.062583104392068 6.900623900108305
P 8.374334135056735 16.1217452568256 9.690076105728531
P 8.551921252372672 14.62492988590319 8.076453858181702
P 13.114555075681816 7.866058041892386 7.246734321764001
P 11.645514388481574 10.996575660721799 8.081917584282593
P 14.974998352942654 12.132983435824915 9.444318632196161
P 12.254837303504798 8.239307071648724 9.218479266672059
P 12.627541620155608 14.043481970354824 8.337140172011349
P 5.882294791043589 14.35671375277739 10.261400474687445
P 5.726235130842215 11.992490913398147 7.801270198660056
P 16.245947299428074 8.795347706641575 8.931814693606329
P 14.943859931603342 7.038095707768572 8.309534286820185
P 10.320427564700204 9.160069026687847 8.85170907731947
P 7.448245008213316 10.554419827120292 8.210885935074764
P 8.063774031783074 14.352046544887282 10.910799601056771
P 12.708958276388758 12.192703887269271 9.614353614185019
P 6.330461141853479 9.288976616468274 9.747554574079361
P 14.825823220386784 13.871825233113592 7.948354653342752
P 9.416937786346189 13.244746359843344 9.620080754931955
P 11.898379696735553 6.121375903510598 9.694179055852649
P 14.089819631185888 6.143141593383572 10.264119161570937
P 15.024551281344658 14.122703193329667 11.07300472280278
P 4.759019131882811 12.342022085108958 9.776135583857172
P 16.13963870151343 9.673236634685688 11.00520193881797
P 8.412522155075216 11.315595963542982 10.02840349486225
P 14.030263930332994 15.321396956705728 9.501700168343275
P 10.675923731991224 6.742556163956994 11.51798573646818
P 9.94419020459504 8.88254585412297 11.055663525064018
P 13.948506172625686 7.814230401589951 11.724616660500295
P 6.244344960492284 11.212960053723798 10.8901733039333
P 7.748488060517411 8.424464238163385 11.348115874230974
P 13.998388371603316 10.076799262060142 11.568824988923568
P 15.95917257874035 8.072246340576863 12.645345427327678
P 11.826048363255003 12.536781442346665 12.441926351412317
P 10.877306493681019 14.620118998223525 12.385946789468855
P 12.295653127827292 7.107833831178446 13.03987875361179
P 13.851775980552512 13.415870318709935 12.728929255032785
P 8.75365197878184 14.543296051208316 13.035857722779733
P 15.143344344905293 10.008687524113359 13.535301507102657
P 9.313257687193756 10.973528279882895 13.274303284465248
P 11.255812986436178 15.342881123696792 14.43020223674548
P 7.424306344880059 9.728461014097446 13.261288515289197
P 13.356572883304915 14.467730815223055 14.651918681341586
P 8.55607944008807 12.761362869203651 14.452847590153437
P 5.759748824208978 11.084184636490823 12.910607903650666
P 11.957744083470574 9.271325365619054 13.506256601456766
P 10.130390965122004 9.395852870770804 14.760607461298752
P 13.572612614866017 9.270763598731637 15.028047681387626
P 10.367950504109036 13.536030567245245 15.652250696156928
P 12.147572418590935 12.60560298540629 14.763337820540203
P 12.837542440358812 11.019244558931483 16.183643630538217
P 10.881802552032925 10.233024031853985 16.633500043399028
