54
Energy = -279.04783284 eV
P 16.755529773857567 12.885374912628736 12.41095122311645
P 6.442896416290511 13.452878418359244 11.377347216216165
P 14.854430469886715 15.35462644563048 9.401587857725415
P 7.191519169972476 15.431328929295464 10.499776639982766
P 16.360781854485516 12.407204923129827 10.28115136907468
P 7.979505363986742 12.297069551326809 10.329787185640118
P 14.870161119146879 12.510301274280673 13.481486751455257
P 7.119412385425931 12.933987668962185 13.46080771426552
P 16.729228828814254 15.114562921687446 12.877055890671805
P 8.685780171417717 15.892109594515404 13.535441166574588
P 13.389663601418103 16.52440395840305 10.56997719244962
P 14.337062519480343 13.234562669090472 9.93525272114053
P 7.992309336970809 14.295989271983693 8.73735314686412
P 14.198676985008332 10.472202908078037 7.550939754487419
P 9.273269699294005 9.46899068861095 8.332515942744198
P 15.716369834653479 10.386154312246266 10.972667764494867
P 7.3819660544882275 11.01165116387171 12.316873014674442
P 14.683852844235673 9.425013516230175 15.275585775543213
P 9.094810019940887 9.989329674672286 15.729737740612105
P 15.478370876550045 14.389310443342259 14.657700861217652
P 9.202396606960416 13.68394159984081 13.42907639666898
P 12.768577373603499 15.593229300619283 8.722779734004561
P 9.35617629243044 15.143509573279196 10.118302348690026
P 14.752376758327307 15.977965682533169 13.350466696955026
P 9.758618292388586 16.327530597808902 15.445103480719643
P 12.90520162545658 15.249613113346575 12.382656822422819
P 10.649888698979495 16.927079373809406 13.726445706293873
P 13.06844687486046 10.791893848270735 5.686497571358478
P 9.913824534092358 11.305401738256936 7.121973740898275
P 14.681784480939836 8.312209410091258 8.100692450058785
P 10.645687739929823 8.156212907371245 7.1172680421218075
P 16.20892342369797 8.594130792030493 9.68112653728761
P 11.178961521985343 8.795078411654806 9.19294527019596
P 13.314139046622227 7.884738602209535 14.568229874539902
P 8.267025395377107 7.6905300310663 13.557292571159897
P 13.487736943712031 8.119157194959447 16.749658870943588
P 8.859089320489154 7.779443166609547 15.649248789993148
P 13.473930371712044 11.22830873041675 15.994369145636638
P 10.378973807661836 10.560121250775568 17.481696993257234
P 12.611775184518827 12.798411423011864 6.435935735066541
P 10.77233941813028 12.542606143993725 16.72507856164484
P 10.992466417251869 9.920102046266631 5.750295471311908
P 14.101945632162879 7.96673834575483 10.236377492631528
P 11.570375735910922 8.553128464976322 13.374243729795918
P 10.2408282987627 6.937437250053588 14.114690661560475
P 12.5248478501087 10.009004689766142 17.564804972526947
P 9.83658728675147 13.006743621441117 11.416540863532814
P 12.570192642396936 10.537518274058089 8.989852455922339
P 10.51510284019524 10.420848235368574 14.086169518762222
P 13.322447422369281 13.116053124533892 11.936456749855118
P 13.516451901819055 10.074184480144238 10.987396707180826
P 11.487621793465813 12.34014370075922 8.256762097670627
P 11.809287754229315 12.101361900374725 14.847414475829822
P 9.539596081075127 10.788706106720959 12.065110581687476
