54
Energy = -278.33455892 eV
P 11.52087141580546 11.435268602646975 5.529994645140531
P 13.220039349379672 12.713557067395355 4.969522311541949
P 11.21773070876859 14.826035280998322 6.6257690547941905
P 10.021235092986657 12.940603354662663 6.2578619647196465
P 14.342937703928275 12.968096494577711 6.761702383345938
P 13.08978286969366 14.660720558299477 7.835597529054073
P 11.958762086611586 10.253317197106462 7.32793601691842
P 10.1900198707795 15.540931391938454 8.497972355125539
P 13.909969007284186 11.047605482866315 7.849800474480259
P 9.079255945708226 12.060035873933398 8.075624069886224
P 15.028406109895236 9.11160286418279 8.399374401730942
P 8.529162372436062 14.036925183411284 8.953842840450525
P 10.667987957965394 11.16615472060059 9.399664518400385
P 11.774007883331796 14.529060256219442 9.682551595858367
P 10.364450489167071 8.906120571570828 9.72482038916023
P 12.774691490145399 8.479383366581569 9.264891442852363
P 13.33084896915728 9.915294256213214 10.691691020981729
P 8.557219903283487 11.26813477543336 12.30801070622185
P 15.481276573639917 9.318584637177326 10.528238827570837
P 10.43204685139132 12.107369471384725 11.405402734841111
P 9.440684158337426 7.703661035340886 11.407788185612826
P 13.977046918188437 12.067595137434765 9.976219330916948
P 16.147835109927392 11.483090471929332 10.331120942689932
P 14.05236317951032 13.115923777101385 12.237959123509137
P 9.426423716966289 14.046697706210852 10.995264477089155
P 7.8955350210799855 13.439992144331878 12.550113634365747
P 12.398012112310433 16.100545993119074 11.213670726683386
P 7.360003313648016 8.210819741213177 11.731726729471276
P 12.217570080654852 7.949355874139407 13.14304052689103
P 12.9304829200711 11.408579990601488 13.645965269576084
P 14.452451349659098 15.398269024851603 11.74608881843752
P 14.5506995513202 9.861075155944343 13.584622885499975
P 16.183649446110017 12.53116228069728 12.36723623862148
P 11.98860119923254 15.08262673913325 13.19905231766138
P 13.82287276101495 13.683785209114848 14.538367597011428
P 13.482758447780355 8.369713661000233 14.927983526336758
P 10.09055377333014 7.409732611840799 13.578874792736132
P 11.741379313362334 9.985937143998463 12.319696256620745
P 13.954613257255332 15.924622954846114 13.863282103298998
P 16.309580261879216 11.140777519327985 14.154819329622597
P 9.497782419641881 10.81261139413969 14.302037915890287
P 9.562243294775033 13.565747128253197 14.020294745875153
P 12.643879405739655 10.427745796501405 15.66112568072504
P 10.22393295718273 15.664884138230617 14.553561109041157
P 10.936012198772065 14.927197986803625 16.613834875798865
P 15.576876536502652 12.682358256848449 15.612343459796099
P 13.103537328289022 14.446493557131406 16.61107985569465
P 8.85983800167728 8.719631794337994 14.864530651751872
P 6.9771858725711535 8.424712892579779 13.745056112065253
P 11.353758455416616 11.328240580863861 17.406230569490912
P 8.414721916441977 12.435987603483396 15.562032331913594
P 9.914705821248049 12.964395390819943 17.14246979498615
P 14.429034589077336 11.219756372652569 16.83267780213447
P 13.068418141556052 12.657217009866429 17.94530848099759
