54
Energy = -277.82013533 eV
P 11.568723906466627 8.744944671164594 9.273843312897041
P 10.071039666630709 8.968843367761492 3.342239408685965
P 10.32480591451461 10.899386055662275 11.008286252272464
P 4.981224690374837 5.091031587479176 11.489796634249702
P 8.318608707777598 13.695102799980969 8.634686997259953
P 12.075343215472149 10.762852461651818 12.38532628009441
P 9.363008202575601 11.762465097237834 14.271366508437744
P 5.457489294687786 7.801113278901069 5.692346008941226
P 9.386118141078168 6.7564984983167555 11.411398524918743
P 10.849401593047265 13.457790228402327 6.284790448749008
P 13.36117530983756 11.487494665553832 7.7780403949778245
P 9.06068615353758 3.8704379860347204 8.886882762466994
P 10.104596696216074 5.850743935886231 8.657818571861378
P 13.037117922128699 10.498963559895092 5.795900785708977
P 8.863297654877567 9.641799926829439 12.086012602122736
P 7.942385757000988 6.555620504056615 13.170611404349728
P 9.482369356490402 10.639369698713462 4.710226839774337
P 12.735516861915976 7.552801992938047 7.667497332184193
P 11.52144467000161 5.752289663720884 6.980072497386328
P 7.4233804891329935 5.108292551877966 9.869413702348222
P 5.387806804673424 4.437797419397677 9.535278661119595
P 11.642402130322722 7.482330349776123 11.175015499167252
P 4.45438556090995 9.205542194975322 9.863337971400576
P 7.756959229672382 12.429173996590643 10.386264454743602
P 10.586852752268799 12.532487305476685 12.492565703827061
P 8.85659181411854 9.291380534336025 6.460362290296546
P 6.959978388622818 6.438411699871646 4.909892329065078
P 7.081686816113724 4.766590652110601 12.04486204656025
P 11.63277403658502 8.86665524649532 6.262519384513982
P 7.222708646409341 9.521580966152081 14.478068899595728
P 13.474844927786803 10.007610925652417 9.418945076633099
P 6.49520640881885 9.521237164592177 6.2193171457098275
P 11.791012650722177 7.827115942441987 4.322099422724941
P 6.525659953583085 8.906211684300402 10.831955704526832
P 10.32518479689367 6.164504877828615 5.095113352229261
P 5.5395364258154896 12.250503817341848 10.095851920570622
P 7.565383340630008 11.213746712688666 13.01160091460988
P 11.763577242703327 5.479034302092271 10.278541511722706
P 8.50956615219076 14.109589696720892 11.640834837812553
P 5.142721137857936 10.554176654733569 11.506829789303225
P 8.049944608878498 5.7886901265248225 6.755899893230768
P 10.311829953648793 4.846863994387237 11.800555656444644
P 7.837324180185758 3.7338299725907524 7.043047675060782
P 9.531950224081175 9.496157077678951 14.229287894188232
P 11.886462446152366 13.559054332051483 10.060792034307914
P 5.15790409173331 11.118772538702727 6.655047434857176
P 13.32382964351917 11.733280334621298 10.843130447695835
P 6.3103977046578965 8.028459586527722 12.964754130148057
P 9.744829005245075 14.767014687695317 9.994217851561146
P 9.425225049179792 12.174050987804348 7.485661918128894
P 5.822212459469076 10.571858307614784 8.623966703951812
P 11.480334206269156 12.54823725766693 8.202296249226185
P 11.410567558762798 11.768601018933959 4.829049386746404
P 8.827649120743173 7.724638774551553 4.849512211622245
