55
Energy = -262.58294794 eV
P 10.730039111717577 11.885442341781538 16.418826863512308
P 12.58456256692529 10.09643542074922 13.486232712724114
P 10.414078253887348 12.631516976528196 14.004272302614694
P 11.957187979847934 10.282856449716133 15.881303621429929
P 9.929310245665697 14.467185468532525 14.949627920290144
P 14.46504195421002 9.929105816193033 16.633745871967065
P 11.854883605850416 12.67703229817088 11.233251104784495
P 14.478149209230308 9.17926629007924 14.407805004933605
P 12.991082824968307 12.588763812235669 18.341580532045054
P 12.271674156710892 13.265788326889272 15.684030802051211
P 12.047799488764584 14.464270092887077 18.159537056038054
P 12.84306954468649 12.372833380619488 13.381089572543358
P 14.473846193031605 10.464282238827634 11.49528177340814
P 10.711236912952169 17.0635071067109 16.418976243465263
P 11.336064163180549 14.48206758223574 12.526144285491865
P 14.461384349331823 12.108457198080783 16.376466096443618
P 10.419026201635088 16.309915038213514 14.031498016987747
P 12.276104423972486 15.74488211902308 15.659405707944355
P 14.431389979964388 11.727313172859109 9.902807751239289
P 16.36239244783091 10.118626329561069 13.495578327506808
P 12.742352995272778 14.487127180737264 10.286751837426094
P 16.99417187322727 10.270830442272565 15.877146870853936
P 15.891089789865841 12.691369904361462 18.421161644681423
P 14.469677665762653 14.495570611088285 19.167431953874313
P 14.48805575344382 13.153732086519648 11.738904648974174
P 16.127428177472268 12.425374181344658 13.394827701060414
P 14.490617870961687 14.474351073282165 16.07201641300813
P 11.858312745919504 16.282555510443856 11.24514402799319
P 12.993444008936326 16.34219377357247 18.339232295598702
P 14.473391325148333 14.476701519820725 14.015710515620414
P 11.955484796106107 18.658711401762417 15.889162033887748
P 12.867063571147488 16.593312051807487 13.372434813240348
P 17.097896473807225 12.689686399378116 11.254691356850238
P 16.6706985556325 13.244263871029984 15.724136671963842
P 14.471405410635253 15.787163581485641 11.726667010281222
P 12.584253300148125 18.861013345615927 13.4935149213483
P 14.474674662175653 16.838104426846026 16.377504259403242
P 16.192544111032326 14.483067061464016 10.290135923809148
P 18.57005986530117 12.650090614787313 14.03672332200661
P 17.034781700037314 14.466271984770342 18.097456797484252
P 18.245042683067364 11.862329690049336 16.391386153044653
P 17.622638964771024 14.469609757490904 12.525793454939027
P 14.45679046703306 17.221434254793348 9.916078850309393
P 15.90258576953807 16.2314515413565 18.428644119774262
P 16.667426550008926 15.709914559108276 15.65018487282391
P 14.493907288190687 19.02703477444066 16.63590682358156
P 16.117899129327505 16.569147963510652 13.37839916697772
P 17.109916035239326 16.272675747853057 11.245396430880328
P 14.476225969896138 18.49183285648769 11.506617054656266
P 16.99641769614809 18.690929024034368 15.884893365770717
P 19.03838652400683 14.471286084991528 15.005963205080917
P 18.224173964882326 17.074041221924695 16.395775023189163
P 14.477295350397553 19.764990089901705 14.417985491185654
P 16.368697345942163 18.849381182321526 13.503165559130139
P 18.56638799515452 16.312422769450336 14.055113841871183
