55
Energy = -284.17175881 eV
P 9.070416011215812 10.372571571371026 6.071488796609643
P 10.913283552709792 11.299277740208266 5.1882829712953535
P 11.214252146392077 12.719518476539116 6.880415334379802
P 9.917346977707334 14.561631679210496 6.674130825503368
P 13.127423678276829 13.82392866079006 6.5117387792115835
P 8.53923405960064 11.726072071673995 7.778113159326296
P 11.008854484475588 9.472167383052573 6.551316795491405
P 14.527298390987253 10.602282879544976 5.569935387056316
P 14.544857878290948 12.167277133307001 6.95181336724199
P 15.876324874616836 9.31468346919109 6.5466819233561235
P 10.37837173608636 7.084717042488243 8.910497531947868
P 9.777555350600837 15.002434331401089 8.884213758320897
P 7.878464254351232 10.017686010710056 9.06249630897721
P 11.388387047784876 13.512268243013745 9.409753418764472
P 15.779438970475155 12.110996400467261 8.635036608485375
P 12.941714468765412 14.874621937593119 8.466265757603733
P 9.790582849024634 11.120062535127659 9.54122494396603
P 11.647814388454886 10.399280661296567 8.517234140243971
P 16.61902770885562 10.20895033389194 8.316049386111876
P 12.128345708277145 8.311736527951656 9.240388690194134
P 7.1571431336171605 7.142347550118979 10.294933528629137
P 6.624421678608234 11.493680359508986 10.265742632327708
P 11.252724901716144 16.115095992164502 7.5684154295490265
P 9.32895855129728 7.506416454590636 10.711763666030926
P 13.218534788027416 11.428460010597638 11.788586720517056
P 8.177587880133798 13.860292463153497 11.797678435614529
P 13.898718842167531 13.54645816425688 11.480904133631896
P 8.878923761549075 9.587634562868592 12.05264020837425
P 12.70783869914181 8.003320206489088 11.33917383698106
P 7.181431348184963 5.678864117569022 12.072023791516273
P 14.3564010907711 9.4582345442095 11.585284615406415
P 5.813152169231048 8.343492706824932 11.672984768140834
P 5.601704157004242 10.52190718029254 11.973051016695248
P 9.423466860713138 5.784601468394936 12.116737431277233
P 7.680618297075125 11.735157176066288 12.206379662080607
P 11.030254105335715 15.554463606752291 12.425385932848537
P 11.649822520906532 13.57025305424444 11.631476176258253
P 9.183345060428346 14.748276661583537 13.498311971417044
P 9.85725853284432 6.908902690984111 14.012827895301001
P 11.505653092594947 8.343785768422192 13.374501502804886
P 6.466839041293236 7.302615942052585 13.536406085040573
P 10.617399860381651 10.412521048816995 13.185683524721313
P 14.390860039388766 14.645138375687665 13.446397809349408
P 13.472314272056737 11.273024538761524 14.050343753956964
P 14.55653778475502 9.303005478506012 13.820820141909802
P 12.38848479384769 15.381547130955445 14.23329846502937
P 9.509325302465617 11.020790574104032 15.081590376693821
P 8.289711615041355 8.489398011545688 13.921634338847419
P 9.77940680274159 13.292419437858644 15.195415014474369
P 14.7872714180774 12.91997239021857 14.856680230105447
P 11.878640620948085 13.291877930293724 14.681593772878664
P 13.135778461288169 7.9226117457290695 14.681570477528973
P 10.816796672225617 10.513085818703463 16.740695771977883
P 12.903860283960718 10.850030256874279 16.300933665968383
P 13.160639843548145 13.098972312285575 16.441876152345014
