55
Energy = -284.27328382 eV
P 8.198416257615733 8.864078959225637 4.81636620632228
P 7.654382170164771 6.954372137864037 5.752213074403046
P 12.598349410007037 8.919727572887698 7.439012374129053
P 7.82785956082152 10.528679992634576 6.1881268825732
P 12.959926443258292 12.463896203323175 6.853972071757027
P 13.817540108947698 7.3709142969580705 8.269705602157028
P 9.84397512892327 7.602138894652615 5.663857915221712
P 13.312542868065579 10.856096834306488 8.284555699466823
P 15.366129347414514 10.505343674446918 8.965393851480773
P 10.780578305080192 12.260641691950086 6.963956719185507
P 10.826384571421091 9.072595053964776 8.820324710608515
P 7.40887939303524 9.720201822439051 8.024718829163444
P 13.42323930382649 14.23866342197604 8.199636402114498
P 7.490653469552645 7.526592708401952 7.961098344747952
P 11.555619363329194 8.447265559159106 10.881455100120009
P 9.723708823194466 7.363795088507585 7.870693117784953
P 15.000951114202877 9.28879814942085 10.904907624341666
P 15.254452241319404 12.58491331268868 9.87683618011308
P 9.86495355198955 16.842396128811004 10.001099332658281
P 8.279281393989283 15.222898267952688 9.876521504943883
P 12.1714138076402 11.442963105192428 10.119961186144756
P 15.61839889780132 14.25045657881452 8.57925632196606
P 10.299903285216496 11.439654471414006 8.906144480304475
P 13.15122537625694 13.423099453576302 10.266900211837545
P 7.627150664299875 12.665520183522133 11.630423944999809
P 7.589872367640141 14.899476846876318 11.957527175830712
P 13.609236384322598 7.638564657716709 10.42798532030572
P 10.379822315119117 17.373777838652664 12.09895350386619
P 10.442881662035198 14.69226743156892 10.275420923761457
P 10.031720657072821 15.313553994501072 12.425094436240613
P 10.430864743953906 6.52851280858085 10.962159149000337
P 16.388737873567017 14.79580303520795 11.686161629100576
P 9.57424186628696 12.598079011751459 12.620182437966571
P 11.50243032471285 5.687305319999141 12.827830645829273
P 16.728854340082584 12.609107594412512 11.505656266943584
P 6.487513532371884 11.463380011769647 13.241006960322636
P 13.904588003084978 10.469924496688998 12.378291938356844
P 7.68892530458317 9.662459848439614 12.744528581966327
P 9.351387969307437 6.105009680998396 12.906765302217938
P 12.369244574150747 12.946503317530302 13.575416106829714
P 11.481802901291273 14.928036161737392 14.21424120142665
P 15.062686036727884 15.138696937179564 13.22585014067311
P 8.662461621289209 13.44156086610984 14.486043231367185
P 12.612776398784792 7.290403010792748 13.907104438078528
P 9.825861806842285 10.429280798833567 12.622813882185955
P 15.62010063406645 11.595985210089365 13.195236954416869
P 7.31791460164004 11.942372927089458 15.34024690612771
P 9.278230145953371 7.177489819941152 14.852737315047282
P 7.598022583261166 8.700759892425827 14.760877879652329
P 14.540923939684248 13.26685131059902 14.209798679748422
P 10.351728349555678 13.748453337369376 15.816194729444716
P 11.73225596927821 11.945726639278847 15.497044214720885
P 8.605179513457976 10.222774465523292 16.00808125459401
P 11.252402463372443 8.172983658980348 15.284449029444602
P 10.43737616183222 10.275155407967862 14.745121978690259
