55
Energy = -283.33593206 eV
P 8.746297766701062 10.021536051241661 6.839973163010634
P 12.550403020886433 13.466540620589699 5.654893770466209
P 9.248655874116034 12.068254531604941 7.487155643148713
P 10.947090478701178 14.43174499238396 6.763439486588093
P 10.955306613270837 9.913713472176092 6.184798593728776
P 8.700215018322956 8.826641229810036 8.7399356243349
P 10.891999399707812 16.58010255382531 8.074035852631319
P 10.150999292607995 7.169810131867069 8.146375598699931
P 12.492807219237976 11.603084686339065 6.7270018490448935
P 7.474232333004752 13.238269519993258 7.902773715605644
P 11.785289737840195 8.727778837506886 7.839963648219308
P 13.718548535552323 15.09057698644027 9.161980145451274
P 16.8635183082462 9.03196510440167 9.988397195050794
P 10.096652253092945 15.261863717922191 9.664942453993703
P 10.255884975260853 11.689132349157036 9.452659984070669
P 14.89211947426992 8.399477505866868 9.836260403377777
P 12.928093100289795 17.151915698908134 9.0082564660547
P 6.30076397197942 9.265795455612393 12.231338994161716
P 11.791106150287872 14.09415088923129 8.716802396831405
P 6.922879114824051 10.919304633342449 10.899699819359883
P 10.610794247571755 9.537126752302052 9.583781308711336
P 12.395159589373737 11.982948401519884 8.938749244360556
P 17.46805030571976 9.268655527102753 12.144523611329724
P 11.024286097240251 6.892062962789389 10.203515927293106
P 15.240792227125926 11.882068414561317 12.056906989187828
P 14.200924729446289 8.95687772866012 11.811466047235479
P 8.337164862934456 15.093657112302926 8.282109466362952
P 5.3018221119508535 11.24596068969995 12.286573214057386
P 14.17611729315026 13.783108114230659 12.716513668085957
P 15.80108826740289 8.10421920661356 13.0336060843678
P 17.29908357943402 11.448030490036071 12.829901094075783
P 12.697905534427525 16.003854616275845 10.919201964892997
P 11.037151577333093 6.484633245535114 13.231882008775179
P 14.562852705097324 15.926343809141446 12.21187527331573
P 9.526642139496724 6.632875940183983 11.637091477558243
P 12.287759785000679 8.39333520495438 12.790949018984438
P 8.619087841951812 12.122127715490018 12.254408406392823
P 9.046801541914677 14.049183852992986 13.710363497488187
P 15.571876302379863 11.420253525608942 14.217517183406258
P 10.09074661487934 10.391527445716784 12.556400895900861
P 11.907327588197585 11.464749126656704 13.305691233666677
P 7.123404201063872 11.76860194170401 13.850541938213636
P 12.364089235665972 14.772179052108303 15.248320721746493
P 15.293022741641183 9.27946750968013 14.811555454893659
P 7.146163608111465 9.628913934002338 14.383827390007252
P 13.077696834626627 8.611032430359467 14.87414777893244
P 10.194593111217133 7.467531560702298 14.984177824677827
P 14.514621727126611 14.323893269679964 14.87212437309085
P 7.990108316040048 13.103199781300495 15.436310886594269
P 13.64714175454498 16.33634256329059 14.228563496477463
P 10.995913479400803 13.20156213460851 14.408267315064576
P 9.352561100549094 9.394611344684934 14.404197928792644
P 10.105282559085635 12.509161356532985 16.30934958553565
P 12.345614009905677 10.666848819920803 15.35014929603135
P 10.33948880018235 10.30739451022158 16.200752650053495
