55
Energy = -283.50219559 eV
P 10.25418051578472 14.569854666326515 6.240460283233904
P 11.261748244973454 16.200762775799344 7.273449332707559
P 9.681320125790323 11.20267213368804 7.768735467741019
P 9.900500909169486 13.429703112244354 8.034043406462668
P 13.52965793460978 15.912620625452274 6.837191529624736
P 13.417987622925764 13.955751235435459 7.8138799956857
P 11.989450915766641 10.772747435603357 7.882574765402799
P 7.928076562793748 6.230023956061802 10.07159551058552
P 8.258536523369651 14.504261080211316 8.885823466533115
P 8.796230748640616 10.38613067386009 9.678595506331721
P 10.150853980133546 6.173710506662759 9.868981309145077
P 12.083450038217645 8.66644757267463 8.567867425126677
P 13.551955424639555 11.68602379860831 9.308869959663364
P 11.088121206061713 15.969937865377963 9.49744466735783
P 14.884664726075727 10.409028182576488 8.159270271283727
P 11.667362154838534 13.820926069687978 9.3881387213549
P 10.610772717048048 13.025932609229857 11.292770412433747
P 7.257981795701466 11.709112328080003 10.629848659463992
P 14.591466721048763 15.516814738670481 8.782125263984906
P 14.159702528430774 8.770538591453418 9.419595389665671
P 11.108756803570747 8.016647392938662 10.508386819393149
P 8.464191622342076 13.533414242672386 10.804274001596752
P 10.535352643952491 10.846338853236732 10.93500879972105
P 15.902640058591338 10.41949142356088 11.637093309266582
P 7.491484646206372 7.557240727754488 11.799735260828472
P 14.816695315500631 13.613109576972032 11.173265916625127
P 13.12136124629149 16.70210680309287 10.00977189447199
P 16.412809831416034 12.523454908993214 12.208072389393392
P 13.708187339508981 10.317546514294774 11.109001970315564
P 13.19090158846583 16.308019140943024 12.213134634751647
P 9.590615525640231 8.067632351616671 12.39172994336742
P 15.229993075141191 15.43196907206281 12.415246572343676
P 13.03749232049967 12.322770301466123 12.653387252357707
P 7.959957695023344 5.426906458652339 12.32650679251121
P 7.464812494425055 10.884664451694784 12.696299567593453
P 12.431152802119087 14.480046678120415 13.375337302054202
P 15.92437898669048 9.610655272176004 13.772076126152445
P 7.617083526967783 14.59513700432821 12.569509545119004
P 10.142711536906463 5.686696959686501 12.042729731010503
P 14.873748180394017 12.580632876016354 13.862771913078662
P 14.698137368896996 7.844586815323414 13.692183759135624
P 9.130260354196375 16.056982666350827 13.1609450369215
P 9.65568656758889 10.34438057556576 12.869186940927202
P 14.44631405393389 14.726328826918998 14.452637479806635
P 7.384673204052585 12.803733512733531 13.92404818682522
P 12.75146969305972 8.754497372324112 13.552036531548683
P 14.709257824528251 10.861743098305023 15.246914784811487
P 11.561770308306649 7.409175549061983 14.98303951453094
P 10.610410501702356 15.343661186651007 14.501121399709804
P 9.168367179983083 5.696678343579502 14.808951340250596
P 12.59300833071297 10.673497299636928 14.636801073954866
P 11.217438221539028 5.3870913821243 14.038896777534724
P 9.104747286229117 12.072425469109701 15.113997006114845
P 9.418356376008212 7.885449381872845 14.648559158157372
P 10.581675533685965 13.422208992556419 15.586001364126384
