55
Energy = -284.00242258 eV
P 12.766968730301096 11.472635650040237 6.827522248510453
P 14.22302837769696 14.328710641861358 7.524384965293564
P 12.380761207286874 13.345367660863106 7.977179311623988
P 16.633814903555812 11.660636756905332 7.3071048679824315
P 9.313714221377323 12.090800447204515 6.831059489468605
P 10.834956697820802 10.39470293092841 6.9485230568100045
P 10.242595519677774 14.011594634655518 7.55114895089735
P 13.619457775102385 10.221193878784486 8.535450689611915
P 14.46257244687409 15.656034671291826 9.281993662542591
P 15.678307802671405 9.75714344271408 7.785883165594097
P 16.100185264493234 12.551295322548885 10.283884798286477
P 9.79254713519552 13.77291760722018 9.805711492451431
P 17.89499286079183 12.004016567427882 9.057168236378285
P 12.861994286188446 8.201593921693783 8.463266354648203
P 10.89656510049834 8.190261570242699 9.43540217279388
P 12.00182468432155 13.216689559240615 10.172432564095885
P 12.57061293490136 15.39790489892818 10.362529472980246
P 8.414067759023968 11.006310422211135 8.628456434644177
P 13.696576273508038 11.491155553437194 10.526841024588906
P 16.19867416523081 14.771322990469203 10.457990574334769
P 8.016649216041447 7.975132990509099 12.201510562543673
P 10.512305207832542 10.38208042049308 9.15910406198913
P 16.59954711301405 8.857721907588873 9.613451516022801
P 8.88891128067071 10.075024638127914 11.870713146338247
P 6.9538845111293135 10.595397412002015 12.847571156147072
P 18.16852165355348 10.113793914587985 10.141939181765748
P 8.038986071472655 12.597344918239576 10.060185210688005
P 11.692134021029467 11.149466324163871 11.722890009545853
P 9.532193864336357 15.454901817292932 11.193804516956765
P 11.636540620840973 7.515203381289105 11.442980402867372
P 7.595865695834075 8.91736933599789 14.263714624322477
P 9.997142735419132 7.214673675544999 13.034741974663612
P 14.697686806921562 9.563311962493511 11.367689116402028
P 16.606705374054933 12.503700900066525 12.45173255955817
P 13.454381399025907 15.560208962981584 12.383621332316435
P 15.530290138685546 14.64605748172693 12.58441600255755
P 9.796679869616238 9.2352421414863 13.880875608078373
P 7.258993958368081 12.697454603914498 13.597628146246034
P 13.056338291862387 12.401263908573505 12.889117657257467
P 12.68689429472224 9.245598282442995 12.383164962493193
P 9.512899966556347 12.620690428709326 13.564364810756516
P 10.070917122872201 14.75178769878159 13.135816399557779
P 15.784024129279583 10.52149141229213 13.111762031300161
P 12.26735208090019 14.286066848420614 13.745398873113638
P 11.080519597001071 9.843092697518925 15.460257465683569
P 6.561627339838662 12.16673823572692 15.666976461201562
P 14.075895114311134 11.203462026259606 14.419950185528647
P 13.031100826271542 9.20692996794408 14.572938699135886
P 8.8963183682735 14.688219316452292 16.55041395152051
P 9.73488793198914 12.80836402309044 15.811785895704174
P 8.349728244132791 11.18298207396874 16.544005758829538
P 11.378763743825223 12.947725141329514 17.19071624249749
P 6.817905681493302 13.895375750315793 17.098847894102818
P 9.786952032319403 13.803101089016103 18.394947085809093
P 7.850676909784236 12.335174541779365 18.38147232275838
