55
Energy = -283.3944408 eV
P 13.605459932253204 12.277340004820758 7.336247961732663
P 10.988384970654728 7.613707242321708 7.532169355959071
P 11.808259913769911 12.63530042090189 8.66213823402282
P 13.118892694990855 8.261597374306657 7.3022983993238615
P 8.711798368044464 10.47623742830957 8.314887658033076
P 10.74690758187924 11.039903351192685 7.437190542536418
P 12.846344750401473 15.945002071148412 8.861803876579188
P 15.223658350647554 13.512195700509636 8.259521024321067
P 11.327338296464475 14.659422732352173 7.7636081255476475
P 14.003915514473237 6.975270537267918 8.985768606889547
P 10.997214344994925 6.282526231019957 9.372750428260739
P 8.483049632460995 12.237998565094918 9.605956647670656
P 9.448774626676302 15.379257368338761 8.545432572909148
P 14.406285942581887 14.759116270694525 9.908257134931032
P 13.490623919373176 11.315757792115528 10.527742413002159
P 11.743952627302395 9.39771323496058 8.59184607245263
P 9.058622026948893 6.962816034384917 10.359908509510333
P 8.478030027497695 9.115834842952012 10.11832734650812
P 12.499563838691747 7.436859453511296 10.527116581003787
P 15.026184005131709 11.395824022673748 8.863679557349325
P 15.819967329231863 7.837857193632703 9.904152728791189
P 11.85727276639984 16.75390955504245 10.658939318517794
P 10.014081132605607 17.31660783560337 9.558589916479333
P 6.360092126123105 12.406841010529526 10.121108570792172
P 9.185882074207754 9.77830742813 12.195423571173476
P 10.676459716564866 15.01426046546728 11.639598794826192
P 9.685095979929551 11.824575247523606 11.439270198291549
P 13.343297080281099 13.385339937696223 11.290406727775473
P 8.879799955034 16.22657865495557 11.159531649814722
P 13.20758373604875 5.726829530041519 11.762809958838151
P 7.411692669324557 8.68881218090928 12.7553177348852
P 11.464003892655652 5.907377342387791 13.18992855314199
P 11.160472076099554 15.700056395081305 13.76835444885659
P 16.099421479323762 11.766662427880382 12.759928914196289
P 10.162419219045198 7.490708916850765 12.291478044849462
P 7.924586444421149 17.573361989374792 12.578623280809579
P 6.391935194526772 13.12368730477834 12.038660701691775
P 14.847023216535325 13.597906583628177 12.919269034159699
P 8.529181311676014 13.370900719224078 12.48634670566907
P 11.852668892602637 11.4233173030906 13.687789932422245
P 14.348262285752712 10.413105552544405 12.358675396524653
P 15.50980634551906 8.523099019192605 11.888965092574258
P 12.614511240807968 7.416433591158126 14.444340943410976
P 14.453613995505492 6.971759925440787 13.16804740213208
P 16.31606014357959 11.261768521064198 14.920318444139909
P 8.840783519822912 7.646225270985171 14.133664639037546
P 13.439719081549256 12.794102187032136 14.425001500615263
P 9.618389869721343 9.65149461403727 14.588597269202001
P 9.382628792988244 15.404456990146533 15.032496718206911
P 7.72266463388219 16.76240102366314 14.46040213003672
P 8.654887877991293 13.31858790558355 14.719806514366613
P 14.681853792319611 11.916115670710097 16.00669629756986
P 11.844065693397084 9.504586688774769 14.971778129679423
P 10.602834674372936 12.437770529155667 15.379229603810817
P 11.966259740032829 14.267053154926097 15.302339429288581
