6
Energy = -28.95811733 eV
P 6.530630399660842 7.848335020166093 7.034061600778436
P 8.127310261021412 9.155215018013932 6.691421832925603
P 9.202027024765592 8.832696746905098 8.482177110066043
P 10.932097639568628 9.934576695128237 8.881773178084774
P 6.724873562744741 6.864362132767877 8.909821270716485
P 8.460259016264619 7.464433576426746 9.9115249848879
