6
Energy = -30.27277307 eV
P 5.926212362885918 6.349184197582332 7.347230869376458
P 6.298023664879576 8.330347699487326 6.363495017296155
P 7.543471065955387 6.550184712713412 5.806778248352809
P 9.044748157733379 7.086469324441865 7.459319967719052
P 7.426700559031433 6.88840165706717 8.999687288681562
P 7.800757287388153 8.867863835181033 8.014466350985675
