6
Energy = -29.68615175 eV
P 8.83175704271329 6.743944510393894 9.25960388461279
P 9.007109620585867 8.316249314981773 7.7882535400495785
P 6.921662114711209 6.205512505137047 8.427395749046317
P 7.680101147622798 7.033724463723097 6.366644272925881
P 6.68076778532365 8.4388346197021 7.748273762267392
P 6.160966598483052 8.380167324572664 5.665131701783274
