6
Energy = -30.47488488 eV
P 8.266274264951969 7.538497018632646 7.060613862367368
P 7.453893259722145 7.672388281197732 9.150951530163734
P 9.795852683739021 9.890220667832159 8.985253271970445
P 7.704278519866071 9.803264328820749 9.751265658749078
P 9.732750314027598 8.923948912984772 6.959445207534627
P 9.174286211242375 8.30266162476704 10.41886921495761
