6
Energy = -28.95646583 eV
P 11.791527949798354 9.37576245046771 8.19170349734187
P 8.72717503766988 7.586316693234508 7.420430736535522
P 8.802653155759874 9.955693861878256 10.201286562093212
P 6.842044585536599 7.776731937633304 8.311616417549711
P 6.8854840079504225 9.15904348646067 9.927230784808154
P 9.799242254857095 8.937758304857805 8.640133142796635
