6
Energy = -29.88649385 eV
P 10.047140567915587 9.063973273512472 7.695981571065269
P 8.231126143287538 9.728658718403052 8.806629604363655
P 6.414407019528928 9.061467737641044 7.698893132097316
P 6.557617115695063 7.006574007828543 7.973559798943264
P 8.232727596400332 7.519947634210951 9.243777242992586
P 9.9054539448934 7.007784695798978 7.969631038258516
