7
Energy = -34.87272465 eV
P 11.085834151178931 10.626554090336525 10.562895906941707
P 6.7674284823902315 7.78623664059703 8.429222568916254
P 13.032014866087366 10.143037232937525 9.99180062038108
P 6.921634203882597 9.628442867550655 9.626906585569952
P 8.409319852547515 9.211356988513062 8.060779912825902
P 8.38875469415788 8.010993579945945 9.903709133218367
P 12.8278032763584 12.02616812672204 10.85747479874979
