7
Energy = -34.55660392 eV
P 9.394424344412437 11.007868351198413 7.409836920313773
P 10.337501662538106 9.157439498672353 8.2710590250762
P 9.615851125799129 10.826339660463825 9.587671766178717
P 9.546821703294427 6.0861110104938065 10.534802187344686
P 7.647212936240443 10.31721408477842 8.644498552425729
P 7.918186931980856 7.1503380279766695 10.128042938991925
P 8.294044305392895 8.208732376074687 8.178131619327138
