7
Energy = -31.96334726 eV
P 9.330642175517196 10.542388121335783 9.975064647333786
P 9.856279008564144 9.175713350040736 11.587211279985308
P 11.034484528739895 7.741119500395648 10.566925342276434
P 11.204325822124774 8.558357865005199 8.567859004659528
P 6.62302961735285 8.646993629124951 6.776702094768462
P 5.228886991825288 9.294161338678498 7.893378871475277
P 11.354615498066146 10.622043311116716 9.220976027243845
