7
Energy = -34.8602497 eV
P 6.571659533830188 9.847261806089353 8.167042410239256
P 7.688634720482459 11.574446318790887 7.379034956392779
P 8.379726734255849 10.55608724592605 9.20446196525896
P 10.941384355994014 8.863755278187122 12.141430893027163
P 8.552874516416251 9.553845288988859 7.252879597202284
P 11.896444579328328 8.633165213006583 10.308205764087917
P 12.608199902023077 7.6103631913411744 12.185868756121947
