7
Energy = -33.61234522 eV
P 8.937244484093256 7.3022567514858485 9.45007575086265
P 7.745347724201539 6.145383328500286 7.936057672000131
P 7.033653671259963 7.586593924866747 6.445373346298167
P 10.382864234804842 9.39009235262925 7.066677244113465
P 6.729311942152738 7.564836771821703 9.351510360057855
P 9.046202179886752 9.420947856041284 8.720106842712688
P 6.970547877122056 9.29551309135378 7.8420442690645205
