7
Energy = -34.88071539 eV
P 8.610398494664258 6.944980489364667 12.288913080527438
P 9.888706695946611 9.191846522619668 7.310662846005528
P 10.114696556283802 7.811792719195299 10.853087363329154
P 8.591716844712334 8.948128887315006 11.705337627584226
P 10.392392224870127 10.89599314784569 8.606186336514883
P 8.288051520733333 10.444570472494481 8.1485978634359
P 9.606212078725271 11.254862177101323 6.57938929853887
