7
Energy = -35.86346886 eV
P 9.818297246759023 7.276622565686519 8.532878948122107
P 9.637440842439966 9.39513161109186 7.835439373746593
P 8.994441629155396 7.736906603009207 6.5531554543942745
P 8.034087166666742 7.59204442791938 9.985166282523613
P 7.861002694866644 9.714571554769586 9.300780194331876
P 6.834310356157754 7.6228281609077175 6.65880249919229
P 6.37773744477742 8.219212457439024 8.691094628512078
