7
Energy = -35.22024377 eV
P 7.209865408157405 7.553371620798459 5.619670376972019
P 8.87752102234649 6.597887450826635 6.74556109994257
P 7.083412655263763 9.202953519680104 7.222818975536309
P 6.7505729635207095 6.015075377520843 7.163598696185154
P 9.060684074601772 8.490739216567711 8.040170669282809
P 6.120248858399161 7.700475396478235 8.596631711389733
P 8.001701827493969 7.543504227911281 9.715555280474806
