7
Energy = -34.44999422 eV
P 9.054589832518598 6.8227901128483515 7.919908892063086
P 9.88854527280909 7.54185934396507 9.865392374414727
P 8.768451525809386 8.890538647223435 7.113489745132234
P 7.796393984821558 9.76912242581727 8.929980232176401
P 8.79779858706423 9.229466008230846 10.703456149503564
P 6.009312737682923 10.640183267166703 8.80582993871637
P 10.739661168978918 8.244986222377904 7.8763060794895745
