7
Energy = -32.9525205 eV
P 6.822883693341684 9.336842951600953 7.124764225535627
P 7.887736257736232 8.660992139992603 10.627194292476089
P 10.045768761165087 7.889801899575061 8.238484839182949
P 10.430260086814398 9.836476769146978 9.12524220725687
P 10.063716086522719 8.142800378223185 10.482522290077485
P 7.826279703172413 7.963286643550134 8.566636208445074
P 6.654024122325867 7.9474077728141195 5.6836570356008504
