7
Energy = -35.86495781 eV
P 8.026389593186181 7.334976251892497 9.85585385427669
P 8.753614572204377 7.655894605589333 6.745328007669979
P 8.600620775204694 10.606327581850525 8.687859246839132
P 7.078928226979571 9.269518624987771 9.452482984685307
P 9.979356791837917 7.3724056345412325 8.596551308856592
P 9.931309294034131 9.312248116191055 7.570718532518031
P 6.806138295753718 7.642355330153731 8.00629598504175
