7
Energy = -34.90299942 eV
P 6.911339800958201 10.787930968006748 9.638750356221005
P 9.52449066898398 8.607038030119474 9.030933648626476
P 10.162448223826157 6.563778652852257 8.470344778119935
P 7.57320501378323 12.082362056310496 8.138622333188817
P 11.618800969724687 7.982708008462282 9.32172530076499
P 8.984250928331393 11.640535527466238 9.610761491498295
P 10.02927446141925 7.139456823810197 10.592672158607908
