8
Energy = -40.81517138 eV
P 7.923316772591779 10.588129690707289 9.633902986771059
P 7.380416795411644 7.319265574614086 8.608311696833848
P 6.611254422367236 9.29153515760072 8.595156830326022
P 9.546008147886607 9.382594614927957 10.549918785514837
P 9.190835083794225 7.263183757482172 9.88958177311605
P 10.147693857446669 10.498420892316307 8.727680643408037
P 10.286862769957176 9.135626924723521 7.115074644234302
P 9.609232273089559 7.222162214206718 7.709491507228694
