8
Energy = -36.17513623 eV
P 6.200760107016909 9.320225161227281 9.068238898025262
P 9.800126295554374 7.605013450878861 7.514169606402302
P 10.500229108325398 11.016455381877721 6.442946827354856
P 7.7347214224963245 5.417170749767571 9.56598446803605
P 9.292921128710796 10.492097232075562 9.759165892076986
P 7.870244174553266 8.964862581558998 10.374215516754504
P 8.538768331727477 7.209433482474121 9.15011781542352
P 9.804972044497802 9.730191036683705 7.827817969565679
