8
Energy = -40.63276881 eV
P 7.636813696497484 9.836095913452644 8.418288603350186
P 9.401160538063268 10.391309750473285 11.899924167779877
P 8.435430062598646 8.971208658548278 10.556558467274089
P 7.660086437856609 7.859325450455437 7.422660951897578
P 9.040302926056585 9.43982302434577 6.770655612741548
P 9.887583061831878 7.559472953230739 7.739681710224239
P 10.119317231851316 10.362107433827981 9.906965668884334
P 10.348984287439107 8.110335057860372 9.81494306004291
