8
Energy = -41.10892472 eV
P 7.85384962570176 10.192879300467315 9.314503516637327
P 6.891707541698589 8.407532201609651 8.487758143204788
P 8.78396677625927 5.997603983287632 8.919063840662458
P 7.315635422868955 6.882178939064279 10.065712014876722
P 8.490817644162652 7.468277961318467 7.256884902754825
P 9.265742471904332 10.835655920885143 7.71113922945316
P 10.196690215617876 8.814750207972509 7.534545439989941
P 10.036607751671633 9.80331683875044 9.523091095078222
