8
Energy = -41.1338072 eV
P 11.153661471705012 7.67030874698268 8.770433418696651
P 10.88284140245579 8.911397841474102 10.542632289178387
P 11.326978870093352 9.88448493755898 8.651120448760127
P 9.33440666016159 8.885555788071064 8.269197094506442
P 8.212673240058521 9.090271934135382 10.130031086912032
P 7.225912203787208 8.815316706610265 7.098525053278166
P 6.549570902407228 7.90277446301124 8.991285298093013
P 6.528761237482676 10.054695570308173 8.761581298726936
