8
Energy = -39.90223036 eV
P 7.29775190709837 8.60674390427896 9.386296553840799
P 8.337831772441644 9.927737931469599 10.905437813986646
P 9.273025387050879 10.642225772316847 7.9484517359768905
P 11.881240256066583 6.769852026813377 9.580380201182495
P 7.305849141150708 10.832963376154725 9.135050664652098
P 10.618664729271185 8.194416847211874 9.180936842171239
P 8.854588548694014 8.425044731013339 7.782331620189881
P 10.319354265132361 10.306736984868634 9.925961182667917
