8
Energy = -42.02293427 eV
P 11.428933093912525 11.035130470314956 12.348885023851459
P 10.65476809384324 9.958210057138098 14.104813879472887
P 9.258345281815457 10.929367266826059 12.705201682454076
P 10.362532327758217 9.128926913146492 12.084713386636732
P 9.794941754402236 11.532560994806065 8.364155602409701
P 11.45097081119597 10.085529019317418 8.253445987648353
P 10.21155875768429 10.476805869263979 6.476567101032633
P 9.366750479292351 9.38227000909166 8.191017936398296
