8
Energy = -37.13920035 eV
P 9.552127481194185 10.050214636264187 7.8418029946257555
P 9.342064564411041 5.413575192270549 9.689594732680657
P 9.367541019134547 7.546273366005766 9.775268063389868
P 7.408398479250041 10.270822759684888 8.667500995512476
P 7.204831818251318 8.41646595016411 9.828373067000328
P 7.84467737096217 10.2720498561814 10.79186836215404
P 10.735222609768632 11.483407177291909 7.181802797305024
P 10.061520404955816 7.967067947600008 7.767047062305473
