8
Energy = -40.72889436 eV
P 10.442949237653853 9.690216848438132 8.505513771892169
P 8.985211628974456 11.024536282499989 9.457788642077176
P 10.377695887522238 7.519550199402598 8.922657760928058
P 7.090950517129955 10.302118201420257 9.745162428448124
P 9.747703981724323 8.29502455064431 6.929757667723462
P 7.650426935192677 7.462463848436024 7.284939472310625
P 6.679507119990051 8.241590201651897 9.11444465610792
P 8.27483232078253 6.7137774964769985 9.28901322948267
