8
Energy = -37.64480109 eV
P 9.878506046037955 9.526185872569974 10.940890880838998
P 5.3993557736522435 6.4965643867339695 7.585077615746389
P 6.9877174855972415 5.610301527748397 8.147612416033096
P 11.197699071229442 9.637869358059458 8.190494640632256
P 8.471605206264933 8.47851912724121 9.66878603977027
P 9.697992295176373 11.614768686282646 10.394494260309402
P 10.594685016482691 11.691740691774099 8.538628122784113
P 9.365264284774879 8.548800575247325 7.808371592460435
