9
Energy = -45.32646925 eV
P 7.08810295900017 6.603994661382385 5.5019752164906395
P 9.142474837293179 7.186186940914641 6.2424082165336765
P 6.301413994911771 8.671883991638364 6.0612841124448105
P 8.364345729364734 9.24624717015436 6.778283410525955
P 5.742579723669601 6.881137786953323 7.324201355760761
P 7.0649965385539 5.747979924606734 8.769462878689797
P 6.281516012913164 7.816870130709003 9.329160558580314
P 8.344471022533737 8.679216625300255 8.990527828309252
P 9.12394398251407 6.620327569095657 8.456541223419379
