9
Energy = -46.22014698 eV
P 7.844677923134088 6.6209913165221375 7.467722196373816
P 10.016259955773382 9.080455854391124 8.796946977159832
P 9.586939529702732 6.086033002446579 8.789317464811699
P 8.493344001453762 10.747129740203409 8.518495625792893
P 9.811446357915166 7.612096983978616 7.146290758649878
P 7.404381408978 9.941173352752699 6.812805927107146
P 6.992003607114691 7.584765643112389 9.27107929610683
P 6.503993025694308 9.751281336093054 8.786917493311881
P 8.967372826826 7.790172372189561 10.252360058304161
