9
Energy = -45.91504702 eV
P 11.179656406315738 9.372039580110325 10.462748805260217
P 11.343448978469976 8.767971279327272 8.209537481838156
P 10.075557814788063 6.949396623462598 8.597285838721838
P 9.915654513072512 7.54870015270942 10.84753010008913
P 9.303500054620747 8.63507172432375 7.45249026804906
P 9.05092654977636 9.547351659629543 10.89692288006416
P 8.122100625527793 9.822035845219217 8.904465213971825
P 7.400201171244519 11.727002875698965 8.341872646045177
P 6.0311168046211545 10.052593177955517 8.70930968439678
