9
Energy = -45.03877732 eV
P 7.546510185882076 10.322659192016165 9.428593670891058
P 8.520628332437973 11.755907836834846 8.010796800654521
P 9.805079812205348 8.5523542743585 7.435772456505976
P 8.282363174965758 6.404835267967764 11.644563549105232
P 7.848694978315482 8.363410770821027 8.480284036706498
P 9.070889745066866 7.359968879178435 10.060820088308533
P 10.422343034817743 10.616178704907057 7.943933328046397
P 9.541321961104886 11.182528929610275 9.899658209189827
P 10.861611973818256 7.312807378181964 8.968125493720162
