9
Energy = -41.60954528 eV
P 10.141716142332756 10.662957399415708 8.960921393814305
P 9.478294209501533 6.577845029962927 8.970124207072
P 6.831811045340289 10.454379801641442 10.559724042225492
P 9.715758359936368 8.806264226995825 12.006785912439236
P 8.521554510299826 7.6436486404311665 7.411370040753345
P 8.924244694753451 10.790131492627461 5.690075756306497
P 8.781497088734259 9.971140369944543 10.491077428909472
P 9.09740894058293 9.690493854869633 7.399232609972667
P 10.338778570099985 7.17894716862717 10.797000039123544
