9
Energy = -44.96915005 eV
P 6.693629191533748 9.596269085817857 11.32723652471073
P 12.172135227583484 9.95167570016847 8.89851301403553
P 9.983117500874632 10.308333540884654 11.811927305871405
P 7.363096527641221 9.874880426834205 9.369185334176633
P 10.528373787922368 9.290474501916428 10.02577272507368
P 9.876050244594786 8.017179946033401 7.066238191431724
P 9.047590176728377 8.068866731682338 9.045381096754216
P 8.09687785574277 11.22784694651923 10.99136038573432
P 11.664608579770704 9.11398355835334 7.0314751809471705
