9
Energy = -46.3547015 eV
P 10.215283796514012 10.21437108463488 9.273501667569375
P 9.35639449286799 10.236616795566489 7.238354008158256
P 10.131599188400694 8.097952456624434 9.971604564805146
P 8.016662720625467 10.759121258035217 8.915971607388505
P 9.53124837798187 6.795973594798743 8.26130406934049
P 8.942758686851823 8.145409863868736 6.600639095467534
P 8.248541506720589 8.256703099235061 11.09104330606001
P 6.9273711343080935 8.888517393574547 9.454295018996637
P 7.353545899725766 7.328740257657948 7.916692466210102
