9
Energy = -45.741473 eV
P 10.858641202959488 10.101822589326877 9.18733946867257
P 11.082723796264148 7.84228217907794 9.01402854572797
P 9.55822193590046 6.677251921215603 10.018755010860264
P 10.362672632969609 9.08682271416331 7.24449219141082
P 8.890092211021157 10.26160378129438 10.174843624832947
P 7.37670670903216 10.601929106764624 8.508597431775227
P 8.18002360838814 8.789206934223767 7.390977783831829
P 8.23478538947622 8.227670496536657 9.544858783143301
P 6.1531526645085215 9.108430427917002 9.613127310265357
