9
Energy = -45.84203259 eV
P 11.686622115473869 7.018873882561748 8.571454671095339
P 12.317285935430714 8.907674288859953 7.809045774513352
P 9.841700529328717 7.166875641892445 9.54418904607459
P 10.91850035544187 10.399783233799939 8.234915076953719
P 9.431779539747598 9.268092431415548 9.305927823607528
P 8.727101154759739 10.34094943329368 11.213169132440964
P 6.6198010376157885 9.699624841755728 10.822359774731336
P 7.274883016464538 9.76773214977992 8.684047714431221
P 7.34456771322968 11.592635494133411 9.977132383644191
