9
Energy = -43.54445954 eV
P 10.046068691527507 9.818060695778511 7.59587000763188
P 12.006358521276939 9.133293296140096 7.174203062356178
P 9.241705069599703 7.7358821847142485 8.004063102584704
P 7.166457858171648 7.988172896861387 9.086027874807298
P 6.921329573132714 10.13982273627885 8.78643250835191
P 10.36829867574854 10.29222288390739 9.784002656721398
P 10.140027539345121 8.089213575694812 10.0187912998307
P 8.151614758677008 10.548979727998686 10.543471282378572
P 8.128677636327112 8.354849894430732 11.094069909241753
