21
Energy = -41.94566722 eV
Ag 7.096535351144396 10.927426791951765 8.977084905772404
Ag 7.5941594759728375 10.825631425898747 11.7966316155535
Ag 7.715003848524549 8.398710062855763 10.04352102567509
Ag 9.172483116452288 12.185268188152309 7.5342775227743415
Ag 8.473118614597409 13.08747351031794 10.291122426535416
Ag 8.91409363530758 9.31430697721486 7.3914918442714885
Ag 10.27356353697301 7.695500718300944 9.259268011190489
Ag 9.678502759324887 10.502522444870792 9.841382212854082
Ag 9.19866854904951 6.247714729709176 11.31119252945956
Ag 8.054101156785842 13.235410461931497 13.170982695315198
Ag 11.458814397295784 7.9985653733096855 6.78048416587743
Ag 11.945960573715649 7.681216147384046 11.534319507020967
Ag 9.532345784984672 8.801091925771232 12.17884218289758
Ag 12.836551569019084 8.73344640969116 9.087745346088843
Ag 9.719393187857351 11.060070115853172 13.674289442196756
Ag 10.634288077636004 13.137761595329126 12.08515966327383
Ag 11.231023478841047 12.773071074939628 9.442109271344526
Ag 11.512559062402905 10.67307424760822 7.573012820174908
Ag 14.226975113955003 9.39342762431296 11.419154514999839
Ag 11.776385568469879 10.597175221682726 11.661013351671254
Ag 13.574161142198589 11.349207867259558 9.513257397718247
