35
Energy = -72.55901983 eV
Ag 10.226302884899416 12.6940859618756 10.807709811420919
Ag 11.031511780426273 12.984863484678732 16.370975402911853
Ag 12.541138654981323 8.300414407672562 15.120594858993575
Ag 13.743941126325751 12.33054386982124 6.651245815093021
Ag 13.998909328290885 8.181694740270549 12.623093022939672
Ag 10.560356270745418 12.51429603634405 13.649356698348917
Ag 10.77241123449472 14.639770977551969 8.801919941147306
Ag 10.359865430435288 15.109157670515218 12.43668513286397
Ag 9.2343847253942 14.736578059642515 15.009180894707479
Ag 17.16957598770169 11.543535959861554 10.984639291187715
Ag 8.111599066982176 13.352778003240138 12.68719462192725
Ag 14.972977644508541 9.689719929557251 14.770627869917954
Ag 14.283625991308249 15.00718972232644 13.098316587164884
Ag 13.4603794783832 12.85552439036262 14.755019343270854
Ag 10.520300321622097 16.917492429562333 10.37325904020736
Ag 10.514924605937283 10.289696471717757 15.373600408409265
Ag 12.530000630109662 10.439954306848081 13.390776178593066
Ag 12.79742455200577 15.26979968913271 10.677182890325607
Ag 11.056399637267075 12.49379220175458 7.093947012526728
Ag 8.374338393120937 12.085828846557245 15.280234029529236
Ag 12.750366509201905 12.816971394854782 12.027558482953433
Ag 14.375179734946295 10.650662586449776 11.211073163930923
Ag 11.964005985853712 15.220462816890027 14.808839364369142
Ag 15.682090948535983 11.931056550686217 16.26992435715169
Ag 15.7759525291977 12.231367338372623 13.322931315245754
Ag 13.626676890473686 13.380314506468562 17.43443681860219
Ag 17.5909570462897 10.561537503314668 14.78480832199768
Ag 8.40009994963887 14.88103418531465 10.30724666711511
Ag 12.301423391192067 17.08648934123047 12.751007651090394
Ag 15.32135190301144 11.585582637597927 8.755739858525022
Ag 13.032447535147705 10.753966113561182 16.547448684996656
Ag 16.553630616193367 9.333568757654428 12.510659745209058
Ag 12.839707441021472 12.725311165725081 9.237523942174242
Ag 15.14349809974321 13.493926190775584 10.835459402301984
Ag 8.676776719096935 12.8039121341739 8.484293491876658
