5
Energy = -6.47381840 eV
Ag 13.88374436733334 10.941240477371307 13.642650037298427
Ag 10.283839453565907 11.270921184585335 9.973641355370338
Ag 10.842437705843277 10.863101427889047 7.442999211751895
Ag 8.922929310655569 11.365500352129708 12.285662280856977
Ag 11.59596327458443 11.33825846584486 12.415161576255002
