49
Energy = -155.33821862 eV
Al 15.493582702909297 11.554533102417526 15.115723388941706
Al 14.464051213660833 13.568668943603397 13.384898148430864
Al 15.775069963228352 10.930878445990617 12.495884760786659
Al 16.47839393005247 12.669112456908332 10.416017752617215
Al 14.696840913807444 9.077063652638975 14.547570473878887
Al 13.263676836026761 12.867365140711632 15.761862926540259
Al 13.090127557619041 10.244767085101945 16.39321914387443
Al 13.114966776890826 11.184415722947609 13.453984077667444
Al 15.108876958195522 10.087011511522197 9.96156246450043
Al 11.920739501495135 14.387239738455943 14.08075151688173
Al 13.988264428230114 8.742068525081674 12.107040640080799
Al 15.045987240698881 14.952971661999738 11.216215958064522
Al 14.917804788914571 12.31903477094175 8.220281586064225
Al 13.89249389477198 12.256290111226718 10.985987914528884
Al 11.894313503380685 8.871033105081569 14.254659111723985
Al 10.933469145029271 11.907336588110068 14.928941080139714
Al 12.043916447959841 10.423168654324709 10.804607948387636
Al 13.500173381569702 10.166232823535347 7.740680212205427
Al 13.759964439010547 14.629339258767843 8.898191550385569
Al 12.371353953726034 14.2513457041155 11.442653781813434
Al 12.774385209775735 16.74632622342401 10.531803954253567
Al 10.254986136843108 15.776843400338985 11.957298681125815
Al 9.471569577061622 9.69077593945601 15.561763166118975
Al 9.36204128503767 14.871184143062656 14.613986084974584
Al 12.089610821290584 12.47732924061207 8.968710476281053
Al 11.09598009367063 15.091703642444276 9.083391966654
Al 10.178787494748057 13.028047011901247 12.30379500577925
Al 13.104536215861206 8.129941966827346 9.63895819132377
Al 8.315509882890465 12.329497576067762 14.326514847235599
Al 10.325597967500157 8.698635266110474 9.424497069412373
Al 11.454603132557427 7.868218913112687 11.772840772063963
Al 9.288119457228474 7.885843614166579 13.496525996434176
Al 7.35875393327514 9.917462475804468 13.764627932476689
Al 11.95490269861321 7.943086105531482 7.215608944887943
Al 10.105509824864733 10.440100407772125 12.729718439243655
Al 7.789652832506739 14.537154150179777 12.5230990809603
Al 8.823101632015579 14.134888931370387 10.165058939778982
Al 9.545370013208194 11.315142961762364 9.940382108692052
Al 10.91675108986133 10.5715263816769 7.558165116374704
Al 9.682602042436159 13.069815060682139 7.712576012690223
Al 9.195191802019849 6.655339436087765 10.91638179517185
Al 9.879825098721488 6.184651817622698 8.220354972737265
Al 7.50256318934993 11.911361954669466 11.707016041796589
Al 8.119603247982475 9.135849109328204 11.349973182825911
Al 7.1897035525430715 12.67586266499508 8.784541426908692
Al 9.346518210315198 8.358830854581305 6.709500653205635
Al 7.725176018850062 8.005143676437365 8.906015935693796
Al 6.45101536595129 10.305903076895333 9.628604591144788
Al 8.287403137995206 10.584978646920973 7.570467093283655
