49
Energy = -156.23033823 eV
Al 13.77817085936537 8.370917656865076 7.119535353349816
Al 12.171513259323188 10.478810275759638 7.068270398919198
Al 9.188841306402498 6.534790047821945 9.619608886129864
Al 13.446999676350076 12.94371369596049 6.722478602818076
Al 11.658928246860452 8.167709565467522 8.941095978694106
Al 14.5386866303099 8.737687021439447 9.656906490633121
Al 7.989769665438366 8.416014972468412 8.294664653205016
Al 14.742935195910642 10.872765670294699 7.937745597163852
Al 11.342723027319149 6.410402229159289 11.117502829049718
Al 9.754999976809186 14.973718952940699 7.564622392753994
Al 12.524069275461622 10.688739570854917 9.910795876836957
Al 11.221731721086321 12.672532657323464 8.37980351829284
Al 7.149660024473139 8.252816952267665 10.962617682959312
Al 9.877339416454449 10.350856065464596 8.422967175929173
Al 9.818417024829198 9.04137021573457 10.866382493226771
Al 8.845957284508605 6.6607094126382975 12.333844103442559
Al 8.237424591000567 12.643757156073868 8.101475457078427
Al 12.736666134062078 8.583709805477335 11.615001233871032
Al 13.983884753089969 13.01898020939699 9.394247401648192
Al 15.561345374695193 11.125670409453551 10.490529327471137
Al 12.549736321641248 15.089410130303026 8.128056535242575
Al 7.309454958384402 10.586980820776319 9.58699856246983
Al 10.681499708551442 14.78474167951655 10.188397665800323
Al 10.83699996261089 8.095540963207167 13.487244245824646
Al 12.210885244550479 12.93810133357617 11.446762825652543
Al 6.9045858862426694 12.828228611859679 10.872518095487422
Al 15.317327841865987 9.060918870636963 12.309361340914224
Al 8.09445542003794 14.841661704924526 9.759938603895023
Al 9.65056654756603 12.146324237433532 10.521281220688895
Al 16.881795758453237 11.249907322831197 12.868571751967975
Al 13.98148998870133 11.332106772032772 12.796899549604744
Al 13.50181053987068 15.3609909189284 10.807480322627251
Al 6.354376416639315 10.519750462217543 12.26429106888548
Al 15.333678686835514 13.492724108683849 11.803776852032268
Al 11.260737242583437 10.6976313209435 12.505959367654468
Al 13.10196581923033 9.163900009616514 14.280383642811515
Al 11.50628671078793 15.377946499997858 12.686781315272103
Al 8.74370587437227 11.681140076914684 12.906275120136934
Al 8.360492277536418 9.035247348677267 13.392930117148346
Al 6.332325125132646 13.055982038211818 13.528331412614406
Al 8.937218060722682 14.311803711796927 12.36647945683169
Al 15.51046118221283 10.12566484891842 14.999786474521741
Al 13.47721188086893 14.001116774013159 13.749478455877572
Al 15.60269484686299 12.795165862776624 14.665217290926153
Al 12.990567031277857 11.666854577261658 15.29871670893035
Al 10.93094872364572 13.059893694468167 14.067391948940568
Al 7.311643647021166 10.83884238461626 15.03656645005685
Al 10.23951638009875 10.530796641217487 15.035307252285628
Al 8.51354967129817 13.365145437103523 15.086595697140863
