49
Energy = -156.40885197 eV
Al 13.506400166248397 16.000274959967903 15.46661841489647
Al 15.397601736505214 15.322648022018033 13.669153907759497
Al 11.083623121041292 16.15509988001636 14.437617173035013
Al 11.955735592486665 14.056923434966663 16.602262586757195
Al 14.32245196672323 13.369235232162376 15.41397151241245
Al 14.121201421223999 15.989727748249157 11.336417899805575
Al 15.50555621007889 10.944756999260672 15.32055444555138
Al 11.506683526194534 16.184628414902033 11.687782805126327
Al 12.813930903568195 14.432263270828644 13.272667335768888
Al 8.974360705279379 15.836008205096089 12.918414895478332
Al 16.7431179118272 13.064938534369801 13.946767178159241
Al 12.980225237758518 11.280030607006843 16.70535377443062
Al 9.575204264326487 13.920865514560084 14.84300025851659
Al 10.155222507118445 12.1069977384115 16.695172165781642
Al 14.392404945111688 12.258338333618866 12.843203046358017
Al 13.257849318408633 9.953701398807208 14.196772192417686
Al 16.097732287458324 13.981245416276312 11.361505161115069
Al 9.3778747877805 15.937314801635623 10.203484221465636
Al 12.912686157167606 13.441470600341408 10.804813369961591
Al 11.826302462252086 12.316276203148856 14.443272169040132
Al 10.407243828755774 13.450833059508826 12.082204766152548
Al 6.712792638361715 15.765252339839797 11.494772304552745
Al 17.950254928694953 10.56870519447994 14.084492855090074
Al 7.603912510821618 13.397537862060096 13.021849628026343
Al 14.757728994433208 14.67995410139554 9.11342493961047
Al 15.635077035958318 9.489258540556317 12.896712062879596
Al 16.98993230311559 11.477694845027735 11.649290282294151
Al 10.836645158167512 9.837399174586526 15.514230699386776
Al 8.763514315055119 11.308043985352887 14.33661704224365
Al 8.02633134482518 13.66202436043004 10.336484288336164
Al 11.023488470806745 10.647372276711419 12.700917119588738
Al 15.163157118661557 12.09876550166628 9.662852270793929
Al 13.382952567600096 10.379144496598746 11.325526978870819
Al 10.584872851908846 13.783665858388446 9.147087786566935
Al 8.573929551010972 11.319845568462975 11.551224324407574
Al 12.92539492760244 13.102078382804995 8.054730908024446
Al 11.11532533115262 11.235445881285786 10.117392454266678
Al 13.6758155118052 7.728986010367038 12.412034859048987
Al 11.343075041382216 7.89967561252489 13.82202463082684
Al 8.94841042956429 8.906780360918964 12.912872237313781
Al 11.245212594539503 8.423658296891663 11.198618282059156
Al 15.677170581290682 9.468217281020973 10.081559564630412
Al 8.690550261558151 11.634601940917602 8.854708658931083
Al 13.461216442601156 10.39471717374804 8.504230363444737
Al 8.953578257385665 9.186933645163197 9.962464097659328
Al 11.032945166949334 11.343101599245411 7.405143242914077
Al 13.541824936042726 7.833374188992538 9.736549135876496
Al 11.302430750862833 8.769290847350916 8.496516718235847
Al 8.9976616658695 9.48350704340043 7.183273729472872
