49
Energy = -156.33089772 eV
Al 15.74677012608974 15.131908890363832 9.919684848282467
Al 16.58918791112393 12.775518681329729 11.305656787694057
Al 14.519591417462305 14.340662600968107 12.229938495116125
Al 15.681818671207726 12.366629787910151 13.894680186297252
Al 14.09278881618253 14.435217401786621 14.829920121831805
Al 14.326694083824288 12.12697572445017 16.339322850582292
Al 12.110387521970306 13.90517847647865 16.458207175435774
Al 12.183096210913941 13.717678377222057 10.49597897385214
Al 12.271353824409594 11.98385861326652 18.36270845269216
Al 16.0886170615167 10.063885590308612 12.350415965432614
Al 16.048660717573693 10.691557810556143 9.708355416151122
Al 14.482098250017561 12.843283677001349 9.287891935791473
Al 11.9491139838755 14.60783031379789 12.98596760059534
Al 13.901402676515985 11.73166336515689 11.796780318357929
Al 14.368721678348026 10.097681779747575 14.510901457673404
Al 11.052140688892168 16.20987025295162 10.912460521292799
Al 10.038055240174218 13.786523108351389 14.615733837865479
Al 12.443286894743585 12.069437042487952 14.315364641250909
Al 12.486017725752035 10.076556152032818 16.54260173570503
Al 9.547095915908399 16.06467713704304 13.189829582937021
Al 14.029556619506106 10.438770051030895 7.881875646974266
Al 13.20360509795166 15.12018078550396 8.238134862802653
Al 13.585699504756201 16.374558391732826 10.619304595080976
Al 10.277447805447332 11.766081520919514 16.37131392225454
Al 12.367144022566857 12.646676623216498 7.616783636843276
Al 14.588076160723972 7.91331521922424 12.959390212805559
Al 12.667612567753705 8.009759070708245 14.883959609899994
Al 10.530035141092862 14.749606581113172 8.489610316379933
Al 10.581647115892942 9.789617041312942 14.564637112008997
Al 13.946612520312332 9.162811156009713 10.40113831063563
Al 12.300877688808752 9.737535102237985 12.475588045775083
Al 8.482170923007551 11.45045603267322 14.154368225091883
Al 10.637274746504858 12.079256146834775 12.354147760287182
Al 11.97444552274777 11.08834546070424 9.964865719418434
Al 8.266728874795753 13.668410208881793 12.57075391451265
Al 9.40993342158944 12.866227420464908 10.159571751671184
Al 11.430606616925525 9.849968300373707 7.622161292213263
Al 8.558328692123048 15.44999109997558 10.552527120325225
Al 9.76118373400059 12.04762388227861 7.6122028079487905
Al 12.816983330033317 5.684898869532608 13.60829459837729
Al 7.896902636653752 14.18861547140003 8.125808482486095
Al 12.840516072759057 6.808058302560156 11.214796509522309
Al 10.758830640236852 7.403378650956534 12.972759786603817
Al 9.388419657469258 9.52122836363343 12.169286403075743
Al 11.137798016472201 8.442310350697545 10.181778122482175
Al 7.532441886677566 11.27087399881034 11.455358651822905
Al 6.495640838582352 13.623436549638308 10.408599565126375
Al 9.264834260827996 10.13525072950156 9.51616947283597
Al 7.250670534151188 11.595087901733738 8.711336706772107
