49
Energy = -156.42958341 eV
Al 9.06884604708317 15.790929601504427 10.475610396885378
Al 8.30879599804718 13.382400311558337 11.517278244465947
Al 9.603217195662875 15.545683218792881 13.064946315074762
Al 8.606207659997455 13.146274260685859 14.111823112144524
Al 7.555722143837574 10.904671310388702 12.451413634544766
Al 8.516656241108981 11.166972008788347 9.910582649879375
Al 11.376438948049515 11.345247666817421 10.143161491687437
Al 11.031799399472987 15.782984614394813 8.648894404021409
Al 9.809867408520828 13.425085097891928 9.203203759671243
Al 11.782046814286298 16.277831233785225 11.344993691175429
Al 8.515117107786464 13.35205086720981 16.733744668925585
Al 11.076977566939602 13.696264057263242 11.675896082972098
Al 10.251195453080213 15.151975328742004 15.622469062728864
Al 8.734904873551061 9.117207940639316 14.12290278083019
Al 13.128908552636936 15.486998008547488 6.961616524060446
Al 10.245766086636273 11.237048893209877 12.81700547206262
Al 10.589105801673544 9.181400984685837 8.698070593923052
Al 9.838344770744712 11.176473514799044 15.607900540749597
Al 11.527628792027198 13.027275469896647 14.338662038471394
Al 11.144831386309956 13.068910900836709 17.28306923375827
Al 11.40606422479536 13.404976222135764 6.929452861061886
Al 9.766015931424652 11.36840197191204 7.484318538363182
Al 9.46617306957758 9.120564228993127 11.335867117416372
Al 13.799188477230048 16.149504963263983 9.553038646484719
Al 12.562192837210183 10.89965289980853 7.552298718575818
Al 12.25707409757322 15.781072087551905 13.922481657064145
Al 10.507153287704998 7.318009861701062 13.100985761221175
Al 11.307446729565376 7.2935470104615305 10.383604635018795
Al 13.093123421328785 14.423847056300481 16.09278596603404
Al 12.727125573210637 11.312105076794838 16.18433873030773
Al 11.477023699803343 9.202636064068578 14.878436579306415
Al 12.190861764288446 9.319690043898241 12.032780104187074
Al 14.247767808197255 13.05183847244 7.321893832044742
Al 12.62673221388415 13.693642228762029 9.457874572770207
Al 13.043700716910026 11.868568160281265 12.276355278454632
Al 13.321130242805609 8.964970205270975 9.291201938851211
Al 15.462440794733855 14.015868031221077 9.620656682102723
Al 13.904476851472285 14.510600126341378 12.054671297584552
Al 12.275184726123628 5.45219640511682 12.063018574700573
Al 14.947002272887117 15.41981491907975 14.405153284147021
Al 14.5543283866005 12.713882358453946 14.426797420737243
Al 13.904045124698058 10.049592622761915 14.15205952488808
Al 13.175245810971777 7.357074084871386 13.846206805520016
Al 14.227313604135777 11.533925223621468 9.593601977614851
Al 14.857639783944911 9.832668252693512 11.46300182279525
Al 14.123755327451205 7.208427921954089 11.128592317545918
Al 15.75550852918563 12.482875838346304 11.721823526689557
Al 16.402241153015424 10.727080233746806 13.56672471676734
Al 15.751404714036063 8.111021559927515 13.27847183593107
