10
Energy = -17.43499551 eV
Ag 11.278103261714424 8.890055425573017 10.83069370688065
Ag 8.805097508747181 7.549393643671407 11.1832188880922
Ag 8.911675782309583 9.818023720008838 9.593164842075671
Ag 11.308902975054243 9.89120454758961 8.173407962967438
Ag 6.735869913846268 9.866911062677922 7.83122590211131
Ag 6.411242304134576 8.908808423823313 10.48283754689479
Ag 9.058241069570624 11.416274626744645 7.314294114651779
Ag 7.597979547247209 7.263033893969739 8.60166786321415
Ag 9.116771258447685 8.70577045695244 6.777215814619312
Ag 10.366673754244957 7.264288214573978 8.798918732464651
