8
Energy = -17.9773628 eV
Al 11.528454173466246 10.155596039113272 8.76475305470472
Al 11.527574304330125 9.187279723525148 11.182297678138198
Al 6.541525221445889 10.235274373622593 11.016011525728672
Al 8.963695678837153 9.428838092892063 10.409114550322428
Al 6.9717398616772055 9.523625804862954 8.588076062784298
Al 9.461364745028174 8.762769309493022 7.808697462422867
Al 11.064562039351728 7.359347957930771 9.396142298033634
Al 7.40227827486577 8.761646282244289 6.143066549766447
