8
Energy = -19.20552312 eV
Al 11.98143482331193 9.72702575486955 10.831128611972705
Al 10.144682753061934 8.791678983752096 12.363602547992619
Al 9.186353514848076 10.084199315529863 10.106171558551816
Al 11.227850602278316 10.843536569805693 8.67406203682263
Al 10.01009229232838 7.528448297081394 10.132257903002706
Al 8.353596330057186 8.238387998213348 8.312473429773766
Al 8.863940001168872 11.031963069950594 7.595377959902563
Al 6.589344671795781 10.107122393182838 8.345591289836003
