8
Energy = -20.31223497 eV
Al 9.35359244805375 11.660933847993581 9.980950288141772
Al 11.825134291341497 12.465687433468972 10.156036016254482
Al 13.637827615819466 10.563058329572572 9.53261564208632
Al 11.067410882404445 9.836733850619392 9.305966406552711
Al 12.559582663124306 10.451472787318917 11.956604810588805
Al 10.259428496711454 9.297583068514589 11.690786338328857
Al 8.185474303174638 10.917506142400482 12.25526339046882
Al 10.599218810415245 12.089110933993517 12.436223241366926
