8
Energy = -19.09927363 eV
Al 7.812545060068746 10.404998744318636 11.75348579735042
Al 11.22561608839087 9.153537197876876 9.207984284050447
Al 8.696471951544257 9.68610159457862 9.449601993189669
Al 11.41774575376105 12.782177756968998 11.756072274023316
Al 12.800778887357295 10.958264086115005 10.533801212243436
Al 9.278525344755904 12.082003883873297 12.990001003655912
Al 10.480478315826359 10.173954347656913 11.531932692524068
Al 13.419602936763788 10.071547810818705 8.174910317235632
