8
Energy = -20.31195997 eV
Al 8.501916846910452 7.739540542935031 9.921853170006093
Al 10.803725386335389 8.698616249231359 10.969918080730537
Al 10.762660454103353 8.530542423257744 8.271531242693936
Al 8.682593864175454 7.1992345327927865 7.349636307919907
Al 10.841612484776809 10.857324130496995 9.393490512425553
Al 8.487373077412173 10.033180278214905 11.09773501457178
Al 8.519650534231241 9.946238337818917 8.427559145830477
Al 8.784298790775079 12.379154943971816 9.952107964540604
