8
Energy = -19.50447987 eV
Al 10.485769464593218 6.763033383402841 8.496407985024144
Al 11.250985325176272 8.95857592530941 9.529176407473479
Al 8.517741513119034 7.495523270077073 6.927038393827911
Al 8.303362268889236 7.911005835514714 9.637767864976729
Al 9.247103818543922 9.901611068374294 7.9856620950027555
Al 6.589434685031258 9.062457350539669 7.601902008339781
Al 9.316555285330702 10.163174227414636 10.75604133976304
Al 6.938293204205639 10.39386450425677 9.71524947048157
