8
Energy = -20.09777058 eV
Al 9.004312824391732 9.93653764045938 6.656230012357547
Al 10.241714255550178 8.411843765951053 8.390350205392075
Al 9.261621531932285 10.697940826867034 9.18819021474613
Al 10.507255010752944 9.10119015782226 11.215234808886336
Al 7.840596816501127 7.751490958497287 7.579070552119219
Al 6.884845377776922 10.161699097100795 8.155682060067909
Al 9.067744215633185 6.01994926704054 9.492339620545414
Al 7.903557626968426 8.630995945768444 10.034550185392167
