12
Energy = -22.05287692 eV
Ag 7.9387158838855285 9.4565102741873 8.162481113377556
Ag 6.75014592949409 10.994653435300298 10.052004930329778
Ag 9.316139236641973 11.79973932116008 9.228662576751027
Ag 10.64704580156029 9.39943296189294 8.678717787578565
Ag 7.516647144109565 10.914894508693045 12.632939483062154
Ag 8.88422863985566 9.250887230264798 10.824579321981266
Ag 12.035680904487029 11.660227568982172 9.904209037410938
Ag 11.720676879996054 9.199622402640347 11.251788860178884
Ag 13.34315221494764 9.304101084481326 8.806432977593115
Ag 10.08301180161986 11.533906212806308 11.910759146725146
Ag 12.642718920367024 11.291952968378999 12.865694741367092
Ag 14.382771473547807 10.460929099246245 11.004098351918072
