26
Energy = -53.38318655 eV
Ag 9.788632831257745 12.182035026706572 16.205856089149993
Ag 11.17812832289756 10.146177695126232 14.841301001668477
Ag 11.634791082154834 12.966891997700568 14.323814349573686
Ag 8.280774848834971 10.380338651411723 14.667353291805366
Ag 8.902771565192229 12.900188801791272 13.650428833880417
Ag 13.518343840097247 11.198123019394357 13.279399730616731
Ag 15.086747212895315 9.18241970219009 12.173893643121543
Ag 12.356479027476743 8.728272329364119 12.558017647693752
Ag 9.541020418932002 8.67367981026128 12.875358079099984
Ag 12.62000240603868 13.287836397568755 11.55359550152953
Ag 10.8326084975742 11.105632984437188 12.207767010036518
Ag 10.545285476698453 14.891518222546718 12.552611417171748
Ag 7.9971420563925095 10.88857111387066 11.886765754196528
Ag 9.425915930401695 13.094972512242489 10.745213720091018
Ag 11.86313660055158 11.19348637889202 9.598856757900785
Ag 10.675582883689533 8.616675410409028 10.290211679638215
Ag 13.432029085695628 8.839311806973042 9.901267504102822
Ag 9.100855781176946 10.711156771532112 9.260207781053928
Ag 14.48960764445005 11.428372868584548 10.601806967931195
Ag 11.269451908069156 15.026733288641884 9.864330777987297
Ag 13.288563307302153 13.297230551599332 8.618745015563594
Ag 14.209516792456451 10.631175806367063 7.918207583461202
Ag 7.91683137166064 8.485058919285734 10.494399181497307
Ag 10.389696182045222 13.019314342723353 8.09666600588117
Ag 11.531121829201028 9.363233310731816 7.625536338590661
Ag 12.203060739912582 11.841568815243143 6.434904075369085
