18
Energy = -34.51724144 eV
Ag 13.69354544611791 9.395630576260022 11.365895303662297
Ag 9.129207926158397 10.409212143476669 10.837175958728373
Ag 12.354580592429167 10.117714804615405 14.167878650805521
Ag 11.29094889227669 12.848476230668886 14.146439978093934
Ag 12.002940419032779 11.708897061415591 7.406449787819216
Ag 11.223627491523983 8.499553463454651 12.199162058401734
Ag 10.451755830377296 12.46796288985596 9.642572293494224
Ag 9.779300349545803 7.607012733500555 10.087034762114229
Ag 11.678215140460422 11.35699028017679 11.857154548194693
Ag 11.969481957341543 14.034583195525881 11.546011972139201
Ag 9.659448839035026 10.637694734140725 13.69262267806016
Ag 8.43162166049888 8.34361208275293 12.516099015705027
Ag 10.138811485903556 13.863532402446587 7.327278262880889
Ag 7.125923149415248 10.827622558277488 12.800321559709754
Ag 11.574513254285524 9.75612956838316 9.40261074936701
Ag 12.57729504526829 7.235578276662139 10.011925258896984
Ag 13.481166910113888 11.836612624725959 9.76046105837215
Ag 12.408584094302126 14.238053738262547 8.81917124566211
