28
Energy = -57.13961968 eV
Ag 13.408008830328626 8.226855452358675 10.108830777891347
Ag 10.938576096386145 7.050702680920226 9.237718696593907
Ag 9.242254820577813 8.354129431318789 10.922955813720653
Ag 12.859655446347515 14.0096216356971 13.812796962603247
Ag 15.894054979007205 12.40750635357503 10.671818220258112
Ag 10.917626435333913 14.089952188158149 11.8684836968204
Ag 15.285493396389075 14.182155091151287 12.681420111488382
Ag 13.932738376892804 11.658977904838588 12.506422690873523
Ag 9.449888043293537 11.513164762984017 7.531307771525
Ag 7.407800679425932 9.86375996380537 12.420941256826373
Ag 11.114736705856597 12.160716907037392 9.780698344704636
Ag 8.613214594518585 11.250863415534068 14.66853261297723
Ag 9.215997445855987 14.244313506746941 7.1777050722768205
Ag 11.701452943275985 7.396299154376983 12.153733721830307
Ag 11.70867315769892 10.052239440806165 11.460723892383436
Ag 9.347060092304842 11.86338647631498 12.087956082143377
Ag 11.22994143622262 14.797940353112557 9.08236326768796
Ag 13.374924312057633 13.797848410953055 10.651875888573878
Ag 9.99552286301896 9.199800879178476 13.502091228533338
Ag 11.428031900277643 9.690244569768124 8.596759560052796
Ag 6.642367526148246 8.59843064041634 9.946649341796137
Ag 8.135203573448726 10.861411983934715 9.843602439421257
Ag 12.922405395747068 9.244567036023659 13.909144027844059
Ag 11.390172339598381 11.69644155061466 13.946135689067074
Ag 13.938871816607211 11.505764806808626 15.208151737658506
Ag 8.853830142066222 8.73777187267359 8.138593796954982
Ag 13.697521508562723 11.009912448663988 9.716875489884867
Ag 8.760731391499741 13.558847430635192 9.821207021388714
