47
Energy = -101.81299955 eV
Ag 16.50770315091361 11.064215814216709 12.606795649580556
Ag 15.943475643734324 13.57488761694472 11.314815701594043
Ag 15.848179609531508 11.136252729081653 9.773244873361687
Ag 15.414332161059592 15.67039834725546 13.12526559736713
Ag 15.513610820910852 14.862197004718034 15.866985603296852
Ag 14.922970518297754 12.947742410147328 13.93552593489456
Ag 15.088866856913986 8.922401793417057 11.5881518846076
Ag 14.090077162930879 10.053749940523375 14.088230994673989
Ag 12.051913632288532 10.622285743751846 16.15677938098363
Ag 14.585903049238826 15.973991247961969 10.274836394621312
Ag 13.868069918994795 11.585911104481335 11.621127307939942
Ag 13.887700714264618 13.312415639465259 9.3013183375534
Ag 12.629008738711988 7.789908644442841 15.786765533984537
Ag 13.100432264983379 17.125951975616605 12.370687901904706
Ag 13.056112701967606 15.324391007028403 14.65461826605189
Ag 13.177949773359737 7.262058201157974 13.08034463220183
Ag 13.238046079450383 10.547115136528014 8.814276234675676
Ag 13.522181681848204 6.8635737323718224 10.383931408417675
Ag 13.132501900382733 14.34761217246233 11.974648414939729
Ag 13.357187183359626 13.03997371496774 16.225099657550242
Ag 12.047055418874562 12.165099593233768 13.657617787870482
Ag 12.35999801978055 9.287164923861168 11.201879032759686
Ag 11.84550735583246 15.26943149371724 9.297608559908607
Ag 10.502604318309974 6.673260136154786 14.130379234288371
Ag 11.380636506015982 9.253045996785715 13.84929687670648
Ag 11.54332927863456 7.918127233779516 8.769803911402239
Ag 11.522346759258733 12.626259145179473 7.85221980252226
Ag 9.711689550517352 16.879576469911214 8.458702099219495
Ag 10.443559080197232 10.384733519960246 9.437969032785727
Ag 11.100815515082395 9.988150348119072 6.820921376606341
Ag 10.845993537931705 17.493879378499628 10.865263369918317
Ag 10.700112950403051 13.86555913043924 15.371138740578864
Ag 11.272166628124946 12.804173139626934 10.69555696064786
Ag 9.880337093954184 8.691774051715383 16.130037466813985
Ag 10.758430961411278 15.740485023024831 13.096249900175248
Ag 9.970668620055342 10.755434739380865 12.094620196644513
Ag 10.0709333390859 7.769793270472341 11.375792898606667
Ag 9.498214231210527 11.264654609913533 14.867123959858176
Ag 8.893205816703277 8.576380449997243 8.00779817423537
Ag 9.269877967949547 14.17463884076156 8.225181453690295
Ag 8.706988635946775 11.455126143684577 7.6448784232319165
Ag 8.536384019238914 8.752240767553992 13.579248045265718
Ag 9.2478193670714 15.212706353312951 10.790663574793959
Ag 9.264079771964845 13.408151884939297 12.924193380308012
Ag 7.954346586680325 9.572718681812352 10.508974869782381
Ag 8.424867648477681 12.483787548985935 10.337509638190422
Ag 7.334118237171033 11.239227875896184 12.76031261782008
