31
Energy = -62.78606630 eV
Ag 7.308636890581672 8.203143204043101 9.485095829871812
Ag 8.83735920935756 9.6255469336282 7.731645528719371
Ag 12.92940579735028 10.882933892983424 13.190875531436566
Ag 13.523584976769222 11.696374688800352 8.49079681419881
Ag 14.969081105495475 15.24650980993875 14.671195379260952
Ag 13.13581090082811 11.167547178934242 16.15198739871129
Ag 11.487961304027854 13.788907250480332 8.445007788630978
Ag 12.72798667663092 13.501210638609027 14.76332985553574
Ag 11.637887090434875 9.090946197614526 15.138494439768285
Ag 10.497847912267702 11.615265497609299 14.655965486408627
Ag 14.203206263875117 14.321356500212218 12.179625478617455
Ag 9.389057631444961 13.291187469736087 10.427270985077572
Ag 11.895453608601116 9.423605888862848 17.80206714790093
Ag 10.735812241850859 11.176533146691641 8.937863910566282
Ag 10.609269112863569 13.776136545064299 12.945768530375608
Ag 12.230601345514197 12.632848418029493 10.893525508822165
Ag 11.617752336147886 15.304759055210818 10.819987768729625
Ag 10.043003861001708 8.695621432824653 10.10782315532638
Ag 12.421017774892197 15.950275044499477 13.488888393299352
Ag 14.888619727657131 13.224292585496077 16.59473336457895
Ag 14.16162584598982 14.245543324587041 9.39870996058387
Ag 16.292221176153667 12.483633524856257 8.922698479662586
Ag 6.562899509705551 12.945529125165203 10.895265400360758
Ag 12.736857093955543 9.755999105087248 10.432280966968294
Ag 14.885114610768401 11.78772197038709 11.220235965396657
Ag 15.19886169051656 12.40600387301638 13.973977362702287
Ag 10.338478740223652 10.84051329470076 11.941943284126115
Ag 11.486624109927932 8.40784319664971 12.512306322546781
Ag 15.411185719636284 9.854641824736012 9.37583175835337
Ag 8.213173874237711 12.242620233830886 12.957654079692958
Ag 8.061156846534967 10.83266529624835 10.126889231723323
