54
Energy = -118.22816894 eV
Ag 12.592731229889749 10.314401212298725 16.335444894040414
Ag 10.030214241962314 11.191936023659382 16.323171220601147
Ag 15.794745978371454 7.036292432403004 14.7546577581474
Ag 13.169493457596799 7.76392240312947 15.221229306074399
Ag 15.277773176704269 9.526736892832766 16.019381683926333
Ag 10.441539329495148 8.433864860914724 15.591493474879815
Ag 14.593679878758211 12.26484397289531 15.63809575959235
Ag 11.894128797977231 12.671474608917496 14.793809357752076
Ag 16.370678617705025 14.261563891244753 14.965486222767044
Ag 14.275034056038136 7.73177678563728 12.447058054722586
Ag 7.8888277490188905 9.6815249976783 15.42456014605466
Ag 13.767838445177752 10.242189793969072 13.774155380300325
Ag 16.612758526582425 9.326380017127446 13.500483478589393
Ag 11.458295894404749 7.4664080154881 13.072880661701438
Ag 16.11319339111043 12.04613258772707 13.22910711015791
Ag 8.760177212963258 8.128169036389352 13.281308856141274
Ag 13.650501015900822 14.838234747489532 14.809357413189911
Ag 10.6641901762684 10.426686399840996 13.573331127255564
Ag 10.89310919415396 15.322510713755563 14.491484551647183
Ag 12.397072471118083 6.854927747647269 10.492276263144593
Ag 12.318954674384148 9.612228440068476 11.347268375269135
Ag 9.923652108911362 8.127340804415754 10.726236916435136
Ag 13.001158994533832 12.330873038966802 12.109942384048201
Ag 15.279101776875217 10.162456450483372 11.26710556007862
Ag 15.229936600701793 14.533663497112743 12.446837332564858
Ag 7.540625040121823 10.598388269631393 12.801674759550018
Ag 8.108357876416111 12.463647108175147 14.746779797891438
Ag 7.165124258660225 8.593781492570058 10.952170652341838
Ag 8.15510091761553 15.090993478153887 13.818710182802972
Ag 14.068234782075761 8.622628037385118 9.23638532960172
Ag 16.046299778167587 12.713880047186311 10.410409046771196
Ag 10.043534804711882 13.18267936278955 12.679139274730147
Ag 9.80612435189075 10.97051351255467 10.885921261419771
Ag 16.038135615211765 10.525340615339616 8.536867975691148
Ag 13.516799242454379 11.502241135584105 9.483335751615554
Ag 6.893463611851727 13.21875393655281 12.234804933131796
Ag 12.443463742219194 15.090011737376184 12.22377225779376
Ag 11.359428478164856 9.84053314050341 8.633589638134415
Ag 13.952574107866182 14.452873725133523 9.949880670613247
Ag 7.137383515205346 11.350689948350944 10.122352824081295
Ag 9.87226186069007 16.03611417222782 11.866638465118195
Ag 11.312433779736471 13.277559174357284 10.026333482034818
Ag 8.485894187063032 9.366996227848821 8.619107782017151
Ag 13.707722217833402 10.270550417224522 6.943710807770187
Ag 7.109026368451795 15.870655974619812 11.2913958016514
Ag 14.864866735140192 13.021476739107431 7.6163001297462
Ag 8.5277247406123 13.85362139850796 10.03453215501414
Ag 9.398449288180345 11.923480435689227 8.165112867054658
Ag 12.007673259306218 12.45250239774307 7.263036651956405
Ag 11.72794263463483 16.178309819963246 9.744496411047367
Ag 8.992730464160163 16.629177803183193 9.271875186283705
Ag 10.179693310985847 14.554423883460135 7.71372603083332
Ag 12.970486618821537 15.130378753418817 7.378265899858746
Ag 10.958200763109804 17.14614820743421 7.265054973974193
