10
Energy = -17.41766527 eV
Ag 11.921351569070477 10.745887996683331 12.035909467152127
Ag 10.214764044208538 8.709842220604918 11.501555544457316
Ag 11.653470577784466 9.711688292453747 9.309548038019829
Ag 8.672161137839042 6.538972287242551 11.203071574378521
Ag 9.72284974693119 11.306331264466536 10.511859553092652
Ag 10.411778661966398 9.32114685023313 6.951212497721856
Ag 7.368357868016092 12.424723879909813 9.887123278741768
Ag 8.240260896212678 10.405778392457234 8.350622058696839
Ag 9.327113248559193 7.903039809332042 8.982969306587801
Ag 7.757563338622446 8.338572774965392 6.658816240346609
