24
Energy = -48.63378228 eV
Ag 11.619597915720554 12.341305105212491 7.691001068253281
Ag 14.120904320440715 11.177180325079263 8.092986602043364
Ag 11.372084669705165 13.987050822207584 12.242787454765987
Ag 12.972924065360711 12.90667724099721 10.111306291391909
Ag 13.26744270519147 11.856877729897318 12.75875885589141
Ag 7.429340772673033 13.03287676287102 9.375801681082912
Ag 9.226913834701465 11.119653324789008 8.42154648097689
Ag 10.712111914325746 11.724992334176958 13.94504322456327
Ag 13.38789575329241 10.07409861808033 10.538166532832633
Ag 10.143307580924267 13.636239529922507 9.688605878698667
Ag 11.82319065402717 9.595827282523844 8.198353937851984
Ag 10.927416391396461 11.417875592184123 11.18727879192123
Ag 11.897177087933722 9.219716869490686 12.748979884641335
Ag 10.10203918601159 9.021001210628958 10.231223087970177
Ag 12.318033770920454 7.4745454029733995 10.422129590215635
Ag 9.281768137665141 8.37635305138026 7.673550963110239
Ag 6.757238184364057 9.417657350179255 8.306589098117932
Ag 8.699098903059925 12.790588597640758 12.057807429883487
Ag 7.56516560747555 10.640588976629196 10.648258345470197
Ag 9.10378962173502 9.744360158981994 12.746165184770154
Ag 9.64465388630569 6.195788184289354 9.469055352720382
Ag 7.187136136904304 6.610362444172753 8.08255608555003
Ag 10.09489227772461 7.065428034002066 12.162786533344926
Ag 7.652996228891304 7.841155249363036 10.546988761239614
