33
Energy = -67.69797763 eV
Ag 10.841177741950826 14.595004974600856 14.916283864507777
Ag 15.395658940227154 9.8884886101583 10.213211174481133
Ag 13.345383577466928 15.471164921114479 15.870249181470678
Ag 12.650215439476574 12.756164798592888 16.165798108262532
Ag 15.123996134847761 13.158742645787774 14.802683972844395
Ag 15.755834123894193 12.331647345885154 19.38454890253365
Ag 9.969275677811913 12.11777649229198 15.846031654074087
Ag 12.772699050624114 10.937973673916712 9.193659897197128
Ag 13.634341583856814 13.612569737378875 8.33114172734917
Ag 13.894409371477204 10.695651309223859 14.496808882353704
Ag 11.73678952920465 15.262951200406835 12.342501757609458
Ag 15.263538239693466 8.78769500971395 12.829974485001632
Ag 12.808665444185866 11.755703174810144 6.531473851911412
Ag 11.526126327167114 12.025412480566555 13.543439023317761
Ag 15.941553795880443 11.446902896900836 12.605278452503121
Ag 15.211683953118854 11.277333128686825 7.838236032181084
Ag 8.816221593063835 11.301092609809785 13.304626610442602
Ag 15.140456509401112 14.108631815898182 17.445741435494746
Ag 8.140071883985676 13.85073635963235 14.649229999512654
Ag 13.695878730817652 13.15710596498473 12.356920844379543
Ag 9.485015284769055 13.708342226521763 12.146713186819166
Ag 13.996668454166352 15.199686787550725 10.547733795437574
Ag 16.095772968596094 15.670988813377697 15.231209565129035
Ag 11.647172546293838 13.331998054924684 10.319210798434025
Ag 14.177221451388915 16.14341363816644 13.218204949314384
Ag 16.211929310462796 14.350369987129751 12.516259981137232
Ag 15.62061856775543 12.801823198242138 10.143961930732495
Ag 6.642953286864249 12.924747872816972 12.581757326503176
Ag 13.198044018902891 10.355669367846055 11.848646683054186
Ag 8.173276940528847 11.846495492030392 10.533409978924094
Ag 14.921428948717267 11.33536164621636 17.0121337303632
Ag 10.631997297511226 10.864726548564173 11.073975082544395
Ag 11.782335996640347 17.176039937000823 14.407355854927026
