30
Energy = -92.54078723 eV
Al 11.655807736435612 12.298067215290235 6.8110993915122755
Al 12.489062805734607 9.966960524761651 8.042897248053425
Al 14.972153781180346 10.330304372258293 8.991530960880823
Al 13.771443966307483 12.720340508742025 8.47918047865237
Al 9.162113715805571 13.246114348891563 7.639100723327723
Al 13.336220882881094 8.340014600443808 10.011113785113722
Al 9.858347875525727 10.769203037806555 8.331874490615597
Al 10.760949253949757 8.97119212876332 10.059611924546164
Al 11.22561993260267 13.166095004927849 9.404064956055043
Al 12.649178919442095 11.144248016019098 10.522844883316006
Al 15.304003317420943 12.21780785490572 10.985273579014725
Al 13.379157227143446 13.998393182294839 10.9638002723779
Al 7.507610768415949 11.697908226166444 9.194348092463814
Al 14.020091655880872 7.323697874181053 12.56198432071356
Al 8.076512049093065 9.23583049994401 10.016352272736784
Al 14.753877072747043 9.804419919362848 11.914326650374313
Al 8.874094958111694 7.003193203015673 11.307510604544067
Al 13.260759806084364 11.981000183920928 13.028853392630372
Al 11.534548352058438 7.047537952018577 11.741207244062382
Al 9.783946645110259 11.382607541974805 11.064291673543128
Al 6.536006582891291 13.359733584923484 11.076511730161883
Al 8.998766619046517 14.0219354392277 10.448362489010963
Al 12.258270182842589 9.475853835504681 12.731589172437292
Al 7.069679855389598 10.901744964049412 11.87721494422226
Al 11.037952311726109 13.602776504502929 12.193112260370373
Al 9.706730859223798 9.195521528911302 12.757643870872526
Al 7.173197408060838 8.443470144799344 12.862969910781224
Al 10.740959223255324 11.382328435832683 13.953567064912825
Al 8.509763255614844 12.90803722399574 13.05351079223967
Al 8.128758533970604 10.599247696515686 14.509836374409344
