30
Energy = -93.04989539 eV
Al 10.913725696161464 14.668444174731958 13.223166203194825
Al 10.89348904854253 14.910240774554861 9.127049694167132
Al 9.432189194117994 8.082757972524927 14.24909616449702
Al 8.705632172420447 8.262299819213865 11.629803212982202
Al 13.202187325660216 8.632642020779926 8.945642517527656
Al 10.910284026033223 10.46674525154784 6.445797556469329
Al 10.95567754211565 10.016810496197875 15.27019767077033
Al 12.501291205454654 8.113798968198056 14.226873523312788
Al 10.927491755025901 7.9878644030748 7.4358230810454975
Al 8.666696599504496 13.25818120345969 9.545826048943777
Al 13.224614938349916 13.017713205783231 12.333099672823412
Al 8.617092146876514 12.979883809461569 12.356056091529776
Al 13.146625123130178 13.293640744483566 9.52385800343997
Al 10.969035978131336 6.803991678233346 12.477746562479444
Al 10.95027861202762 7.348157690725592 9.977659177664835
Al 13.1495523579654 11.110139741207604 7.938071854702928
Al 8.63224425182444 10.510346896115804 13.401500875140359
Al 13.254253824298315 10.549904872700777 13.375677839108741
Al 8.67662669791652 11.07437455713873 7.960860288068747
Al 10.932411132758535 12.163313644854087 13.8277815854742
Al 10.900585525540064 12.722791076090298 7.809101351947269
Al 13.196630890579888 8.29848637289378 11.60240172452912
Al 8.665964556250273 8.597527400961264 8.973664576176432
Al 8.750380133334694 10.799424971160137 10.69423635268062
Al 13.106521108233158 10.83378273713613 10.670417840693672
Al 10.925720344020114 10.161270063446132 9.2782156707591
Al 10.94278380496224 9.769869976682434 12.16181688017508
Al 10.91738465333359 12.649747731362064 10.956929483736934
Al 12.529637361262118 15.406440943594566 11.217095897060354
Al 9.270186994168514 15.376601801684936 11.23172759889845
