30
Energy = -91.89187798 eV
Al 9.823426038454466 9.901159840336959 6.282583697511912
Al 11.460504069929469 7.907884031178578 5.912813405757476
Al 10.407212582011576 5.755981719223107 6.809199906434848
Al 11.481616567478333 12.1987294521102 6.9311498089716155
Al 8.199666604851142 7.213819205650525 7.090717757273715
Al 8.436260574297666 12.081650885291985 7.552385967722201
Al 8.097878716115478 9.523069143736075 8.339260879301609
Al 10.328110219202026 13.255884508271702 9.342219080564702
Al 10.468265937626963 10.533787908863621 8.769558023159082
Al 12.680791407957287 9.533858614471145 7.619106995025179
Al 9.699569013160442 5.307964300145092 9.233745781568393
Al 5.839424521513538 8.20514155279642 8.2841664848838
Al 12.857673980601751 11.695777217969447 9.507082508494811
Al 10.670790282521713 7.810873344035617 8.579500016113665
Al 5.90091217848255 10.99267226302609 8.814705023361396
Al 7.847745253016755 7.07464107950146 9.868715446221033
Al 12.356717168798822 9.003911730505813 10.374644410121094
Al 8.064920007108972 11.71098013130431 10.30610314864865
Al 9.496315649378804 9.078161987009425 10.700950172338136
Al 10.883807828283791 6.782507905314765 11.239700478517898
Al 10.792873902097357 11.259058844227587 11.245859271550898
Al 12.282040256165228 13.467582767146531 11.565749735993114
Al 13.390801923489017 10.860893025569407 12.239580178437784
Al 6.810827485708622 9.362303385097466 10.951114516270177
Al 9.376386972777565 13.507848154389892 11.827293647758012
Al 11.119418035746717 9.091726156695522 12.930198075728056
Al 8.481356917269089 7.5837355325673315 12.651284114167012
Al 8.658843697858424 10.571072013155938 12.853390646628197
Al 11.257704114381012 11.853003658338288 13.75902687661786
Al 8.790826328474422 12.837007876828215 14.380882179616341
