30
Energy = -91.663421 eV
Al 13.752242613803075 10.217999721300838 5.61642868838768
Al 11.25456980538485 11.434637579640722 6.007044660719704
Al 9.41197879911006 9.642003815364374 6.198204753400381
Al 13.56423477017388 12.814698440449014 6.059949597502844
Al 11.963190041917795 8.940635238519791 7.077038770312806
Al 11.696552730276577 13.33305697726806 7.909008958572805
Al 13.263502127815904 10.972018033989835 8.149067211352426
Al 7.917360517816818 9.46905865295056 8.29241406430405
Al 10.24340675358994 7.736996104315995 8.566998066337165
Al 10.297842194978681 10.994343139965107 8.542895859654836
Al 7.9991245228665875 7.061363249615673 9.809076084228533
Al 8.011498708869016 11.792218285262095 10.020543166448258
Al 10.049685774379414 13.70991307606691 9.918169223636282
Al 12.687061199287763 12.352902196315796 10.280749430014149
Al 12.126944689007368 9.399691498649023 10.154880897665196
Al 6.616231272583958 9.509943209965945 10.59408525325137
Al 9.361957936080008 9.320387449287642 10.543503165038135
Al 10.681618289789357 7.062581806812342 11.225056804865686
Al 10.394797749299386 11.453026576364474 11.349835374237106
Al 5.769555971896618 6.992789711546906 11.429120502310257
Al 8.674282539841409 13.378858594026806 12.306956078330806
Al 8.212726504127065 7.782584786681692 12.452909427936616
Al 12.715755852162754 10.823074829175361 12.506660446047272
Al 11.545972423484153 13.639138834156139 12.335682389271483
Al 8.084975984288903 10.6844020014927 12.761125302248296
Al 12.858008616626352 8.079684990686061 12.645992246302244
Al 10.325567171584806 9.112363323687607 13.127477178437825
Al 5.881471281344948 9.082347672598686 13.15779531716603
Al 10.476651281749835 11.653805544176798 14.077903471560015
Al 12.20068139572331 9.592924179527634 14.92287713032
