30
Energy = -92.00155951 eV
Al 10.8089636023148 9.98962197452998 7.180239941628533
Al 8.315159283173921 9.852390456090042 6.260241328035039
Al 8.648987650633172 12.419280528991541 7.002212094738403
Al 10.891863102365189 12.369846461084547 8.569611941638314
Al 13.179678990725629 10.578364977522138 8.006412019279463
Al 12.138296650543587 7.744719080773008 8.4914157262021
Al 9.355441794907158 7.984252006381181 8.514099047294108
Al 6.65681297215501 9.017972199672158 8.093551885040009
Al 11.205930232283055 9.856501723163069 9.875561465020047
Al 8.508618009454986 13.284958509562586 9.728914144556699
Al 10.866246241108664 14.268914082983622 10.668544001858399
Al 5.004987137995751 9.97706969419891 9.987120594832204
Al 6.446888895137002 11.864978486797433 8.43309893956065
Al 8.781308908684812 10.57044164369896 9.063348286200208
Al 12.648485770303518 12.175810966464011 10.431385394856852
Al 13.904761585037388 9.751009743242339 10.363829385604047
Al 7.493091317067404 8.633577071779982 10.57975548428333
Al 7.15748112386966 11.366757346214014 11.163565872793715
Al 12.556021423738953 7.5226075456149735 11.23307298255317
Al 10.01031680534079 7.7331546341066355 11.180354309925647
Al 14.311686362611507 11.524045052938197 12.312804458232677
Al 9.949148941888666 11.826638181654562 11.46421337743988
Al 11.533789487344698 9.77628249910517 12.468337865110591
Al 8.766578719178892 9.757435831391527 12.718912293438498
Al 14.065089825012894 8.865480793393578 12.98524046202094
Al 11.881540317767396 13.007786605848175 12.953771890217377
Al 15.42194722718878 10.65631555108543 14.669019446523592
Al 14.27609755833075 13.122249091847674 14.406424186587598
Al 10.132606128818706 11.300598441641428 14.229150294975039
Al 12.705470416688282 10.824235299894317 14.589087361223363
