30
Energy = -92.53477578 eV
Al 14.58773159944336 8.721656328430932 11.484227395959442
Al 12.138622604096167 9.343737297979535 12.633065097026156
Al 10.975620932216259 9.38834676866328 14.988396323318664
Al 12.402706387592493 7.60562219906307 10.429591561127369
Al 9.305110433073306 9.180641178691591 12.653101313036176
Al 14.284438305736638 11.388381939442054 11.937878655852279
Al 12.86205305484794 11.949755392796176 14.044080109379287
Al 8.531172945239227 10.529298077226231 14.999472317282756
Al 10.797091160903868 12.19299114749561 15.767128773188292
Al 14.336774908897942 8.581279404390463 8.833954782727135
Al 12.44381239278768 10.3475470688001 10.066127823963798
Al 11.87508878471459 8.607243605526918 7.902095871086835
Al 10.40865749949178 11.559580120646846 13.208100276872102
Al 10.035153151713684 8.617756619031733 10.003088137781912
Al 13.919811457213209 12.749673612800532 9.623073298592002
Al 8.772447265019474 13.387851012139164 14.405418248729559
Al 15.77640175121203 10.694862310523341 9.739816859664932
Al 9.767105375015767 11.262179384403145 10.744922685974412
Al 7.683138507115967 11.523736780197673 12.642794772941388
Al 11.35820263901349 12.569307049591183 8.774912127782935
Al 7.5786431289910565 9.357326961543103 10.459862355630408
Al 11.276628234331241 14.212103324317233 13.711003664291722
Al 11.154008945779761 10.81579446963367 6.689852140384815
Al 11.963163361650649 13.019473856991375 11.427277469614392
Al 13.644216048430224 10.95639349464924 7.700553836962188
Al 9.250675943383762 13.815778918471668 11.780346851355144
Al 8.758052960635347 13.499824863906529 9.223816316784518
Al 6.882644316266471 11.943150462392222 10.196195437969296
Al 9.483411312731379 12.759235046307776 6.7583337058384
Al 8.916914115294654 10.588970826787502 8.341011311721106
