38
Energy = -81.31341624 eV
Ag 15.414437469745943 15.112527807324376 13.120310885059677
Ag 12.75316854220783 15.898628583489158 13.684369351665026
Ag 10.125117613407266 16.542076025158288 14.41416657542793
Ag 16.664940685728794 13.236627941633692 14.901590917843087
Ag 10.739058987407748 16.358899004480286 11.66522216736319
Ag 13.44447444004603 15.85684688579785 10.961822718177734
Ag 13.893878906762785 13.558375770172876 14.84958894717386
Ag 15.974470951515617 14.635258227943654 10.438030357004465
Ag 8.05935023730634 16.557154638399624 12.557157745250349
Ag 15.14496553355402 11.902672309138175 16.85449806582717
Ag 11.213189195824954 14.242052010130863 15.486609880001067
Ag 16.478051617841974 12.43872852335049 12.221709355067063
Ag 13.783937896494406 13.137345639452263 11.707034053463703
Ag 13.904112388052047 14.13627176918421 8.692806015902315
Ag 11.349031253460273 14.271973687556123 9.852171595603512
Ag 11.196153120258959 13.663389509064217 12.67410243158565
Ag 8.704225157214575 14.158039652008565 13.89687157283221
Ag 15.327920675436296 10.859155062395985 14.200840425534995
Ag 8.770982576880536 14.384501226824597 10.98240012741977
Ag 12.338253664601309 11.926124229131291 16.556769172526533
Ag 12.53608322519042 11.370441903863302 13.67379869550118
Ag 14.048004323529078 9.412395605244793 16.148072557555427
Ag 11.982818615945597 12.21437217898569 8.081210353804892
Ag 9.950924352474503 11.801106185743688 14.862419557727288
Ag 15.6147016872429 11.96353990360372 9.605459732624443
Ag 13.415795202401146 10.406049170917905 18.589992592548384
Ag 11.690785193065297 11.372188377230584 10.878663686484629
Ag 14.478182169100684 10.29603962057159 11.612342046695918
Ag 8.967312712392127 11.845581726755158 12.22100738650778
Ag 14.536953364163061 11.93331690890197 7.057232210470727
Ag 9.454574397982617 12.152851444050354 9.386524931049548
Ag 11.33840415723084 9.483975822665565 15.701315122564687
Ag 13.262699415896392 8.66889620454745 13.57679050268587
Ag 13.677027750270726 10.050771669939333 8.949319510736192
Ag 12.182902867840255 8.615993865172891 10.93918692047913
Ag 10.486502374613561 9.502456135304865 13.087509060061654
Ag 10.975951093563937 9.658364275315728 8.505788409251096
Ag 9.295138663631068 9.565750556578768 10.634194807456394
