43
Energy = -92.40359219 eV
Ag 13.62376091869713 8.95616510908756 15.484647117671182
Ag 14.07183620291178 6.588490115740963 14.283118216297618
Ag 15.723376439475047 10.594878113882 14.694907601012636
Ag 13.417327326710643 11.699578912507588 15.80956475758011
Ag 15.282946039194695 13.329246560782446 14.22799829894773
Ag 11.152588001589377 9.80312427473243 16.592248490586442
Ag 14.824912179560242 8.85626127465865 12.657764435671119
Ag 12.831828433038458 14.384554847896485 15.059878898158713
Ag 14.649364026682854 15.971627872323422 13.374232875564179
Ag 11.445741156051172 10.175917705780575 13.96255333332241
Ag 10.965671225079658 12.729874193559997 16.443752226428867
Ag 12.51841640175597 7.303463147295103 12.132452476543131
Ag 15.735932970696332 11.54790531920745 12.118488271106143
Ag 8.966394664644207 8.865838412270039 14.8106252486722
Ag 13.886280270877755 8.47103038899518 9.890862345851613
Ag 16.275940601318485 9.695226976688286 10.24250955951632
Ag 14.699007895284854 14.020473872585567 11.378471914334195
Ag 12.997842226171377 12.28809675103842 12.938467018074746
Ag 8.946239205062158 11.606859461165659 14.908561807692628
Ag 12.201538196713571 15.150947834303247 12.39414497800082
Ag 11.380231902622961 7.443708150680743 14.72658565307818
Ag 9.925079436788065 8.392034102330596 12.23753323750787
Ag 11.139959941967694 7.8860414204938705 9.760320042612607
Ag 13.962970524379385 16.768143537593012 10.748646592769457
Ag 12.206643540563357 10.11342307638508 11.32336707254678
Ag 14.308485977467463 11.653682714775483 9.669358825950685
Ag 13.822111099067795 14.756538977129416 8.804761749446964
Ag 10.21850479547362 14.036687209117687 14.122295322783765
Ag 12.016969245189749 13.113145919594974 10.3028414527424
Ag 11.988434012208232 10.276811114345245 8.539878242755172
Ag 9.627828995983839 14.682398181282144 11.413449392246054
Ag 7.956025760090653 10.367025710005985 12.49770139262408
Ag 10.208673086423504 11.968453381122442 12.152578424906421
Ag 9.514668039487235 10.166433712001965 9.987050132625917
Ag 11.385297656994231 16.05873759105465 9.803053182214512
Ag 13.041591992156011 17.311355712381836 8.05886715909444
Ag 12.793546541829212 12.639694794157537 7.409965616139753
Ag 10.153029986685933 12.484052418404003 8.296124571145729
Ag 7.745858160165419 13.246577112931815 12.918925179165528
Ag 6.957682133977915 15.012767513697387 10.677524713867891
Ag 8.103688415982674 12.529792571393429 10.218175986721159
Ag 11.379809323623936 15.038352102987213 7.231514990211822
Ag 8.977186502410525 15.045803284688137 8.7254526488647
