19
Energy = -37.52401134 eV
Ag 11.077970944701358 8.527017754114848 13.627689635835518
Ag 8.639860628786609 8.433550926510655 12.179165162725106
Ag 12.850349896743563 10.650362374175414 13.035319778469066
Ag 10.783113610728787 6.966263302317961 11.122984668475533
Ag 10.943892118716104 9.718194941517542 10.975380598623213
Ag 9.810305655917285 11.016712350385452 13.168881326936825
Ag 13.217861259686824 8.258007838805245 11.66481025681864
Ag 12.325506611983565 8.151295805056662 8.9693381927131
Ag 9.32818943049971 8.37921539820538 9.112482020891365
Ag 13.44585400726954 10.6288984545636 10.074927568915854
Ag 8.296677099462025 10.630034467952852 10.630483903259154
Ag 11.607385426172499 12.427069131833571 11.391000044490895
Ag 11.168663272241895 10.453071986575708 8.065298658291534
Ag 8.343831893930876 10.611157745025169 7.822022171989544
Ag 12.507586167267824 12.866594710475878 8.762821728768895
Ag 8.896469269355139 13.204538000347208 11.621038577178068
Ag 7.004251856929786 12.65571210027295 9.409443995862869
Ag 9.776772292408095 12.654513762511204 9.041394104859585
Ag 11.046775205619172 14.815334605160327 10.329030225335364
