49
Energy = -107.09854583 eV
Ag 6.142742400210972 9.671003376747413 11.147866481823328
Ag 8.704741499347367 8.588765810734246 10.241213446473761
Ag 7.045986222224288 10.501762482551454 8.657608739261585
Ag 8.188560353978463 9.217630833526114 12.99926777270707
Ag 10.300989671829269 9.084769281775708 14.83892471121025
Ag 6.091907471163474 12.615254185965556 10.522228836073463
Ag 6.491669168082997 11.528481782214463 13.188658191893763
Ag 10.868471702412597 8.723934042450633 12.116801211012875
Ag 8.14109996078637 10.83534482513881 15.27998249566414
Ag 12.944350151528472 8.207560526036946 13.94729044208835
Ag 11.553427129593949 8.425127365819078 9.449047298221021
Ag 8.47737725635094 11.270691698780693 10.988620323872011
Ag 13.270927651512155 7.22197018322925 11.335455489348343
Ag 9.879990609621872 10.520378639758711 8.495851616716935
Ag 10.610999303735431 11.704742118233451 16.182625281236458
Ag 8.323957495403427 12.962006960776744 8.563866216840642
Ag 12.571738274859891 9.67739562807011 16.339304486541405
Ag 12.208468777628045 10.997631660311127 13.75792796531524
Ag 9.733948409512335 12.256483232620663 13.286703679297013
Ag 15.583596028289312 8.242137689947237 12.813070738169413
Ag 7.4631131420826575 14.020060514272853 12.607116380728272
Ag 8.534248391332397 13.648822296607806 15.30777581036592
Ag 12.725321460420261 10.628111030753573 8.296252650680735
Ag 9.865992888193137 13.87498590292362 10.819637373012567
Ag 11.524416096272397 14.048357899738605 15.090662477159935
Ag 11.276157027109363 11.365131683515983 10.944962481164904
Ag 9.789480719441409 15.461225019686497 8.509380737919958
Ag 13.469765912280662 12.30007880118013 16.008161904471653
Ag 11.18978404180393 12.988695598440573 8.38656126310596
Ag 14.446565694796657 8.604576150636543 9.174564136872112
Ag 12.235135398389202 13.780256830723124 12.416672475373412
Ag 14.931017816480672 10.041170939859322 14.841224126462409
Ag 13.727507161973563 9.976371511198627 11.541146072654106
Ag 7.452106894551315 15.148347026788601 10.067918386948463
Ag 9.869436832977673 15.237257177234229 13.251115577998574
Ag 14.657954829283273 12.239103775555241 12.98868025364277
Ag 12.481769034424177 15.05087404178761 9.83997129338807
Ag 14.270974506716396 14.572164975037767 14.457249401486871
Ag 13.719636186906337 12.552484213147029 10.233877382565831
Ag 16.531920883462487 9.73706715516658 10.703809122092096
Ag 16.182527947511 12.483942378934865 15.44086172787539
Ag 12.175244564409041 15.32437786170411 7.079656412099132
Ag 13.756233685865391 13.068411745985719 7.338261828604146
Ag 14.783738113193964 14.82607219750213 11.630591935514936
Ag 17.098432034458305 10.86838277116831 13.214861372397149
Ag 15.549022646164104 11.235360950365015 8.594948988053694
Ag 16.885587892907573 13.999518883270767 13.250221019022456
Ag 15.62965595524419 14.22630169185342 8.997184587989432
Ag 16.719020255692488 12.516134202689683 10.89107494899797
