12
Energy = -53.96841103 eV
As 10.458470151000103 7.676649784900635 14.029242116145582
As 12.361079719083284 9.290388975572885 11.690447905671036
As 11.982350076708894 9.656788272331829 14.14347419685877
As 9.518514743677123 9.940487042429837 13.890973077603084
As 9.9315292140442 8.666167696809744 11.787341945633676
As 12.550649613415972 11.627804147548332 10.831724039657603
As 12.451093309343273 10.903951707736926 8.496453180423401
As 10.373394815851576 12.680073462807231 11.202809517466124
As 10.106972908734592 10.65902176689204 7.809281641359217
As 8.751315242192614 11.855876675721099 9.571452342585062
As 11.374380804217068 12.769065818591505 7.348338099482343
As 10.026544132881783 13.974506076021049 9.15590240288775
