11
Energy = -48.70328217 eV
As 7.310861362755733 4.482155625097804 5.612021621898852
As 3.50819907500892 5.325681141840081 5.409354280930612
As 9.101774431323673 4.812516095184896 7.348427562975202
As 7.982833911690126 6.755876914270242 4.872164371185433
As 6.6596765734078245 4.706221951094909 7.9777679156705315
As 3.750892649844638 6.383882939457072 7.483483410125394
As 4.6909464856589995 6.4384526860121465 3.739861181523481
As 8.960061547028102 7.340119594105604 7.072814303566701
As 6.934795760757498 7.13619996131427 8.479004009354378
As 5.958347327685734 8.221196164091943 4.7988041952215115
As 5.166934664238093 8.328836212382017 7.154514762855281
