12
Energy = -54.32826252 eV
As 9.861829957033938 12.341323417332312 9.08469504960085
As 11.625628130814164 7.344308489718844 8.920755671567141
As 7.766098358865689 10.424583868064206 12.00350491796247
As 7.681131904355315 12.206699600010047 10.285219066199234
As 9.286761437776374 8.23836083402774 9.102235426114104
As 11.488093396684715 9.93970174033418 11.97287442091933
As 8.978604015456321 12.533482165482491 12.441129205272036
As 11.14311083190369 12.26239277994983 11.20127642332331
As 12.419958151050782 9.556438502625623 7.963083462406641
As 12.974810592932682 8.90044176889853 10.286066083934621
As 9.438958181109179 8.659239034704186 11.531879675378034
As 10.019795432835462 10.211866733367778 7.799472906663778
