15
Energy = -67.84406983 eV
As 10.40520506817893 12.27291118720025 7.437085495099151
As 12.773840527224857 12.892070055713136 7.346680994307606
As 11.050591892263778 14.474183460012759 8.283376324069192
As 10.152711877915177 10.743874044976067 9.713273158215449
As 12.554065932283672 10.154476978068725 9.825938080669047
As 13.562654639675873 12.376921602459758 9.697157795565417
As 11.8479623425969 13.955620682338111 10.623961648506233
As 9.29312314531023 8.60563914137249 11.02498277257881
As 11.328889203116695 7.837360225312468 12.210154005419435
As 10.002083532487468 12.534512407162133 11.39036415745343
As 12.781455332366248 9.832652168286263 12.269700121456363
As 11.431334196134374 11.69533753232016 13.235439888850177
As 8.17953670273385 9.251748098726935 13.16722184874707
As 10.082787407275665 8.081507692493739 14.373451225505438
As 9.75993370247789 10.49736022559847 14.607387985598782
