15
Energy = -67.03953468 eV
As 7.120331968602478 6.47583017468065 4.859118652799258
As 7.78650513337132 8.795470658858312 5.510339963438339
As 4.401232183319288 8.683711334934095 6.560630196311111
As 9.808043406195306 7.404139367288883 6.018285091684357
As 8.306113483823513 5.589228178887412 6.872668914383714
As 4.714873451249495 6.402459680195269 5.618320935784569
As 6.602294773913028 8.96166115304881 7.684679592491218
As 11.271662309913575 8.488376000306884 7.758691240773108
As 4.922223523559684 5.4777933291760625 7.920167162089506
As 6.970842656400407 6.6890923977540675 8.645128662658026
As 3.3598237490200495 7.349591265545166 8.376642156446332
As 9.979138262905318 10.288416764162358 8.924848712271842
As 10.892864725699987 7.333562554765367 9.950334317201872
As 11.200343344976044 9.58680675038295 10.996774193837549
As 8.924290729206733 8.73444409216994 10.563953909984987
