11
Energy = -48.69334066 eV
As 11.914088433738161 13.37519206161039 9.757792412350879
As 11.03304897261337 11.45068613599655 8.413622528842161
As 12.68518783830294 11.77995145376941 11.606903669396539
As 12.586171005833469 10.093381725847815 9.797031346050424
As 9.546200819617425 12.59079536489721 10.015972901314749
As 9.767513898902939 9.411857637272742 12.495128386270606
As 7.6135612062341185 9.630042400837404 11.398646393280666
As 10.299451948479463 11.848391018717106 12.26385588703455
As 11.268017450807397 8.263489801931863 10.888768735128485
As 7.822000030384469 8.734773017900517 9.253244901145234
As 9.938374943545156 7.811567124263506 8.909156774516548
