16
Energy = -71.63903692 eV
As 13.604188475316104 8.308528727735323 9.53519082988042
As 14.174033670411571 8.19335904984513 11.952322730180697
As 11.247455156782626 9.151719443955063 10.139417811180722
As 11.798844048834942 9.03449485054591 12.525131130504159
As 15.111683104718486 9.979283103022127 10.540748487646209
As 11.941958606293703 11.377332886027606 9.368204794254309
As 12.819837041250405 11.189048771660843 13.117707996451179
As 13.682353240835518 12.009118874340004 10.975444438490864
As 8.762351919612597 9.74493289630054 12.070631813249824
As 10.478566789947012 15.17097902880327 9.830874770531958
As 10.900500934854184 12.761841120440232 12.939763737481947
As 7.989136261668915 11.767986149201077 11.04603960330297
As 10.317377638603864 12.864380495242536 10.527128291215686
As 10.803076043942903 16.29593309167792 11.843410420915337
As 11.433712090247862 14.999314700833555 13.672032866574629
As 8.568187524662951 11.685607304803018 13.463509944662476
