10
Energy = -45.15020761 eV
As 10.148970280521034 8.190880913879946 7.322835540828195
As 8.13054031015937 8.793176248893001 6.051392110644571
As 9.864394023976937 10.110326460105668 8.922940813831337
As 8.103289878792923 10.973367173339664 7.338075761043202
As 9.587880623750536 5.985911265238988 8.28875523342304
As 7.297394681192383 5.408007686706408 7.6133691754158095
As 7.522702562518759 10.294743965124374 9.626995588300561
As 7.8110625825353885 6.136970036491036 9.972034504251903
As 6.2352834456172035 7.649314381445389 7.1057073107095325
As 6.340995648424095 8.126453153594586 9.517209059013691
