17
Energy = -75.88254532 eV
As 8.507123830731748 6.051109195269299 9.78766516451419
As 8.802637285187185 7.424950311018467 11.844710755556626
As 7.9780092933712154 11.969675122675689 7.566851905857941
As 7.357321382255281 7.418696955034295 8.081898512074934
As 10.927169652136813 10.5113891901787 11.586629207876591
As 13.520168515456472 11.73862844660309 9.519157466195882
As 11.293829062885917 12.59071772309293 10.404419392593425
As 6.248759898342749 9.193183721096082 9.412451193921745
As 6.848592800318937 5.919439696059847 11.613454601541088
As 10.335239605922085 9.816165198582393 9.15393942795049
As 13.352635108454 9.84394003480246 11.148558353748657
As 9.168993342435217 10.345883071234697 6.088272432506667
As 9.525586879337732 8.26646180685734 7.245859291751631
As 7.972463991348009 10.888217527570495 9.759882951360341
As 12.964255990527539 9.461071106491039 8.753189606256717
As 6.508439943012435 8.370193495471355 11.727827744458109
As 10.487746627426151 11.93867850166094 7.823393692389735
