12
Energy = -53.8416378 eV
As 12.326928673441524 12.088034602936478 9.616741333313355
As 9.174613477837369 8.802458551410627 13.926804625440262
As 13.446624273399202 13.253388069663984 12.778164647327207
As 14.495200888064344 12.829615399683934 10.542120426688626
As 14.305406556309958 15.012241012461601 9.32764864175603
As 12.04926369386919 14.250957721408195 8.383065988160048
As 12.195492676111334 15.944810866623188 10.141406801183619
As 11.338051758967774 7.726216212970655 13.48310263276644
As 9.850857051539222 6.823239671551026 15.218459389013443
As 11.651928085407603 14.839752081341693 12.285506893002507
As 11.200681457434605 12.479306154227006 11.820088872963542
As 10.990783242786765 8.971904430544114 15.57148944298513
