12
Energy = -53.70539387 eV
As 9.159495578355246 11.78155889974198 10.587352273306804
As 11.254121339338168 11.424288900745012 7.248433292422988
As 9.801573365242014 12.993568135988312 8.50182276899243
As 10.883534655753017 8.508247455577864 12.09243999569364
As 11.964598853925102 9.825699655466387 9.030366344271844
As 9.719610291749287 9.491561472962902 9.941974491890571
As 9.614690120874595 7.519655333970673 13.933945289982498
As 12.951190604784221 11.718742933110697 10.353356665498728
As 12.254187090672936 13.33101664858031 8.562389851099118
As 11.316287451413817 10.552630101176943 13.480924083103783
As 8.98652143675898 9.721024584229928 13.353064184305437
As 11.175547968631204 12.441519729983122 11.863846388415134
