12
Energy = -53.76122131 eV
As 13.98652874451753 9.81941521477273 12.522496282700855
As 13.429676280118555 11.088184707559526 10.48284015945312
As 12.960986277028852 7.591044159718323 12.158802771530578
As 11.194577522343458 10.18694859195727 9.843514832209332
As 11.87781615963837 9.231486758469782 13.679348262247824
As 12.793796130326728 13.245528278777531 11.537509598314006
As 10.731189523593612 8.5222869059378 11.60304856291792
As 11.234548882283725 13.712243361819596 9.629831653929207
As 9.70192199026648 12.005025328437487 10.641931380164225
As 10.786223922903785 12.512666642047817 12.83999033285675
As 9.838027121258914 14.822392456371123 12.906642522136131
As 10.128734278753324 15.624968803726112 10.789301559252605
