12
Energy = -48.99419217 eV
As 7.759340487892806 12.852788056256331 8.572859456951896
As 14.629098810913133 10.875765635064905 13.378617924523684
As 13.668245402274547 14.804262185309396 11.890150176945259
As 12.758809583615513 13.397648649390817 10.417550138542058
As 11.64273842013032 10.060241404737365 12.308358638577573
As 8.801939462626857 10.398839950409423 10.725901025862784
As 7.850626523097487 10.476238646600903 8.454819065025266
As 13.35955234081065 8.95692706697725 13.669831782060825
As 13.571541933585548 11.120854065037665 11.181836134902913
As 10.661387205025417 8.728467883548127 10.413181701913892
As 9.427403672752346 13.184151125414036 10.159733887358353
As 8.659373847350455 8.03446468485606 11.571104485899717
