11
Energy = -48.74998793 eV
As 7.910141098320491 7.123769032646836 10.414946669949032
As 8.169300688076587 10.86694269605047 9.788270466419828
As 8.999052480797557 10.199083567633643 7.566433431993343
As 9.036646235152885 9.164579896329641 11.330612445295266
As 7.271668270388435 8.118215164227982 7.124418758447677
As 10.730906426157086 8.465589339137864 8.020785135877887
As 12.057046999880423 10.856583435736974 9.587590834769395
As 10.174167529846429 12.140344808060192 9.067577440889096
As 8.973447901839325 6.659353115393043 8.165056560617643
As 11.254413277009176 8.69788109009776 10.40676125257884
As 6.16197909253161 8.4464278145147 9.266317083503926
