14
Energy = -61.97367829 eV
As 7.327334928275536 6.378931626900619 6.081201384130413
As 9.011665089165023 9.477211095139722 6.71241452632862
As 6.911725406757986 8.524291604132777 9.886280633671156
As 4.960071898140812 9.033898018794625 7.044747777896343
As 9.043162293065697 7.3266326848185255 10.063348966171855
As 8.24123976751575 4.94760103046667 9.4018423234618
As 10.128360258158272 7.526204612126311 7.8080157757861866
As 8.078452730327747 8.248218894205813 4.762637620245505
As 5.55500001988139 8.453794173111165 4.581910176050268
As 6.950626045500648 10.159369002761844 7.986750950724225
As 5.880995371423663 4.837238858598524 9.089621779488716
As 5.978275166548784 7.046076037867144 8.144888658189426
As 5.442266486620572 6.038865306196071 4.593041851196431
As 9.266549275651322 5.266368993364262 7.066708584025564
