10
Energy = -41.94986659 eV
As 11.19723549144156 8.967445873284614 12.530050848357904
As 10.400344681318948 11.231102314891878 11.618260965262902
As 8.511720240820111 12.813684671973908 9.978500350489018
As 13.601723312881276 10.027526168443455 9.846893331651685
As 11.743122659638127 8.355991988845503 10.184656165574134
As 9.152490647270588 7.7713555334541535 12.173399934266177
As 10.069872974193876 10.092361076335465 9.415328851409965
As 12.036277602641249 11.436413536759384 8.502587126637584
As 6.4808939294074595 13.089704364265614 10.575568900389273
As 12.646826670243657 12.070082905028217 10.843007357335665
