13
Energy = -58.34316725 eV
As 10.90791909231141 12.460530963370436 10.156022507422929
As 11.95266620830509 9.751598876585538 8.183619550340266
As 9.762987571374467 10.905897635279374 8.544365013380844
As 8.833901405272334 8.737159934040866 6.443004580677841
As 12.270734389353276 10.877520713052103 11.49377866106157
As 8.956783224583777 12.902073542126855 11.599810510506229
As 10.994077054604036 7.7450140828370895 6.992218706233907
As 9.882293589101163 12.872320653216041 13.897722298685096
As 11.632546363778344 8.707782251786812 10.433010725207899
As 10.998024435639556 10.67584076854258 13.600404533429431
As 8.598458940200578 10.921922547450842 13.042701188550982
As 9.181615525211237 9.10857325349161 10.1712796176372
As 8.997093814849034 7.302866392804438 8.411163721450539
