19
Energy = -85.1239051 eV
As 13.201216250621984 13.148746581699136 8.251457786696886
As 11.87530717764042 14.75540443044445 9.562533375985096
As 15.441640183855766 15.198134916226653 10.11611053501454
As 15.239068130162075 12.819262500855656 9.631218530462116
As 12.031872092344523 10.934570980745924 8.418121684013311
As 9.688564198323025 11.648456552457464 9.00693277196904
As 14.802505578951719 13.714675105360948 11.946323800314179
As 12.386354232972351 14.255085067151752 11.99317962504926
As 12.969528138495933 10.20780038683837 10.573167273864884
As 9.620938596999919 14.05489996575267 9.166641392631936
As 10.932146246753879 8.912487539361258 11.25637590341783
As 9.577431141849686 11.040454037673737 11.43318397180955
As 11.815684205546019 11.875529027155045 12.048856326163127
As 11.9115825293367 8.5927441609658 13.543797909570024
As 12.496449803854942 10.899826551063029 14.231628311801751
As 9.784652647032074 8.191616028182263 14.724534512877367
As 8.578923307572522 10.35146851734028 14.843274313037194
As 10.55730662839963 11.636941599907308 15.576003305387312
As 9.919152032663135 9.560838869220444 16.78280522949961
