16
Energy = -72.27014305 eV
As 11.359981240197206 8.063200130475654 12.643102393291894
As 12.860311510565374 8.627162832305025 14.571066331342978
As 13.207889384711304 11.070365593824757 14.525679871746386
As 11.240645254712684 11.895373845581238 13.289108250050964
As 12.53639692749512 8.816143107412463 10.613749087586596
As 15.191053796927461 8.476034292902288 13.61271468702093
As 15.20849386534054 10.955434293966222 13.02810008635144
As 10.713754404069832 10.21745908248409 11.553168548037009
As 14.881969809253249 9.248159727720786 11.306856813604632
As 12.585630256679128 13.542810574262722 11.95652622149763
As 9.094068150391873 14.859778582882015 10.495937212375537
As 11.11737840568585 13.573991202678664 9.996864965246521
As 11.892558467655363 15.525844156137358 13.217106245833303
As 11.575613374492685 17.23045929279572 11.496485722805351
As 11.050958712555119 15.933237501132274 9.357288224059824
As 9.606436407915933 16.145373009794433 12.60753123539107
