11
Energy = -49.07665951 eV
As 9.080964215643528 11.493349170896623 11.323589400626227
As 7.551143379956077 10.364123721642192 7.877851336703698
As 10.938717825889524 8.343753019940644 12.052205610629715
As 8.653057094674002 9.084169195279387 11.432210520578973
As 8.117370082922413 8.290159066681893 9.125161133565454
As 11.721195999783918 10.157831051052984 8.532740315974987
As 12.512798064584679 8.445859328257088 10.16922213786978
As 12.467315473559834 10.285594425662907 11.91262818914559
As 9.708117564792055 9.16700239532198 7.462912501744954
As 11.310400592446916 11.82406494672897 10.314450866373706
As 7.7496205595080045 12.234015825825237 9.422586215834874
