15
Energy = -67.60727617 eV
As 13.455687503895739 8.375523388401179 6.976818035945911
As 11.476989786689414 8.80681528014033 8.36819068732069
As 12.03446531345499 13.37403601256811 10.237913994797385
As 13.155161526356185 7.166659063809378 9.095417109424652
As 13.69061108681175 9.564823271700872 9.115514723436766
As 10.873795465990273 15.431289996067585 11.038474660948436
As 9.655901526653105 13.265166223896486 10.874396549976202
As 12.068262395578728 15.176078411238171 13.217863731879412
As 9.665232101322534 12.223484570884153 13.141146716954298
As 13.316912689711696 13.13554680291588 12.5847241682162
As 11.854980527901377 11.175430555860137 12.941646103834442
As 10.180630529922915 14.251821263413555 14.446177288576813
As 11.512945825702646 13.159315736200623 16.25377695391696
As 13.76144744367475 12.921188573454712 15.281679248624462
As 12.267095149247009 10.942939722361626 15.396378899059874
