15
Energy = -66.79547685 eV
As 10.467004529828461 9.647681035795449 6.892520186781418
As 8.02373785520382 9.556675790042856 6.704272361828129
As 9.212511708926874 7.91481659762776 8.060980815199304
As 10.948146779035516 11.267094259011385 8.771657261624044
As 10.135022295483433 13.222539681043347 7.505052428832893
As 7.848330521302492 13.08105836647486 7.388668717132473
As 7.167701864953094 11.027732035003975 8.56121974540958
As 11.199811653141925 8.010907489120429 10.728869507663646
As 8.974964801829588 11.228310809270317 10.213917811250903
As 9.04418526056519 9.006098193101053 11.379822248540277
As 12.40710286251178 7.529005011950309 12.815328284966386
As 13.005151532354258 9.513449771343286 11.409388825430065
As 9.662898044149967 10.300668319213324 13.395013669986836
As 11.963072122779808 11.084893018923333 13.105968944289861
As 11.434410411318835 9.103121865463205 14.561371434449061
