19
Energy = -85.20546825 eV
As 10.784115811006114 15.283640791947068 9.110207609255477
As 9.54442826915632 13.694435782054663 10.574204080712477
As 11.44321901920739 12.93808581232777 9.242671135376442
As 12.455604164363864 16.35267003873286 10.658150504681075
As 10.67748928328779 13.76369750141984 12.83434088282105
As 11.04000560331747 16.19867795099069 12.662485256721087
As 12.73802451664149 12.673662306396148 12.001159921319111
As 14.034753693362893 14.479973001694889 10.931021563750619
As 14.7428788455468 7.8254927128798 12.966067266708455
As 15.043490845019347 15.729023112551607 12.820093259391552
As 14.021382334768512 5.751831883931509 14.07224366136945
As 12.99721351430729 15.98793500727113 14.254013044073384
As 13.907286517242852 17.081034967494045 16.24373558838113
As 12.751385724988912 7.830600692558088 14.404768683317855
As 14.984025156780747 7.584439735005127 15.398853347382513
As 15.88462841591362 13.950781644095327 14.249945351586856
As 12.679494123645396 13.946283074519627 15.60042559749127
As 14.840580744198544 14.880047415426384 16.515584047342443
As 13.965780584573015 12.338631264779988 14.22846988844084
