10
Energy = -43.55700825 eV
As 12.921538645220512 10.20100773554761 11.484500979003304
As 9.09174615635965 10.503701038071906 11.440535972310034
As 9.393342532516353 11.953137491657753 9.448148728356438
As 9.927007120849199 8.323165004656193 10.683853520180199
As 8.439162219387658 8.165724982090689 8.731701521674447
As 8.86533426998142 10.381888898076285 7.605873363079856
As 11.219866787869016 11.220317594004893 12.594431864434432
As 11.990824736703601 8.96692441205101 9.535760658168876
As 11.219061690553302 10.908277034914308 8.180962398667162
As 6.720714993494455 9.058719071973274 10.183916395199606
