13
Energy = -58.16742725 eV
As 12.156051049362489 8.645659842108273 11.518273943774618
As 10.834196772856044 8.296189656649453 9.454998282253538
As 11.326831316612477 10.360436702425167 8.144215494802397
As 11.95732267983946 11.054229083343849 11.874474827771483
As 12.967480696622058 11.40589184973657 9.674140002184812
As 10.376177954342051 7.874087463575335 13.13167645672095
As 9.175690980426008 10.113193128009712 9.370579955276943
As 12.324767583082746 13.827584598225789 9.29427588683502
As 9.553920773905356 11.428643954485421 11.406591522216896
As 10.499616656731908 9.754782731718514 14.676967763377313
As 8.678157657796767 9.669561896000591 13.108413088365522
As 10.212261284158851 13.466978804297801 8.09854158214039
As 10.096901079757123 14.01364300974988 10.352489632538457
