10
Energy = -44.1922549 eV
As 13.049850978681432 12.161413362856688 12.55997496944353
As 11.169192102725797 13.676327478777553 13.01646200264763
As 11.118727122912548 10.938399425727773 7.494377602793734
As 10.02090556437499 11.946213954493624 9.17892210182403
As 13.099881305389811 13.61897534979766 14.537604586498388
As 8.649322792525087 8.244110461001082 8.995231387060773
As 10.851911705468163 8.49878473147241 7.881461466424366
As 11.545211459195823 11.71795522326831 14.452041644324638
As 9.097733969647969 10.107782918521341 10.573290438985719
As 10.70488200497168 8.231851379547683 10.344328834869646
