18
Energy = -80.9050908 eV
As 16.12152230900002 10.211547117114335 12.907163157424469
As 14.639424231264664 8.68237934050282 14.214218060795499
As 14.686762126745004 11.308990466866533 11.146426496386745
As 12.915793462024103 9.581393899324414 11.340535462259481
As 15.415603792130302 10.832973389154242 15.231172379878718
As 12.365558204479152 9.59162097394993 13.700121859365634
As 10.674708628727567 10.23438859933908 10.4027971652251
As 14.333559933098927 13.165940256620514 12.740693532767091
As 13.277556453803536 11.88509490977413 14.44811603609315
As 10.943910067680202 11.777362240531353 8.544770792102954
As 12.18234592126559 13.90108090640732 15.214829368017806
As 12.31673518549728 14.688832771041053 12.897968509645937
As 8.483703617306334 11.50394166275264 8.228083339401339
As 9.53382547627553 11.610341994837832 12.088900842235658
As 10.581578074321076 14.114801602566681 9.416781568765314
As 10.190256710212072 13.962830269960532 11.81450073792107
As 7.60867880464754 11.890682999805497 10.53416520289327
As 8.125362492770451 13.84742737915798 9.085545589786594
