17
Energy = -76.70627112 eV
As 14.661899954172814 7.361267864943628 13.795726609404081
As 15.94432384635603 6.397796563008712 11.93378323251379
As 13.848174570352988 7.602279885797636 11.488726076295935
As 15.84062716515335 8.836574771419885 12.224021213317306
As 9.76574096673047 14.19026055248464 14.095617913519764
As 11.869917475258546 11.288439781684822 14.365365991443865
As 9.53837245425416 11.768286660770134 13.53904685892863
As 11.877732203357688 13.632774006689548 15.328048198403204
As 13.449272547826839 13.00538739833505 13.559244413938734
As 12.653666137460863 13.886944529421248 11.385256829985595
As 9.411813339338902 11.730803280395799 11.030702342065611
As 11.781713812473026 11.78333517926774 10.426431642396441
As 9.197153780096178 12.238627526454254 7.705201775437385
As 8.801722213090425 14.117533153423574 10.807973994290768
As 10.652679970007371 15.199004359696255 12.0414496574215
As 11.500897550207766 12.882371586110919 8.202328561850088
As 9.638437419051243 14.504699362303755 8.498743328634058
