15
Energy = -67.81950046 eV
As 11.175261735153999 10.747150220404917 7.932035840336816
As 13.647881201768872 10.885117678726683 8.058534739831716
As 12.46558744396798 9.144639686210551 9.280549716921167
As 14.115222687333043 12.703233964840434 9.723588239705238
As 11.957650412918701 13.925400668988743 9.739080751582248
As 10.376985511441449 12.051119230108409 9.94602454184043
As 11.554213509788358 10.586895969213032 11.548455104347429
As 13.661068706089916 11.796895971435173 12.004665832805077
As 12.71816480552859 14.111815953577707 12.131457263233786
As 10.08485817076771 11.51839639890338 13.446979293336753
As 10.63091439785738 13.912697301644997 13.45265370687636
As 11.498227549565945 10.601277384339149 15.235891648693473
As 11.986755361144121 14.183716880980406 15.496791870599958
As 13.403337653433994 12.14090402579629 15.628562888733418
As 11.357863132531024 12.324730944121653 17.008720840447957
