10
Energy = -41.58896091 eV
As 10.95997795765471 6.941023960218856 11.163799005784298
As 9.339705931193475 7.482279568451223 12.585866534091144
As 10.58748565238834 8.781900801591256 9.46185316952632
As 12.490157323090546 8.626089424021364 7.940574374042178
As 12.715895040138324 10.930420613233055 8.090034656528411
As 11.686617951078945 10.858761828146932 10.305827491182972
As 8.194937234466387 11.242709626585755 8.795628843977934
As 6.662000551914308 11.769562621381775 10.521566156178286
As 9.858020027513072 12.536055731410743 10.05917237177404
As 8.485798767877455 11.961287851804649 12.019888964241096
