14
Energy = -63.29507932 eV
As 8.959889003117766 8.241744635459114 11.837748754433411
As 12.389439747244314 10.063443808159851 11.616985521888228
As 9.344010842200886 7.487158959997927 9.497731622346896
As 12.440532999915554 8.933249966291472 9.404747027819713
As 10.057957714476998 10.39067629515554 12.407760959501415
As 6.84496114368313 7.536669269540155 9.324818204734955
As 6.726228805148035 9.159286403428869 11.31592488575436
As 8.263368196039725 9.168176720060906 8.059170231060362
As 9.07396439172987 12.089599024745448 10.860125784936733
As 13.758889834403181 10.936989141797284 8.682547262763084
As 12.802594521143066 12.302509877114943 10.641248161426322
As 7.309667643568208 10.86072545772176 9.60914453221918
As 11.441486347153452 10.53592729621467 7.8229727515149765
As 10.832318677964187 12.539153012100568 9.164384167389303
