18
Energy = -81.21311505 eV
As 12.222416672776271 6.335219884899423 12.451121473838247
As 14.377189749464208 7.029883123076939 12.233809049425105
As 11.001343996910443 9.749372519238925 12.39664187825338
As 10.843386502990562 7.731006458417087 10.967981825713625
As 13.395383532815602 10.539364587620508 12.161129261527694
As 14.409363649782522 8.868465249793113 10.603757774603487
As 12.437525257932412 8.379245797281397 9.191850187795932
As 10.130290960314726 14.272872393044114 15.13527266618523
As 9.816090008876174 10.825969670191743 10.516050529247773
As 11.650201310609484 10.7624148323529 8.810391193268813
As 11.747949900104976 13.326832411743025 13.762364742927563
As 13.50099186525774 11.863070518430536 10.056591997412069
As 12.668914600629082 15.159776664896002 12.322726622736635
As 9.07957378366507 15.933475737498163 13.712637430176034
As 12.188324713297746 13.97665324671521 10.153834004675367
As 10.415496777340465 13.0429838995541 11.539333290093975
As 10.648465105452665 16.600831863888956 11.9319743077845
As 8.830902141085867 14.966371670664698 11.41634229364107
