16
Energy = -71.9663473 eV
As 8.902671003157318 14.368562176917148 10.307087106893192
As 11.017498483886767 14.355168803815554 8.993405040774164
As 11.062362927728298 14.88603684955783 11.412897986269199
As 8.327466340782461 11.97983515067026 10.76766192885024
As 9.733697039970883 11.06239836327077 8.97405590331054
As 9.586382271826736 8.551237477184166 9.230504097607037
As 11.925317751156697 12.033293922404132 9.462972511900064
As 8.972953130411625 7.941938453402096 11.550728067094617
As 9.586372373945908 11.907169397183232 12.863956287257569
As 11.25973122786085 7.458688949988644 10.669673552795077
As 11.844210598572065 12.468900356178883 11.877657450998695
As 9.991455056049775 9.498749223392107 13.279576829025535
As 14.560394493428179 11.829083720697577 12.63265483503366
As 11.997917994554191 9.600965456760482 11.795178212654031
As 15.103165809684969 10.326206178075406 10.958618441732987
As 14.154426847113573 9.401482925426725 13.026372466445544
