18
Energy = -80.92631442 eV
As 16.205537166803033 11.109706092360748 9.98845138486099
As 16.032023378377126 10.848515649503936 12.41010500967107
As 14.253164036733141 9.814142920099238 10.934339009579645
As 15.367992263500726 12.995389127930128 11.371052575844482
As 8.339771101080514 7.717586473550753 8.82732030906451
As 9.399011400358324 7.301020881078898 10.975054313910546
As 7.107215891417136 8.263387620036875 10.9157902491792
As 13.034003852432727 11.968175953464941 11.100831722967905
As 11.399507664563208 12.191959843555065 9.303510110266878
As 10.860448991983095 9.35409302661184 10.579395210804108
As 9.344268862602346 10.2504578981946 8.884227003943483
As 11.864858002632843 12.126583991404924 13.290421058612871
As 10.255836608990842 10.282980554282387 12.802617898198859
As 7.3509904706919205 10.666979077777393 10.308663856248803
As 10.881113619307357 14.32850833621529 12.68727278519477
As 8.144968263596795 11.524199108019452 12.461104917719059
As 10.450256188552347 14.269380571951777 10.21069333923615
As 8.610488588844753 13.888389226429194 11.850605597164435
