16
Energy = -72.23743249 eV
As 14.832837997133288 10.325271043999592 15.516493298886802
As 15.091387077496892 12.664798203756673 14.705044093328388
As 13.051712871858168 12.04612535049442 15.992501763330583
As 13.375713862024776 9.311255852163596 13.76345890090649
As 14.598118702881015 10.216693686457253 11.825333910244934
As 14.468728573549152 12.629387604237172 12.310264104607805
As 12.062161715637526 12.876096473365225 12.717022386845127
As 11.606885132784594 10.999215550024427 14.239017648077148
As 13.059299225886669 10.042700324430289 9.968202542933556
As 11.45060007829478 11.67612017611617 10.625296939447784
As 11.157461939696068 13.394606357411314 8.82722616327266
As 9.111383392409632 10.895309583715699 11.128455848169928
As 9.328453266484932 12.549082647936707 7.466935181095343
As 8.014618138105702 10.911966006446393 8.95958251391765
As 8.958762753184677 14.375482111136174 9.134492386644865
As 7.622413840755783 12.740839898298235 10.621691864279057
