19
Energy = -85.51974285 eV
As 15.964246301412684 9.709717267463311 11.883834797510723
As 15.542782854583479 11.690500627332481 13.327170408585486
As 14.136277844538212 9.747835267915947 10.188924478123646
As 13.554939378586674 12.133718058364865 10.314070000745108
As 14.858924909511648 9.509371457046761 14.1051906738451
As 13.077483849015708 12.434733811954889 12.723299753002872
As 12.335160252972058 8.723833045960376 11.497820642136439
As 10.394772232350578 9.613576651695755 10.003314244867905
As 12.396193643584354 10.187396367940313 13.476288110471824
As 8.717131251788285 9.741005486115712 11.85476560835933
As 9.782975869115518 10.835250820371405 13.817540019238239
As 11.511708732065928 11.622138538101115 9.022911219033594
As 10.245417471664322 13.100240048868422 13.206085039419374
As 8.493378786585517 10.147232500790224 7.988180538645908
As 7.256102168688511 11.646509116396233 11.408192526032455
As 10.064230286966685 13.586698543989028 9.244121294187474
As 8.718529975481557 13.621625380677097 11.339976173112895
As 6.641881291032624 11.40955962197356 8.988468802170036
As 8.375018760073262 12.606213247060586 7.677001530529677
