16
Energy = -72.58118057 eV
As 13.482656700666135 10.033305265803058 11.957280617741445
As 11.393684232722991 9.646856802217066 13.162309856157615
As 13.958691882173449 7.7461461002177865 11.119281170079592
As 10.440709284350104 7.648126211934841 12.061077227913579
As 13.13255901482023 9.511296600471338 9.559261330856515
As 9.501349686742337 11.19095695121378 12.503401037801076
As 11.745676734605981 7.501135829388098 9.974767094050039
As 8.29526696086373 9.004484059479928 12.100720283741351
As 9.156462740899073 8.958387625034705 8.233424503816838
As 10.568769684290372 10.98559443886976 8.49037785073011
As 9.549464070927078 12.309037194022567 10.285020113306365
As 7.325753408600218 9.245345031589842 9.825007771953
As 7.180948424780687 11.697040817281895 9.975921174309892
As 9.297752167549561 12.153212281218321 6.663892317532315
As 7.858829002121682 10.102034929448369 6.4153002633227905
As 6.977898907871316 12.133512765794302 7.53943029067228
