13
Energy = -58.83693796 eV
As 9.003389030995242 7.82678552724664 5.687486862380743
As 10.830560746324865 5.467004574583334 7.629504401035759
As 8.994053126434343 5.314759139283059 5.90517766870632
As 10.827657922871682 7.978575612346238 7.413040744628832
As 9.114869255964864 10.74112441711207 9.030771497805182
As 7.30051344546426 10.611963777376314 7.293142409970005
As 9.7037576753347 8.424681840659595 9.53733167792735
As 6.91897135190531 8.229605141735018 6.897943447679264
As 7.377228296671343 11.001816740627028 10.838659586328452
As 8.516329585369983 4.983296531223119 8.287766757426514
As 7.5390067186790555 7.334975601406316 9.106338749106646
As 5.5569477747847085 10.876809663247277 9.095004036736503
As 6.020900726210981 8.975120062917414 10.574825074597749
