19
Energy = -85.54541074 eV
As 13.700674814826048 10.851031296025225 15.234078056055914
As 11.650412694524304 10.139928864477387 14.00447815003201
As 13.89409851067102 9.221510587120774 13.395023636550695
As 14.157713933946384 13.254161794172052 14.864304614137362
As 11.396912320457544 11.920032835453169 12.246647678318423
As 16.145005635963656 13.731033585880521 13.441474775987164
As 8.968698759605187 11.390058686862297 11.9905623532754
As 14.620862009316728 10.352066890757422 11.316096766481136
As 12.282773360193696 10.469112610519746 10.42574165680637
As 13.882004847986739 14.338155917201012 12.647682878000804
As 15.258909741661288 12.744463362033098 11.330627224494693
As 12.175107349555255 12.559929721323893 9.137828695855783
As 8.518317374555222 12.878405104880166 10.084198725627688
As 8.990985762659891 9.188732682620568 10.93232282590791
As 9.940601186345674 11.99950876290845 8.265969380552493
As 6.460447563925174 11.685801824275092 9.364414940702952
As 6.572334858600454 9.389281567875283 10.321309877966582
As 9.651283789364207 9.583297354033615 8.566945506489247
As 7.233692976518577 9.804324042257429 7.931129747434739
