16
Energy = -71.99308571 eV
As 15.026693963868162 10.07959265553642 9.933362762104313
As 13.002366570465494 8.941001632515881 9.12039881230957
As 13.494551341907766 8.297414268158253 12.901160870406587
As 13.018561481318047 11.429241500436609 9.20306969694521
As 14.462850170946288 10.48130804637474 12.337663244567864
As 11.859922910373806 8.092691652730759 11.146325396869319
As 11.36400104760598 9.59581528924774 13.972369344806793
As 12.485753019198354 11.866793246952057 11.605881657227274
As 10.975709093560011 11.709688006083825 15.313474309308132
As 10.595343405728492 10.303442111245499 11.68639179811532
As 11.250603424585998 15.169953964545273 8.990724961960943
As 9.197275822392724 10.016007705567771 15.40568122314179
As 9.12604338644046 11.731989477846833 13.743122391917588
As 9.037961894626537 16.012770488098433 8.32771614212037
As 9.214520382783421 14.123449436673456 9.89122714841504
As 9.859800272221639 16.381001813703982 10.615588761914793
