11
Energy = -48.8130441 eV
As 9.506677987847155 12.785134487459347 8.618332410693485
As 10.743903757820679 11.074283460945786 7.417254489205562
As 10.0131055817955 11.807701420039475 10.750036743908044
As 12.474770389521018 11.63725177559071 10.846247919927123
As 9.335795205745558 12.582703669997082 12.917350314066926
As 10.626212037742391 8.876411676229381 8.67880290252769
As 12.688939110735694 10.260456328792852 8.828740973475664
As 9.227210741577778 9.472006127723384 10.602791743579202
As 10.46775839879792 10.754023171199623 14.046680287340358
As 10.455167148231647 8.687854936082624 12.57464575421373
As 12.522578077318594 10.06434889347207 12.727499574288165
