15
Energy = -68.04355965 eV
As 11.63100987004644 12.124668053182823 7.581973906710622
As 13.518246641882333 13.763622790501334 7.663387444926901
As 12.840151865681012 10.971970092804106 9.407093193936504
As 11.226060505968203 14.424698921173007 8.41209773920364
As 14.09325495852253 13.00603262480418 10.049100292441203
As 10.989198068040889 10.735476089930264 11.011734669577702
As 12.207210221715286 14.478567417733384 10.682147689661951
As 10.541013670743753 13.073518034577212 11.826855987231983
As 12.300583663549569 9.67627624056503 12.818494162086063
As 11.568028936739173 13.161656677916358 14.071695913299928
As 10.313407792075004 9.440691288607288 14.274616616950558
As 13.45427710861882 11.625810913793085 13.760926641537944
As 9.828766174856812 11.72119267933951 15.085002184778292
As 11.174866357388298 10.173725570051094 16.4845209433127
As 13.50468451844934 10.81285295929924 16.06111296862162
