18
Energy = -81.09428597 eV
As 14.05661983133899 11.358544726107429 14.77500078096037
As 13.595387704599064 9.979784155635668 12.80959955652186
As 12.940725341212785 12.329860373152162 12.720355230392308
As 12.0555015082643 10.978898053237 9.140406690220743
As 11.847522310555695 11.537239163575554 16.01856077189757
As 11.735502158577104 8.604406539303321 13.597829999113364
As 11.805558033095533 12.894491194155483 7.000058468032104
As 10.752750857952378 12.476981604611556 13.939320308272078
As 12.06105239298705 8.521554170192124 9.796914102742965
As 10.94151239393725 14.827139036513573 7.90760038560201
As 10.261161318977555 10.207234122239415 14.71739464964845
As 10.356847961518506 8.141498135868718 11.522258799887139
As 10.704247128882892 9.333628181981862 7.896691378192277
As 10.372872006263814 12.037363306603984 10.641096475981383
As 9.338176197296535 13.248739554610273 6.9565934342870435
As 8.909819713574443 10.116972723857689 11.231064503036349
As 8.426382605268183 12.238870696508249 9.0683512823829
As 8.413437261519764 9.741870987668408 8.83597990865125
