15
Energy = -67.74353592 eV
As 9.45952701147435 13.818510617863272 9.113183320463866
As 11.692203165393856 11.62537641349662 10.822615401317996
As 9.248619771338486 11.835099275004476 10.663796813735415
As 8.952900294262518 12.564134420332119 7.051728684306056
As 11.271002253588426 13.184878771463937 7.521029422045054
As 12.205246115629514 9.304122549095986 11.56684424158121
As 12.301938053383012 11.11808749246706 8.498207371673328
As 10.495926221466583 8.968372543300102 13.317973281453447
As 8.579933404456463 10.340443998842987 8.831113470622002
As 8.124502643729592 9.105071604397704 12.658404765294073
As 11.540639406945559 7.811481081178118 9.66085348440734
As 10.667847050568623 9.35692857789346 7.938465568707739
As 7.68977085470023 8.438355809232945 10.290970963787428
As 9.358228590949674 6.867364842075033 12.803602901972763
As 9.43273056985825 6.682787411101606 10.282225716377127
