14
Energy = -63.20689509 eV
As 14.992871812419198 16.23656627103098 9.38544607955038
As 14.967784572160733 13.84369796518607 9.956036622351615
As 13.389532350871466 15.378873035297982 11.042714628245967
As 13.117039756841885 14.815179787293948 8.667915367519997
As 12.441056780649483 8.79255449139523 13.670151356843899
As 11.989311294746525 11.206787944063759 13.390477286113601
As 11.286847409170457 11.392499220964364 11.054550684835746
As 8.49193844667178 12.921253009845454 13.323339037267997
As 11.355825249707804 9.059355304110301 10.237757679976262
As 13.277288652610068 8.065994893305149 11.450812886120303
As 8.834753645475626 11.672239395993158 11.207392560131813
As 9.866308679137907 11.340348713771258 14.650291356972316
As 10.970625033272716 7.514017123153417 12.137302758579235
As 8.014880342763275 10.500286486209433 13.23260334882174
