17
Energy = -76.74360742 eV
As 17.805099552273788 9.993598547732963 11.612754128453512
As 17.381354762187897 10.100676558032239 14.070453707577164
As 16.146026515216313 8.468971885237469 12.685391215037896
As 16.355311586600354 12.301603815815618 13.567178337093116
As 15.96750861250877 11.750635442883917 11.188606128285778
As 14.458947304439487 9.808359619301957 11.460565880140654
As 14.10414575092861 12.169654457757359 14.594793913993696
As 12.87092961848329 10.503519206038737 13.23034334524037
As 10.848734766309924 16.15880083088843 11.106844223242481
As 12.889053826558685 12.887221830324687 12.55230236109597
As 9.349757331355937 14.466676523678588 10.304575468188531
As 10.848625559203686 15.800976311953798 13.510019238975936
As 9.197499990254302 12.699187820853856 12.072642471322565
As 10.779553061244458 13.35237605336599 13.812973952246809
As 7.480327199928876 15.72528244384247 11.440367476099231
As 8.38711644488288 16.13743291165066 13.726562921311926
As 7.351945862187821 13.95313586477532 13.212131983383241
