16
Energy = -71.54186948 eV
As 10.712416700942951 5.984882797699931 5.982227369743701
As 8.022119182342577 8.697020238104038 6.650534413501897
As 10.188623433260682 8.319616677799266 5.512167814648295
As 11.860511599731 7.782719976693294 7.294386713476483
As 8.806358954261553 11.574136660207202 9.252588797934692
As 6.837208892402703 6.515373359403117 6.5018089534751855
As 10.719748629567446 7.716376950431366 9.485828164791187
As 8.03083689984053 7.229311148998221 8.6329472418728
As 7.108531569187566 10.420575830737194 10.620295166180664
As 11.075637152537409 9.974095781843413 9.96788179865897
As 9.38711356559652 13.189207281484883 11.03837941857241
As 8.789833353123843 5.241728099478464 7.36368772880791
As 10.633531199294625 9.663122218825208 12.381091271578615
As 6.992894271530216 12.9012891336281 10.447492881548264
As 8.186464005111723 9.974726611156747 12.804766175723223
As 9.697329043932202 11.864975686172665 13.113074542148377
