17
Energy = -74.67679046 eV
As 9.666376423503422 12.128209001450049 11.118374602622572
As 11.673239766495863 12.66822671834198 9.877140302079493
As 8.214299835779299 10.921714613742823 9.218463872360768
As 11.792070010289606 8.855588579114093 9.661887397268819
As 8.57227692453979 8.994002260662223 12.725648594081019
As 8.691602785699665 12.459415317172079 7.177121403405364
As 11.622093319411464 10.719979757686112 11.4252536299324
As 10.544746137064697 11.158116515640113 8.129838283571335
As 11.806173259065693 7.282046171041858 11.509399372272183
As 8.504597529678598 10.409344091586977 5.7289881980804696
As 10.736181691558157 9.51745782620906 6.178082559693942
As 6.7814927217785606 9.42383266513584 11.31310645229081
As 9.40848435608607 6.859474678031501 12.005879530911749
As 8.038892312445048 8.763778228386021 7.769926140338343
As 10.213000904954242 7.664709189407195 8.055741789364967
As 6.5837972112961785 7.625337221804519 9.645768909612746
As 8.536032384771808 6.226123398615673 9.856167643128927
