17
Energy = -76.99499204 eV
As 17.697686430762296 10.797935665953924 12.202313920560151
As 18.095307376029474 13.137484617326166 13.06547451590289
As 17.109785454960196 11.408042076580452 14.533854492350043
As 15.720326194215332 11.6237099319383 10.914681844336481
As 14.155614312623456 10.616961833639433 12.50149389443298
As 16.11879424489844 13.951629598213577 11.757089672481856
As 14.659036510403338 11.882382689448136 14.560504859458042
As 14.723872883779068 14.176959611031817 13.727850858516033
As 12.29825249367288 14.134798644378439 12.494166473777403
As 11.270897270715581 13.101192238243613 14.508682326193611
As 12.233516976042413 11.794937349403034 11.483601845254107
As 9.24401351538402 14.438478495921409 15.000798632378386
As 10.073551290989556 14.6244817390182 11.165277662292672
As 10.370312813373076 11.275480871098079 13.102013207412748
As 8.813434116521945 15.787895773467966 12.963902007333912
As 8.825318045250137 12.534590357918894 11.640612685208994
As 7.497934116287538 13.679252961506354 13.426015667846286
