19
Energy = -85.66037331 eV
As 12.981560786009085 11.933378661245722 8.050501237054947
As 9.81330766220375 10.885471993473377 10.324054435439214
As 15.42559158645018 11.255630190419708 7.652500953804085
As 12.84484846630781 9.603167020535423 8.880072427002009
As 14.030322855993951 13.274745991113395 9.83278980768082
As 10.479106555620291 13.22103246564545 10.853228265757412
As 9.1455806684172 11.93884843446393 12.484710818310221
As 11.674568804493221 9.429120065351064 11.072669432884275
As 12.673175802788307 13.167892887798327 11.950309743697245
As 12.861111514092695 10.845767636491937 12.710018477392124
As 15.970304486531308 11.75811328097835 10.044486772810744
As 10.735081831362871 10.651748164192316 13.928307700161449
As 15.247032198698825 9.479538632379798 9.406905925275105
As 12.89576755519406 15.412992404198947 14.992977500667932
As 10.601090967288295 15.845512352279162 15.860394170457548
As 10.859850856077916 12.091588739108158 16.025737641418484
As 9.345766124329495 13.841783824504942 15.340457145677131
As 13.072259808894033 13.199878610159562 16.076480366207328
As 12.454868192682342 15.191372752727426 17.409782097110533
