11
Energy = -48.94105775 eV
As 11.99127766249337 11.443557176837801 7.564282670812161
As 9.662868987934017 10.802691399366513 7.005722564612911
As 11.93615640667821 10.363627453263655 9.79415067411515
As 9.539339815123803 8.39128133106403 7.4805081425990325
As 11.059503624911853 8.097420899800303 9.403370784287963
As 10.154861787178419 11.976380413010276 9.143451203132265
As 7.318929856584382 8.552095581397023 8.602101851525372
As 9.462966155384722 8.173081788336399 11.317295856136633
As 7.626724722888654 6.753578390561925 10.339068359529568
As 7.871937075308338 9.981607016416698 10.596022807570993
As 6.281160519674805 8.370405164105685 11.659751699838656
