16
Energy = -72.07032777 eV
As 14.790145395137854 13.327308888851823 12.297036269271873
As 15.244580102500363 12.259126704486452 10.09784999199708
As 13.527010130145701 14.066508519316008 10.286611738000797
As 13.229456969687213 11.860437611070685 13.559350107226939
As 13.582596342768381 9.657499180403113 12.421218318074652
As 11.053405112393976 12.717704830042608 12.807621048490333
As 13.995793508473383 10.117899002774564 10.023937556598057
As 11.252693438297813 12.951840763959032 10.344913093654089
As 10.142425951109827 10.574139226177282 13.62359446089621
As 11.248267341774786 8.771267876501328 12.342753765121103
As 11.880272368184698 10.937792642883267 9.053278759801405
As 10.518988351216851 9.092974235415749 9.943082404726088
As 7.876844945575952 10.302091221671043 12.66272437812492
As 7.481279181394478 12.715742053004767 12.194177213742956
As 8.271396065870515 10.160822153372386 10.183021211251832
As 8.400243024449642 12.643457270105424 10.038321024670816
