17
Energy = -75.58714522 eV
As 5.740618816579323 10.462490329643277 8.420281122552117
As 13.48482444456818 8.3489567708813 11.848660046110044
As 7.323637312340547 9.964756449699319 6.648843405384927
As 10.902092760176307 10.462388707632893 12.096058733180865
As 7.973320973409701 11.482077703502377 9.520551795562842
As 6.130423109750403 8.279741840983252 9.45954527529154
As 7.790425388152197 7.74461722597767 7.725284832893685
As 9.523350110903113 12.435078047529428 11.383687664702792
As 12.707022402338325 6.603279471301005 10.22242612056822
As 8.56870146689829 13.458949358139467 8.128112354123461
As 11.431829386630698 7.018019094759138 12.338946377235862
As 11.769100969856215 8.361696410087282 8.71677254778328
As 9.61131237074264 7.496332399897694 9.480459433915943
As 9.484818137399877 8.452505598423434 11.770977700645124
As 9.510336005731082 11.231802212504515 7.585342520000789
As 12.56215213378173 10.114056757712603 10.338609897487798
As 10.706513893527996 12.920146578744614 9.334447944297864
