18
Energy = -81.24018435 eV
As 11.602682835521533 12.148024505083983 7.792727930906792
As 13.970527547822375 12.68884094257965 8.336022802144084
As 13.396622630202689 10.52059532290203 7.280973873441533
As 12.653768534343358 14.26395185349532 11.120940692309459
As 10.301586171126734 13.305521053674445 11.372055593392774
As 11.670327519325706 9.95887307603441 8.958883932477478
As 14.156571955313053 12.355321717912254 10.78171200062847
As 9.356704261175942 14.383934502201395 13.295077110721143
As 13.217529245931951 14.822086432759624 13.490947421744991
As 14.942121816995366 13.31022939682747 14.294642500336717
As 11.298344261350403 13.71160117600616 14.550738781264128
As 14.51862843060388 14.145532171703001 16.641151073357694
As 12.839800481344309 10.265148426728619 11.114132400510991
As 12.052304287682437 13.999200897194255 16.944488608098922
As 10.731938643675784 10.938923610112989 12.162346782851664
As 13.845987781153806 11.09601806451331 14.888329756019246
As 13.449008280830121 11.950279578538991 17.228174401579082
As 11.439448234438473 11.25540264210195 14.539462288981303
