14
Energy = -63.12986021 eV
As 7.19177844347957 8.20327219888688 14.53915207244745
As 8.13856362715136 10.444889659647306 14.190906993126907
As 9.607370419444244 8.47455544746066 14.170174297021346
As 8.034200432415616 8.852067609092922 12.320985511216739
As 13.655253173778389 10.958289394904886 9.572146717377082
As 10.452069897253331 10.604041747658801 9.189625093036659
As 11.868962487030396 10.53418576635939 11.196196654806824
As 10.21598626178465 12.805751385316466 8.578409743983256
As 11.587727438826299 12.753133015569821 12.191988093401546
As 15.324516626606009 11.635054268497745 11.342124599724766
As 11.466281664110793 14.168472818826578 10.196985271629927
As 13.391116091990272 13.365460619166363 8.913391516199859
As 13.98526446092795 13.172074660390816 12.754661702762492
As 15.064103803528404 14.020466255259658 10.689161681784816
