13
Energy = -57.89873238 eV
As 7.624376079712758 9.413384456455752 10.771342658344883
As 8.689716839457086 7.303383274145206 11.516326630224418
As 8.845083125141757 10.066227570005813 8.610870756350467
As 10.522073942386564 7.83448345649501 12.91348915816992
As 8.9048919070911 11.170324593554184 11.97437116836372
As 8.735923056990455 12.277409394179177 9.76880366203465
As 10.96186286275369 9.821255394069336 11.630134690152998
As 11.11950644553777 9.312795893343049 9.211284001113196
As 10.995760931872638 13.245531132478694 9.307351845525965
As 12.93167065444631 11.161000150983641 12.305607189976678
As 12.28652646607911 11.331245718459336 8.400119023612781
As 12.47235432811111 13.394974785456613 11.331902417798853
As 14.024191148821439 11.742220622019534 10.193494164065838
