18
Energy = -81.01796907 eV
As 13.96092764374414 12.181564182134943 11.974332985513263
As 11.643160875011045 14.107188789038963 9.85654922831128
As 12.035215951396324 8.318153535882306 10.273974637744892
As 12.350111128497518 14.196264937237713 12.214034638067744
As 13.589655818211236 11.118878086523548 9.791148945061815
As 9.397745514771815 15.079973726034867 9.997857785828948
As 13.69279419151305 8.755868600395237 12.038838675768393
As 12.680748185750616 10.57798104415721 13.42454064746864
As 9.325402619692817 11.276329063122828 8.583435676870888
As 11.273045536481963 11.69875849297124 10.07027775959734
As 8.27325940557626 13.495625474773222 8.368694696902807
As 12.565763341352648 6.715602156787495 13.13137783952845
As 10.489706128468926 10.899152652525926 12.384134599370684
As 10.457616748519387 7.146082247652431 11.903192818589645
As 10.33008845599988 13.153258363274396 13.31940514350992
As 8.396964892998763 13.763942269195267 11.847295537029478
As 12.196941211255124 5.829555170716659 10.83800419535955
As 7.606887045720988 11.951855902538245 10.248938884438912
