12
Energy = -49.08206145 eV
As 8.389637006244111 13.591810503342026 9.680618383329074
As 10.37361674114003 11.654297432923363 13.74763090373529
As 9.282411315238484 11.87818516736534 8.811684849067232
As 12.055750002944833 13.123666419505753 13.073463887651798
As 11.982132135929843 8.995834975273926 10.791157861114083
As 8.343751304764819 8.477016924280957 12.457405474976548
As 13.025111841172043 12.215870457996447 11.113356633418311
As 10.935042143942345 7.107828057963213 9.93731532616755
As 13.943893885819325 14.390753152068854 10.538616199768706
As 14.22009414648822 13.994685571234024 8.325629530380068
As 10.345077870144282 9.711158844080014 12.330475278198882
As 8.786202069837472 6.826365339544927 10.89954120810258
