18
Energy = -80.89275624 eV
As 15.00895735086431 11.668980356491014 11.218076679721687
As 13.746842649340278 13.675217897363872 11.940353863534446
As 13.61993369746574 10.081398714773762 13.071452052998778
As 13.86562441729732 10.68122913137442 9.34174516623202
As 12.183431057600243 12.350767789770039 8.510887950765516
As 12.473234978312185 9.424959756075799 11.056458158437982
As 12.118668009009546 14.179511958662626 10.174182574555472
As 11.578189495384649 7.14288412651352 11.929603532231523
As 12.637507325993612 12.319431287302477 13.752274197261235
As 11.521775809909604 8.371102785628885 13.979687817260011
As 10.270142447717072 10.798243069360021 8.784409012407888
As 10.313153574141907 12.151499109159838 13.121818591353556
As 10.022745768745787 10.465275230781302 11.266809783331343
As 10.227537443729075 14.206247351202094 11.8164904380565
As 9.487771845673521 8.32917650484894 12.517889958935166
As 8.177264274495114 12.13807629323564 8.750515135737466
As 8.053185233805594 13.7075966625433 10.667362154658983
As 7.524746338242962 11.342602067744423 11.012624394806767
