12
Energy = -54.30277542 eV
As 10.586690970045728 12.03580925321085 7.741822112594828
As 8.995835757629235 11.776684207563916 9.646604928755654
As 11.34340571879169 10.947115524058008 9.80385708355358
As 11.47028238920901 9.710100440753305 7.632065375525289
As 7.521379414808028 9.044645833318397 7.16825937544282
As 7.303688427332824 9.942565333905092 9.427744832297105
As 8.231892965511484 8.145915060144015 10.786733108846287
As 9.751702022840083 6.822323341287296 9.301581145766859
As 6.318462287208519 6.669977948249806 10.132712662725412
As 6.2519105963045005 6.964721714301739 7.659673149485926
As 9.725567713581478 7.979599414926866 7.162171385835811
As 7.847286280827871 5.336887221150013 8.652095708127899
