13
Energy = -56.67634023 eV
As 8.255489286431734 9.729992470843193 11.230356377568569
As 8.714587208684847 11.270046823236035 9.366172201491239
As 11.833588367387623 9.352333422888679 7.373913600404093
As 6.641470678465926 11.446831407254798 10.628879024229086
As 10.597089465931052 7.948581665337382 9.027327494482062
As 6.80049916927021 7.716416183098332 10.7913954083737
As 4.89482011548325 8.079482712152114 9.267755029484771
As 7.971289872772725 10.287934021668992 7.198005897544574
As 6.712581521706174 6.555720391590917 8.588485158671375
As 9.5970074832669 8.41026434264804 6.802454766029548
As 12.755737981191997 7.245265812742345 6.438907743816149
As 6.209517128041665 8.56003672409687 7.190923643251703
As 11.598776047875212 5.941781890591997 7.95932321875902
