17
Energy = -76.2347397 eV
As 16.974041843691946 10.428039545356096 12.480999689894281
As 15.28699559815376 10.105661859292237 14.265752436080742
As 15.735582185773694 12.371510331666608 13.373239626611982
As 15.41630846793738 11.674809696228305 11.004075071650862
As 13.305172363077062 10.396735275459383 10.924288087347989
As 13.45291645121736 9.066156356931902 12.983830607720101
As 11.647727623404473 9.456169444892359 14.683444137349943
As 11.67438931446078 13.415756560462999 13.36584491714823
As 9.4083535406911 15.71664825770027 11.057892512239162
As 12.048008486051922 12.523495448786427 11.087582207804275
As 10.671049300496103 11.716510102180681 14.928862968214265
As 9.604999403664634 10.05605504608498 13.490944191976602
As 9.30547304619305 13.73552185657569 12.545758369853894
As 10.220198056158146 15.114933258868643 8.793380165764718
As 7.812226775796724 14.992033341535235 9.296937809948103
As 9.666894543503817 11.845808829030547 10.967663742596674
As 9.073315032799503 12.9170518311677 8.767265392273552
