19
Energy = -85.05980366 eV
As 11.492578903366429 13.738220836648964 14.370790458965404
As 13.04698321854635 13.551775033241679 10.762665620756868
As 8.468547654158602 12.69853131391878 16.35563769648986
As 8.43329197214352 13.024684752285564 12.592720062014392
As 13.561153958355664 11.625212723256364 12.211736816638076
As 9.486339493234 10.667415390198896 15.618223817211671
As 10.960158777889312 12.997169956725596 9.50253810424607
As 9.068595438439772 14.376925272330684 14.65059705926827
As 9.609938651692017 14.497140954071593 11.046510218828656
As 10.27313873899684 10.735017431595473 10.183189433944053
As 11.739140696617811 15.055702531543503 12.322438657378518
As 10.307110957171451 11.682675942928562 13.614636902172412
As 12.583730543283709 7.632083876631281 9.236592131713609
As 11.658762617788755 9.73963972954671 8.35043192430174
As 11.60538280994295 10.12104070998373 12.169186294510487
As 14.632507091947614 8.171547148418096 10.522361073588703
As 13.881668390848318 10.832657928465256 8.202156042925479
As 14.979784155940383 10.61051144174532 10.416001117530744
As 14.644153360075517 8.38734887688628 8.02561648745674
