15
Energy = -67.98319607 eV
As 11.50972863464372 12.51124732242966 7.544037245364619
As 12.820379235931865 11.013596169077914 9.015846809593885
As 10.410317424485834 11.377453174565069 9.459407639935701
As 12.57729379717576 14.4787896422094 10.762860813639481
As 14.118523882762547 12.557639980158276 10.442080563998532
As 10.601974054692757 13.84737008075006 9.421501090884641
As 13.869169755715097 11.204027909818821 12.491748838274217
As 11.50634676012101 11.606127881349718 13.057727782140526
As 11.493057360701977 14.067941137323064 12.942899148723203
As 14.999432028958182 12.709214125855487 14.08978512221455
As 13.406787237156562 14.6152293736485 14.40268042128657
As 14.252974077375368 11.116694187887536 15.831174249334126
As 11.764981609774166 11.409055690872869 15.566879672180121
As 11.992429452139985 13.815122979543832 16.269468394457625
As 13.648921514331995 12.642807170476626 17.674219033938872
