19
Energy = -85.69323569 eV
As 12.595362460708529 8.037192279128089 14.133970145812771
As 10.691810329639214 9.536422136822617 14.662896664914227
As 12.829638720025331 9.946321356063942 15.703257346932546
As 13.493137460779083 8.835774183792344 11.927823433159842
As 11.075287610681157 11.570351287288 12.991139748829669
As 11.517736758514303 10.03691119582271 11.092851388900932
As 13.255293147223524 11.9722069099373 14.043335748210598
As 14.912011573933167 10.665731255742912 12.740197368841677
As 14.35576873641554 17.149115716238658 16.80599024732073
As 15.06937218293847 11.683822408195205 10.50173327221244
As 13.087546397144928 19.18958937856906 17.323083558692595
As 11.25745705036079 14.024066425689696 11.825766889571458
As 12.838576836394243 11.284895385048198 9.424916372124082
As 11.979903929637691 17.304621559688005 16.199467841534982
As 13.64582210761596 18.644696008354927 14.991414024369552
As 15.088205580130348 14.10404329232224 11.08258423249119
As 11.711128616071896 13.505263514057035 9.4569517314924
As 13.66511142739145 14.953571594770636 9.297606215408758
As 13.400143869099564 14.412903509504893 12.861259070656097
