18
Energy = -79.61120588 eV
As 10.562574623415419 7.181344075578847 6.910758791974209
As 12.577209277947025 8.443274120176001 7.720739012447207
As 7.771053657565658 5.292217373399315 8.223098820890879
As 11.941579531456487 8.878453884616416 10.086108399944518
As 11.480469782331058 10.61380099677509 8.389569825056395
As 8.570688732174487 8.893166836685296 7.452330560754981
As 9.844580623564605 6.2668375030157275 9.027114888145677
As 13.472026455616405 10.775669170799883 9.76598184286496
As 6.88324168861152 7.133358959522777 6.819479787207902
As 12.198700773908184 12.283054227583884 12.064189883522136
As 6.121492031556125 7.186919620607685 9.198341405432412
As 8.287002561232761 8.357315108191713 9.874637415194789
As 10.291916988323656 10.817389949962816 12.56912459016117
As 6.755396687148666 10.84466086462641 7.581689839197768
As 10.001249368333239 12.751751476303063 11.085799691924485
As 7.09694957636924 10.788980053675028 9.979440461811068
As 5.141050301731236 9.702434810375383 9.038264839137769
As 10.252153616901698 13.094609948963429 13.513926074251748
