19
Energy = -83.23121256 eV
As 11.156771068222945 4.905557797499333 8.16359339670119
As 12.220421553665307 13.255889440891428 8.912791906496835
As 10.149213625801812 10.469431857472511 8.843569621379766
As 8.919222217573605 12.46052595749114 9.7347207474088
As 11.428991520206395 12.437516780513695 10.822285756817319
As 10.462342788712382 6.9243564809693785 9.466668123504096
As 6.526191701106291 12.023952108544401 8.788430190936975
As 9.316198092935414 6.453389318275119 7.34328663222282
As 8.732326875855387 6.036974295665366 11.041830553454126
As 6.581006607632127 9.12372323834652 9.35365946772861
As 8.677825560447253 7.937256594391525 12.626301718855208
As 6.544391297841325 6.673970776144848 10.07403381374596
As 7.5292111581156576 11.604139830090173 6.693112537934487
As 6.198186738882603 7.7838630964459 12.339093351022727
As 8.287506408735997 9.371900555234648 7.516149871917818
As 11.085699269952915 7.820279316232481 6.260918557566809
As 10.039798084248268 12.598057612517445 7.524558366869578
As 7.4674468024008105 9.810439737019678 11.545553470879856
As 12.744455813548957 6.333960439072752 6.93214792554595
