11
Energy = -48.41822942 eV
As 13.416385766945197 11.270496505386186 9.566090632233653
As 11.884554576378212 11.564593007206629 11.518424799307407
As 12.524191914625908 9.800330137927498 7.988402642253601
As 11.013190097199391 9.28296959559426 11.503794721971882
As 10.403720773565865 9.476665858602615 9.135818152633219
As 9.925299616588147 12.892319843857427 10.646921877982143
As 8.967711763164294 11.51567294611252 8.851470298412096
As 9.080861026547025 7.48723969251784 8.681460552921722
As 8.666390694265775 9.401379942911678 12.169765112666102
As 7.866196052036676 7.566076425146285 10.67295684440774
As 7.906447915321962 11.539088014589053 11.067192076656761
