17
Energy = -76.76850266 eV
As 9.657158832457052 9.38194172116985 14.122327444689791
As 11.604889173245272 7.972012485308263 14.915765375295583
As 12.395879554392979 7.650845881854535 12.543324411975975
As 10.272579807495891 8.697623489739696 11.763740993877622
As 11.599273560161706 10.397376484531337 15.21167047327286
As 14.064816980637556 9.444412338819193 12.303767275519085
As 15.056721478745255 12.693170912600602 11.525788678102776
As 11.413474069002891 12.348701868110242 12.052351169782428
As 11.017369437204128 10.629526694441726 10.352520867072856
As 13.17783064368823 11.421071720673883 13.502943715109515
As 13.273512151787761 9.720981200189405 9.984936179829472
As 14.313652688865478 11.91237031034001 9.34414163735693
As 12.999998556124918 13.626351729741797 10.576509339729132
As 10.35234089083273 16.610507882741928 12.750840786502128
As 12.61039457371393 17.555601828383203 12.525845231690944
As 11.354059450676132 16.89021417971196 10.52343069101567
As 10.653874009584426 18.865115130259046 11.817921587793393
