17
Energy = -76.87200168 eV
As 11.524658117879063 13.235603400478798 18.186090557375994
As 12.953190988469146 12.753021530277 16.24404796274421
As 10.524308441435773 12.399688852657642 16.102041566425793
As 11.431854212639227 14.680275349781972 16.19945671581943
As 13.286390248669479 9.545334221822094 13.000909255687068
As 15.524963573488328 10.467893832740248 12.60913777766211
As 14.559844038874106 8.708741816260805 11.07740946400006
As 11.63680675641748 11.357512393302047 11.948160102735223
As 13.189301660575047 13.270071527465678 11.951741902707452
As 9.353627681680338 12.725878787003838 11.791494601936064
As 15.10768352633928 12.22749188438281 10.848046056313283
As 11.7272428719734 10.591653729037896 9.607698992032
As 14.152291827190611 10.473599680025847 9.319011880606713
As 10.029845372149746 14.922633323702408 10.937225332594357
As 9.076458803603419 13.167564069413562 9.393092189932162
As 12.334382600009945 14.481361725290887 10.005988502348663
As 11.384784057484241 12.729713936860438 8.47126136931691
