10
Energy = -44.43465072 eV
As 10.42969579230303 11.34222493789115 7.566737344325564
As 9.616915595149335 9.014784369708773 7.450354201014876
As 11.967546712377844 9.472088833273343 8.04814588239981
As 9.092725012167323 11.71221620922091 9.649316276783015
As 9.14187235140811 9.2941981272167 10.057569187286619
As 11.511585905855803 8.763470240362404 10.40479958691457
As 8.093608668967908 8.981943283361092 12.168873381270867
As 10.440012221905322 12.406259866646742 11.551371191332088
As 12.007798249148726 10.487299983506862 12.046751891860891
As 9.702749448593378 10.530024106688805 13.060591014688994
