18
Energy = -81.08784562 eV
As 12.036545230391795 16.289407931587053 9.301579266355224
As 10.549722246393502 16.727800212902018 11.231000068358597
As 13.001368141208161 17.12462040568308 11.423043834787984
As 13.18052046143542 14.073083250173545 9.813263998398503
As 9.784084501961056 13.101851065560252 11.525455044564787
As 10.96092475585673 14.833987187510038 12.8124594158322
As 13.359325766352203 14.674132290603579 12.208475299928862
As 11.076531982096975 12.865597093525817 9.415878959632602
As 14.277358274936367 11.109007190039378 10.304762755663333
As 14.432572511226795 9.95107734975648 12.42788694063418
As 11.92522045274604 10.554945944229656 10.150766924465794
As 12.727179495966482 8.083277942055439 12.582207371140818
As 13.209979077773383 11.630887385720529 13.791954228444558
As 13.016047908371734 7.92918873040297 15.06877395132911
As 10.414385011950621 8.941823733094362 12.987412253583283
As 11.164923130380163 11.223197411487584 12.454360013637949
As 12.675595563071555 10.288521424918692 15.814144923199612
As 10.701894774689778 8.86298768858631 15.453625579365655
