12
Energy = -53.92299166 eV
As 8.496421686171674 12.051168847491148 12.760482897481673
As 8.397347393207708 13.38041171060928 10.733183378647098
As 11.922640907239485 11.906903723256466 10.876208401886668
As 9.987948730041476 10.58592237011722 11.664029950398625
As 8.629756484552907 11.973823805080354 8.629642081846379
As 10.586051064596518 13.358741509976792 9.442661807515835
As 10.890328124014305 8.779391031553066 8.62756236380946
As 12.83883799943825 10.159783383792924 9.429778511077831
As 8.87847467608651 9.756968810351456 9.617152458525922
As 11.056026717538616 8.542800051895803 12.584214414584745
As 13.203855266033164 8.551151039312147 11.329135029573107
As 11.243243058111632 7.163385755174623 10.523261372910726
