17
Energy = -74.09905941 eV
As 6.6001297329166055 11.29291375913905 9.884854485486628
As 10.481588552251473 11.114301356421937 6.097460997521593
As 8.472553287319272 5.474152555069894 9.625785800162655
As 10.819443354509174 10.922861055263724 10.764172576819501
As 11.632979952679895 7.051684565756647 11.303570743082274
As 8.008937534821854 10.667874249664445 6.1079845117650855
As 11.158121443409687 9.23124799952776 12.475557985932868
As 10.155362120640946 13.099379620217888 7.327264747607194
As 11.735594007664673 7.53711150893625 8.899858451489653
As 9.221280142666524 6.637344334270442 11.676736129885903
As 8.472255665135016 11.618272364760582 8.273351489477047
As 8.498607441997425 8.667058092849306 10.474144379733348
As 10.15572292156533 9.503051533741818 8.695185142675646
As 7.796730671779842 8.358603712544044 7.0403920187640665
As 6.420502928987826 8.872123860842818 9.090320025967344
As 9.771101865303617 6.393486206832312 7.911369162005099
As 8.442604623569737 10.777028328850776 11.701040017944807
