21
Energy = -94.9201136 eV
As 14.937180870435578 8.362363748639815 8.981299912820882
As 14.746646980132464 10.392151839336279 10.383183681550129
As 14.447749620186979 6.361880167790798 10.311411209233995
As 12.550160943585377 11.122000228603072 9.438634849495335
As 13.528878270673873 12.647713999966326 12.588639266163963
As 12.714151576654244 7.325964814429367 8.730635933789005
As 14.284671778700533 9.403938255390534 12.617015026614732
As 13.177600191519018 7.247391654401048 12.284067863195505
As 12.183524725450678 10.615657127004066 13.172123878932771
As 12.605065933481573 13.413618723508778 10.427600131925304
As 11.977751922271818 12.447820477136057 15.706650161365335
As 11.2862159293407 7.7854160051587575 10.758749729146615
As 10.909514054345891 10.23726022038509 11.017235533594382
As 12.79500883786836 14.287097477266121 14.316006361179127
As 10.125965979998078 13.648220791886251 10.559671005581407
As 9.220187442148918 12.921442300558551 12.74147483582218
As 10.372097091543202 13.995809939670321 14.703202340116254
As 10.062821086314136 16.125044116894486 10.683328568991211
As 7.598922757953306 14.79567215996634 12.976312800919066
As 9.06954782384977 16.809145190498498 12.85113179727275
As 7.604367233415227 16.25242181137899 10.949656162160604
