25
Energy = -111.05275247 eV
As 11.639954246735442 9.75331969889839 4.6500504356635055
As 7.589613189721846 10.76870093818729 5.205709843477287
As 11.575269023119027 7.379538722376941 5.3458345588081375
As 8.805911139175949 10.328389454226485 7.3443835877019685
As 13.526475167624808 8.780585909824298 5.953848259379122
As 5.334676320436534 11.218747281119438 7.788038277611029
As 5.7335165523171066 9.440931056629259 6.14214440954173
As 7.446627683179462 12.40624412579119 7.102085520794892
As 12.256149865010046 9.431464195039736 8.118418563182198
As 11.100344992033685 11.121597222239764 6.699200723838353
As 11.609400384391142 5.675528466767122 8.577389352694492
As 10.513517715516633 7.705599094888779 7.6162249359124194
As 4.71804089746076 8.059827198814652 10.237166616181879
As 10.475737730519567 11.024667761236204 10.11816052027499
As 12.366693675578531 6.014315579450312 10.913399861214357
As 4.525422815622228 10.215360584153839 11.4264135911082
As 8.340495442851985 11.456760596310163 10.999957320433552
As 6.330441160423398 9.972555749378893 9.75901995138038
As 10.05861484085477 5.165475216455565 10.463791029477537
As 10.997888993380569 7.73212678761786 12.16653787614615
As 9.195518582204555 7.584898378307914 10.520400527698957
As 5.485877782369644 8.207296329451928 12.559779222145389
As 8.024332542807455 7.922536942067926 12.697582921717485
As 11.29357331194435 10.207891752494072 12.288945642115602
As 8.88791552954699 10.25765054309934 13.137526036326726
