28
Energy = -125.61950119 eV
As 14.422627822415638 15.846218051093732 10.142935661450867
As 15.86229119392738 13.886660579158601 10.867560785841953
As 12.053740404481658 16.037380984981937 11.083669255135838
As 14.000750164349837 13.315950580492764 12.38060890599045
As 12.534129478805067 14.71383103622354 9.04816208037333
As 14.966706492016467 12.084003151711533 9.349472980754575
As 9.273434241242958 15.095277934560864 13.88466191311232
As 11.117578894300404 14.084992265610582 12.534967248658196
As 8.749217884865127 14.093298562932574 11.713224951397429
As 14.787895095998008 11.043073474513129 13.034707284599715
As 15.510332869578448 10.11840525200224 10.832693514637352
As 12.676842895535636 12.538420462935559 10.334798435677097
As 8.780295501521577 13.231668110706218 15.502744922142526
As 13.06377465885015 9.973811386087622 11.639039101154744
As 10.864874770858847 13.061881580505853 16.84770063009441
As 9.701638406314414 9.754541543409262 7.315558908700348
As 12.040912300932595 9.842456506031546 8.136045020406325
As 7.8811364746166115 11.769903092268098 12.184017429772881
As 9.63952335126358 10.504136579471846 10.89983807961708
As 12.204601834125791 11.404583753672409 16.02644884830317
As 11.233701759664653 10.957795155267373 13.83120905301842
As 8.79965103970425 11.044190361635701 14.367563996236655
As 8.387133760580776 9.032445513822946 9.283049587615398
As 11.287072749723897 7.916505051727784 6.777123151802893
As 11.963716166167904 7.578137370267181 9.143160840350118
As 9.622473907180714 8.418207810632047 12.306480937753244
As 11.845135905834582 8.528393024263666 13.42135223253644
As 9.738288477560218 7.133309326431071 10.12068274528392
