29
Energy = -129.46676993 eV
As 17.008609746242556 11.715027179271024 12.148715491434766
As 15.674628798276261 11.894099409130385 14.231601856408762
As 16.22452924355077 13.130794138173995 10.184936893774172
As 13.931756645224665 10.048200213898559 14.090991687687612
As 16.157692567910335 9.568468223378726 11.187918538212566
As 14.131385987444398 13.51931644211558 16.590543983365766
As 12.410020232437804 11.712394400113949 16.736153379516644
As 16.508705676474776 10.925695902239362 9.074485814114304
As 14.494407510464772 14.057850121709883 14.186028582266891
As 10.88189188370357 8.981611097736964 14.924303982823899
As 13.79968850841078 13.431833695383279 10.320655353681975
As 11.740532371225894 11.262523010402656 14.350293596693348
As 13.759110030681072 9.358859731659129 11.699246275022713
As 11.7881405058398 14.09157789360183 17.175405881254107
As 14.642782629066353 10.940792591885469 7.446371498928931
As 10.057654905516724 8.272718140664974 12.900155031923624
As 12.152308347507 13.90949433724786 12.954077402116196
As 12.462815062035341 16.355244119386693 12.26408098417606
As 12.498915382954243 11.279070674443464 10.794256089732864
As 9.958912491511054 10.138906075782259 11.330987688161645
As 10.89222275142607 14.798861426407463 14.988250890339899
As 11.544036705950251 17.18579920139223 14.446024227426127
As 13.359385864724239 13.006341402478782 7.878229576749236
As 9.023751925307515 11.768564946831534 12.831559004002386
As 12.350064264908125 10.745124789160554 8.367075892403253
As 9.858624963044178 13.573448878500729 11.513984891927851
As 10.155438775399782 17.229354516242218 12.442835998065723
As 8.545954904143779 14.56233779683395 14.958467289888402
As 8.478930193465501 15.29460686641144 12.656298670206004
