20
Energy = -89.3468487 eV
As 10.784346184283613 9.165369302575105 5.657824635227519
As 12.963244829133853 7.923760699799426 5.565273171346997
As 11.270700620383867 11.034651146325727 7.180959017385108
As 13.231812541394731 10.257035511010752 8.471103025394786
As 5.601936930666397 9.062110195858258 8.49684842230963
As 7.657712092346967 9.137299058265755 7.026048905109315
As 11.09687432452254 7.102814627088096 6.9926692707001115
As 5.860688969677417 11.372225554920572 9.017689140534378
As 7.7734764554307985 11.53980374165511 7.422539711748352
As 13.22851361916205 7.821926257018047 8.029076271017026
As 9.11322617487236 8.39620215551275 9.16510938765424
As 9.651326773545957 10.835944078309327 9.066765720340214
As 6.653494009954657 10.659427845748583 11.682184686929782
As 7.100142097040451 8.431681671758986 10.750499050357476
As 11.23088009685561 8.471466711359527 10.945837703856432
As 11.976506862282484 10.690587926176494 10.602679384097565
As 8.742899321657388 11.108665663741679 12.975458772717008
As 10.114075760327339 9.008758361526226 13.078555653372252
As 7.061010172487288 9.586098283833143 14.04163729161653
As 8.085736067231258 7.592775110772879 13.029844681541592
