29
Energy = -130.14793034 eV
As 15.647941484262635 15.311593872021426 16.357964159705393
As 15.07923494276127 15.93384261018249 14.011417198306196
As 12.511082603348148 15.766902375093114 13.738177566674866
As 15.682748160839731 13.600904600343812 14.556299680570358
As 13.609367127942646 13.936401306526067 15.855059287507752
As 12.787249048334415 16.636927380567816 11.367757033156261
As 12.695115872512579 11.700985120537498 16.65296486879335
As 12.408988530308626 13.359186877883054 13.078482616414437
As 10.43138748724538 16.019186213581047 10.958266026010076
As 13.947229450750237 14.74570180012784 10.231487720180368
As 10.992202568437273 12.397394051839854 14.973572837729499
As 10.558184523140318 13.517894285197057 11.390093399549974
As 14.098997890761142 10.029464364146461 15.467232975661641
As 10.52815527846349 15.083992705378375 8.631450326892454
As 14.089714388804198 16.387028821059957 8.39777248040664
As 14.565225635830839 10.768872723274606 13.17725014894336
As 10.513846568030935 10.208526740670624 13.867804600874576
As 12.227096099257086 8.575252131319235 14.739897314117302
As 12.083723217623197 13.323875729647593 9.421936971916605
As 12.021163093719082 16.64227166717498 7.468964862047661
As 11.677461997150592 10.415232888759801 11.663398979767912
As 13.347724702574894 8.713394430900031 12.46026278813981
As 9.72880816108483 9.217605442689239 10.597446599126624
As 10.25439588106461 6.8347012124376185 10.95680980727648
As 10.891436805537603 7.907294377857068 8.851415022792658
As 7.933848850770065 6.055982060310965 10.537336292946415
As 6.925198680440541 7.673628922503596 8.95626306155558
As 8.875469915325203 7.6417697895735115 7.4311459545241085
As 7.8087866415040015 5.5159711062204915 8.12385502623652
