27
Energy = -120.7498235 eV
As 18.912021925077397 13.549008696648054 12.230475447215605
As 17.85671909233661 12.573978336026462 10.227513883114401
As 13.298373095776382 9.535494531658047 16.39712003851851
As 17.592564314606648 15.427974408735649 13.143138781469721
As 12.675186634084737 9.417884741976673 13.942364199879451
As 17.95168400487228 11.280500214577533 12.414746755437923
As 10.958459015004571 9.777672348237031 15.676172429645176
As 15.439144837162079 13.125565272622367 10.514927462891404
As 16.130464611138006 14.01376262367747 14.571928722237292
As 15.500336683754943 11.097068884226974 11.846774847529137
As 12.37044140971981 13.274425615209426 16.702426360941324
As 15.18564396346892 14.924749173089255 12.486820411788731
As 14.284969393621282 11.844891927296672 16.14092036004184
As 7.582193355707204 11.639889716131936 13.372796612502203
As 14.740644684914855 15.998622068363593 15.016868406682892
As 8.659718988371866 9.517295994245275 12.73619293499873
As 13.80606261158557 11.660951113992375 13.699187323924859
As 12.570814982475252 13.602390324721688 12.846613291561127
As 8.153285698153653 11.17549241988963 11.011874709070648
As 12.483267610520148 15.00796699152269 14.899779202337216
As 10.293306780108304 12.14786976713193 15.841494962887403
As 10.498729036476515 11.041130287040215 11.963994599069963
As 9.941883151181095 12.917071825655293 13.495152536317327
As 12.202660206995224 16.241192757119894 9.051111407160201
As 12.614126892076497 17.50195720878369 11.119813625083527
As 10.693336338588852 18.07328987047441 9.69236998099259
As 10.69464498458543 15.968361935916807 10.971561154256552
