28
Energy = -126.24139831 eV
As 15.169710519060416 9.755354076606157 12.511420868198808
As 15.36656601399746 11.650948700635968 10.863858587596937
As 14.878754161148125 13.694052472002532 12.161880112767179
As 13.300190372249045 8.666012451303152 11.317004407031392
As 13.179442525988259 6.640221440463584 12.83038910528348
As 12.850569620279089 10.16311326055617 13.265804675136003
As 12.728672236124508 8.128438095066821 14.785339500986572
As 15.098191139012371 15.172102351826094 10.226171459239525
As 13.506036514450145 11.479742281723352 9.27103501983562
As 12.986460003490608 15.207490338078497 11.628372437091388
As 13.873866253592068 13.800171023157137 8.419846526762608
As 10.871063833503063 6.903845358719246 13.689315075598415
As 11.260965327869457 11.265215459691643 10.475432946047713
As 9.853708694705972 8.740752607521427 12.28795544389197
As 11.936139835437562 15.012997662833268 9.36935553035611
As 9.483980210002395 7.246432158485993 10.329625010925177
As 10.28168042052651 12.563364104105153 13.410073690912581
As 7.683891681420581 7.531024024027592 12.008390725480874
As 10.449774718651625 10.511450850655699 8.131943117714235
As 10.110412957847386 13.398140250381614 9.855463226923257
As 8.125370227779463 11.262018810723735 11.050493004336513
As 8.860652934036525 8.619113606311904 8.346188160132979
As 9.600823193891882 14.482088154003634 12.238554783896852
As 8.980241594606486 12.422538330133046 7.678273429401288
As 7.872877444132779 12.853144040346793 12.966574821814532
As 6.358154382223003 9.529866778186209 11.273429234108379
As 6.5584370119539415 9.483496528155962 8.77983314741617
As 6.9113295042806735 11.95482811655902 8.96593928337514
