20
Energy = -88.95054576 eV
As 9.781820624831123 10.730413557603523 6.773968197474232
As 11.821989450582716 9.558524858912406 5.896412103150085
As 8.470244977938878 9.11851840674901 5.345090375487094
As 10.46290214930646 7.479022174718999 5.589652195706118
As 13.174784776180768 9.231874400533925 7.951960171140867
As 9.14983545136001 9.098923324726883 8.588927360870443
As 6.191305245080502 10.673060830027225 7.6853613039161255
As 12.374308731504364 7.053753842227771 8.852712015249557
As 10.067631323691336 6.873199076423681 7.937874639408499
As 6.97207529196433 8.42473503712333 7.259012725633232
As 5.9110282018848 10.728866436123454 10.164113867767371
As 7.848821062302191 11.971133612272045 9.32890895490221
As 5.8726305405081956 8.692918178110784 11.715578069612187
As 11.329685286075307 10.020283040908712 9.581403985574797
As 7.180875142298313 9.679181457707946 13.537763607014414
As 9.910417589138753 11.802195935414888 10.799093333975462
As 9.291049213727764 8.057146094329832 11.157442155285707
As 11.836798990997375 8.14604385352167 11.123895944231448
As 9.527924352566188 10.093899355054651 12.532727573558468
As 7.584585935086518 7.327020864535153 12.938815757067712
