24
Energy = -107.51859348 eV
As 10.667678375695933 11.798087858117473 6.397409317411534
As 9.943794770577627 10.771779967940972 8.503995075858787
As 11.9579353202608 12.152477908427139 8.527767280052089
As 12.558047412554545 10.354464764154624 5.576759362247068
As 12.815707492373477 16.51184101862908 13.348432122909392
As 10.491356105551885 15.670879553684038 13.331860099214374
As 10.64283335841127 8.426327211698933 8.423678979625558
As 10.749658255763578 13.687085810107252 11.856586397273578
As 13.833514239785243 10.593834965205625 7.804313747076898
As 13.02692408631186 12.825861123920447 12.282528054464786
As 14.025744935429323 14.426233889907417 13.908579358904413
As 12.716446410891404 8.516946572189294 7.163361500893417
As 8.913582078307092 12.478740392713965 13.01789470189175
As 12.439707791965137 16.639834946276462 15.87613456238734
As 11.638079074580814 8.471272644936965 10.78653119469553
As 10.574223830476155 14.959939334738005 15.70395544668539
As 13.84931214081576 9.556582181642426 10.52983956686468
As 13.750654492941427 7.252748222995452 10.618210792310224
As 13.195835026527323 10.96609624686469 13.93303943717407
As 9.128534378171816 10.068142861274723 13.381479004940612
As 9.259592660099992 11.679201910098405 15.312053798840477
As 12.873233663599141 14.169570462178743 16.086647138240128
As 11.459668980777984 9.24642639689643 13.940254773510434
As 11.632803860906606 10.920492498177305 15.833557029303996
