21
Energy = -94.48912227 eV
As 9.464048118348586 14.990051938900725 14.114662930226924
As 8.31112589030314 15.312279109272282 11.92452160526209
As 11.160107113521883 13.188740150280426 13.717629462682044
As 7.268782963597994 13.968240733918895 13.721954866133697
As 11.391085079894378 13.528483875711053 11.296412758648817
As 9.760353670934286 11.14795226137833 13.777306956681743
As 9.051198354759327 13.32347169949704 10.522494543581512
As 12.655382615802173 11.404753665102684 11.25824028757616
As 7.990928408844975 11.87449177418333 12.216868889959192
As 11.306870145792267 9.681054790321086 12.512520323517336
As 7.555701785371647 9.644541799676333 10.886317049759208
As 9.578299692817206 8.311349140038852 11.31088960208807
As 12.955716753795736 10.924500659360431 8.834431075334377
As 15.288164198523312 8.921105620210684 11.215347444360777
As 15.365599779321213 10.595255533753983 9.373837157813643
As 7.762993600393174 10.724071749165255 8.732599909650249
As 9.344300434382724 9.598431015153121 7.511001923136857
As 13.977314616628815 7.288347504149655 9.88561474378957
As 16.08475061170778 8.229061557981337 8.986963935733238
As 10.257247246286461 7.86249656272901 8.971774228895208
As 12.547534026617928 8.558823966859888 8.306115412814448
