25
Energy = -113.99246788 eV
As 12.751032466460602 14.686323887487772 7.090012410341348
As 14.612836543287914 13.069106096446795 7.457582738190443
As 12.273412375431816 12.335289396955023 7.836215756072962
As 12.296631197215577 15.54572986765537 9.401004450188925
As 15.547013329159174 13.608182288212518 9.696542125005193
As 11.787430750794426 13.200917466644912 10.14163970561216
As 14.689765433409992 15.903521075062667 9.63482209988514
As 13.893303470687325 12.26001958544389 10.918038974987239
As 15.083745309438237 16.68810101891193 12.020689953593372
As 12.859216723496154 16.905293894328366 13.029238456551207
As 14.041208879976143 13.110119250475696 13.308616340138252
As 12.037796991658396 14.555955093703037 13.334782323151543
As 15.937684682692042 14.66668951804978 13.144551141371249
As 12.510884297446129 10.847690174347845 15.08398924922228
As 13.965773946932135 17.481195636450447 15.144698773545
As 11.078259559672656 12.38352717336632 16.363456925331928
As 12.067753476173232 8.949350780608654 16.68499261784769
As 11.685930120329008 14.740083445756545 15.791283766309745
As 15.717216415985273 15.764614835294532 15.395712709147718
As 14.793986206616742 11.129368610424928 15.99292599930355
As 14.391292837974143 9.220568714849268 17.596083490838172
As 13.936271693528733 15.007555126730356 16.919738790832167
As 12.266264569464813 12.438525698169595 18.52605146624368
As 12.421817583333025 9.993700220322404 18.904019296458408
As 14.595074134297189 12.750174139760713 17.82491343529185
