27
Energy = -120.72785002 eV
As 13.82831671235779 15.339901654661928 14.787521502435295
As 14.314477997957532 9.832563317778828 14.43643790300319
As 14.904580831358462 17.12394794115989 13.393650705717699
As 12.338107979411145 8.919089473551333 15.624452078399099
As 11.589953615051229 16.034657285945535 14.016921587394755
As 12.586459930551268 17.833549988851583 12.587374241433901
As 14.170926877159294 7.411643563099726 14.94469432690146
As 13.753527508894084 13.30958023719758 13.302384343350933
As 14.218118490552621 8.189236266775003 12.564993692240368
As 10.55469641901171 8.325888822842659 14.011807515604263
As 14.134184322013619 16.622314141372357 11.125078348230907
As 11.842398020256365 8.289452929950185 11.860295651156617
As 13.421320751901634 14.251383035291529 11.055290361696922
As 9.741495946234991 10.599449312003632 13.506262512762255
As 11.446971249185186 14.03017295817388 12.497398143639764
As 11.910230320447425 10.756475116632528 11.810041410776375
As 13.754590350595983 10.356716194011286 9.830383108111915
As 7.78398486079663 9.729431914498406 12.320281815982153
As 12.60741595673242 8.556744738543479 8.702828844812277
As 6.8851198928739965 11.989490708418836 11.803699722478969
As 10.195713879204636 11.097972106294941 9.98110340718411
As 8.433751714349249 9.385373637723747 9.897571788633194
As 13.205760207087636 11.99595753072316 8.007644260538923
As 8.643277274537773 13.007061961583767 10.398139079150083
As 12.23776230269129 10.046641592061235 6.739206434580082
As 6.97702669160456 11.410326841489821 9.369197323302815
As 10.745343596532978 11.780490428714339 7.650853589832696
