27
Energy = -120.12684652 eV
As 17.97025509168629 10.88575682908262 12.02978693920773
As 17.020501626304398 10.232146491672236 10.014020901168985
As 12.921267101622314 9.395812072383018 16.364255291729716
As 14.264360395405385 9.714588672166467 14.273665821569997
As 15.744419161240002 11.552324130819763 14.842666109727109
As 16.039628014797866 12.304706177377662 12.47808535191608
As 14.796036441925335 10.778270862612926 10.87679066680791
As 10.932108644597914 9.909134969843503 14.767362271895491
As 12.690349943872675 11.729585980397433 17.291555749685706
As 12.514515320620404 11.374551792622587 13.446204018940213
As 13.306761984276317 12.938949610683343 15.235176085214844
As 14.158604724048285 12.216524568763019 8.894352243535982
As 10.312246348366955 11.248300953794956 16.735934446607565
As 11.771280340924035 11.737314420781896 8.351486663210778
As 9.28914614996162 10.248174047974267 11.038293594525474
As 8.520207333004352 10.742088565933726 13.185685328781078
As 14.445384270554218 14.49349134362865 9.758832357868082
As 9.358515314582966 13.440046290456916 15.987087349210631
As 10.695406007872803 12.15375062398805 10.553548477849402
As 11.039852032645664 13.793734238764806 12.895485408027582
As 11.3917029922555 14.689606677754474 15.231014554154477
As 8.698919488402199 13.173595253097961 13.574040341309056
As 12.732062063881612 16.10909009030631 10.632453845475359
As 12.924602796749618 15.688073865879186 8.209467870225808
As 11.075190753649649 14.041300407311699 7.65001038488435
As 10.395457949386223 15.64794194301343 11.225215748366463
As 9.438512251067667 14.09380421587318 9.543768326367452
