20
Energy = -87.55392203 eV
As 10.79831085626968 12.787721120110275 7.144371558423481
As 9.173171215875001 13.822286765054029 8.636750435016808
As 11.27771522656784 15.115265123840091 7.774965671434032
As 9.706185056357599 6.189666192691575 9.615006403049128
As 11.51557126919211 11.648065391533798 9.303006017861446
As 9.643696425251393 9.984592163091149 8.860251037739282
As 7.9761607043527745 11.476054908310852 9.891118125309424
As 12.370574012041494 15.100790525945984 9.951955696215558
As 9.367871555375393 8.361463409948266 10.730378958361731
As 11.614604401059013 5.860524097372421 11.030194766055866
As 11.768548213115844 8.442126050471947 11.513566310176975
As 14.32288552901913 13.662664962047328 10.608509165014757
As 13.768788891412914 11.2406088139106 10.49020375391484
As 12.950081579441221 12.53045290054847 12.334903668988808
As 10.690367401621232 13.4203860526203 10.82321639830975
As 11.522242766072287 6.879697015566022 13.375385304091248
As 9.33822483520325 7.220088611075144 14.404489343323581
As 8.747315280359835 12.069166383657242 12.089828874710973
As 10.464959501484367 10.522056193873574 12.925591482410368
As 8.782135439416335 9.46573347781862 14.295717189080833
