27
Energy = -120.2129599 eV
As 16.595342751607 11.772120642332778 18.638885294483657
As 17.68615853950936 13.538548669085428 17.32736875276051
As 15.541187534037482 13.982007314859032 18.441229051001898
As 15.623466840123927 12.48482485974931 16.489722161500122
As 11.88791640393766 9.361094738616647 16.87833445401298
As 11.338300955024765 11.665215303095943 17.170153125768813
As 9.857086765855128 10.321213955952219 15.820728568423448
As 13.525367195417951 9.5063998280619 12.337092466477518
As 18.00068085653241 12.396760061273088 10.191976090336414
As 12.882115888395358 10.067719828235056 14.545340595641223
As 16.268112162679596 10.871994327248391 11.2409234899796
As 11.222276807711202 11.83730035042756 14.281896799001448
As 11.79486819119839 11.059740191409619 11.790490544415366
As 17.443779042956592 12.526050320718278 12.586215184721333
As 14.017739484625853 17.915724345010485 13.278801573332558
As 14.04256753315573 13.879182989305374 12.990155753243727
As 16.059626088944594 14.840193102880555 11.940563476810429
As 12.603778274858664 15.869437550662381 13.345736108012341
As 12.837598263622345 13.168291630724518 10.92801978206294
As 16.176008830602985 14.091788618748506 9.567709659076288
As 12.78544360189502 17.209403388171033 11.254397641212693
As 14.695115363555713 12.117014237224183 9.704225827988369
As 15.256456173330191 17.183682599704593 11.274839635506906
As 8.04810221951496 14.378985762150478 12.740164153453385
As 8.680545461944712 16.695574836331698 13.250662538540961
As 9.103687485236831 15.772029648976735 11.013532058142877
As 6.79839022571611 16.24330180612103 11.73110964732541
