24
Energy = -107.97807842 eV
As 16.21881173444976 11.875915737430287 10.765158000427405
As 16.930502328744176 12.590351265920477 13.079742701558983
As 15.121930312837002 9.21604199398846 13.355686325564148
As 15.56717589682104 11.237347496638485 14.62214120822017
As 14.442016966873682 10.214362872757848 11.187715760950196
As 14.370301184959818 13.66578288537498 10.728979562276292
As 15.603042953227197 14.679358747057094 12.658322697374983
As 13.899055416504837 14.65931710496892 14.446584511732329
As 13.28379909495605 12.281075527995648 14.174533968552089
As 12.388275134373114 15.76767779661877 12.797870942804035
As 12.769119791703039 12.019004378335062 11.753884629556659
As 12.493690316719407 16.17018421945537 8.130949257103271
As 13.101083767646651 8.842693195128591 16.568596108508515
As 10.557150648709875 17.509213124901166 8.837563958801567
As 11.984542398053883 7.158107952490428 15.173739614189477
As 10.690940691691795 16.671283492357126 6.531259749870599
As 12.62949403006713 9.379101004827351 14.208831582602322
As 10.292637851251985 15.108469814275374 8.392355454845385
As 11.065573846532681 12.350031021121966 15.65146625737527
As 10.601654232481845 8.712737486800004 16.561911748592706
As 10.107862509595995 16.02328459121185 13.75214424323902
As 10.032014682903023 10.390327195552004 14.774336181784063
As 10.519185323670133 14.299523497206511 12.00127025402767
As 9.506706930204613 13.629614270793676 14.179405337141368
