20
Energy = -88.30099051 eV
As 6.768233404877802 9.0418884149386 7.650460120781961
As 9.530136177386407 11.120657256164295 6.568809322469498
As 9.616919259595411 8.456003602825113 6.772811322048976
As 8.820688916481767 6.213163158254226 8.025839051406269
As 6.223261736532221 11.143753466251662 8.835541815311535
As 12.047240537893105 7.839225456975749 6.978786519052682
As 13.252169087146072 9.959664810358454 6.851968352551913
As 8.646048383342652 11.890427172472117 8.755375736452665
As 9.352427580686406 9.57108170508755 9.163102060089766
As 11.770373495169988 11.784169220453183 7.444387217754837
As 11.64553742425676 10.556923145010632 9.772902026835588
As 12.980901629346791 8.514643991363167 9.16489879407068
As 8.823768285560819 9.94543060097787 11.726529779543831
As 6.845316347067461 7.19870606074404 9.171534137694225
As 7.282307466748586 11.426315553432907 13.027159528859315
As 9.065987785357354 6.578543260966633 10.38822467623633
As 11.161100247021619 9.305382038397719 12.345889108305363
As 11.403423145304249 7.332585699718438 11.03550158777092
As 5.6486372343498195 10.759878297304478 11.29495224177221
As 6.75904706517936 9.00508229760838 12.668851810296218
