22
Energy = -98.04139817 eV
As 16.75740374783241 11.963172041326995 12.715598899177786
As 17.03104145936677 14.683940773153576 9.808230234815623
As 17.374380469636602 14.30653369418442 12.23701419492196
As 15.287635080427487 11.453790104115228 10.78136042037592
As 15.161617272517995 12.390655203632157 14.610042939098834
As 14.762806199847839 13.69552406295014 9.823020606705755
As 14.04690840515837 10.269451044463393 13.964181511229745
As 15.260550204347963 15.370899246053327 11.547526070606985
As 13.070402276241966 10.851186655632953 11.762549208386465
As 13.681591133920689 14.240916709814384 14.028326499216337
As 12.271849686850167 13.040935386187883 12.553103358791265
As 12.275376326836898 10.082640959968042 15.701677736665223
As 11.041337825867853 14.436701847962443 10.866817251577977
As 11.576370113105478 8.023394914342871 14.503416051699775
As 9.387533869698398 15.132522190081422 12.588395046760647
As 9.943193951402064 12.587352115942819 13.41514444061683
As 9.484261486353368 8.882002447765066 14.011991554552537
As 9.908528558878011 10.938000619132094 15.319301759395996
As 9.992874619036234 12.504027466262277 9.707987660328277
As 9.013687632019234 11.20201859251304 11.604257191654355
As 7.324681670362717 14.78350431004555 11.580973271235754
As 7.598498579062115 12.787299656292232 10.248778643905956
