25
Energy = -113.93958472 eV
As 16.78716117608499 14.150020921251839 7.7524727878792135
As 14.78187294345447 15.37261515220393 8.54611183460813
As 16.637913170824778 11.869868403233571 8.752003409998245
As 13.466374274494909 13.370687303034629 9.034057474968725
As 18.11664977319843 13.64621654243018 9.771177332490876
As 11.941541197071952 14.77688463170718 10.374604640939713
As 14.945806949952399 12.162921107296995 10.57558847193308
As 15.55916724727029 16.004556212314068 10.810568417847808
As 13.330788294771688 16.036725467774687 12.014239665524068
As 16.439382314837626 13.873500286327 11.617572201139582
As 10.800698450159903 13.155412385050285 11.819717753945351
As 9.972978816488563 14.945654709460962 13.276654963896767
As 13.945500768837931 14.464355334985306 13.874227167564994
As 12.376463832221274 12.552173126111319 13.712968793562041
As 10.316883335810363 13.243002520856828 15.003439909725508
As 12.997795567797047 15.991050107529794 15.622260393716562
As 15.4414689973337 13.299023314787028 16.82765633575203
As 11.007877363030829 14.894642885666702 16.682027618796717
As 13.478655616653215 11.893234333469977 17.463233458933903
As 14.765283599418469 15.586368893008586 17.36297554801066
As 11.846684688651507 13.417160182075529 18.478204327103583
As 16.50354271489704 12.926372308344394 19.06410304886628
As 13.286210076193367 15.215009402549114 19.306644974561227
As 14.537517102663717 11.46659932711908 19.69116401573312
As 14.78657521821339 13.756738631742156 20.637118942832974
