23
Energy = -101.80012318 eV
As 14.8509346729583 7.782152034082848 10.53110026210431
As 14.947652824466699 8.464050254058055 12.930990692701288
As 14.694512424714961 10.20524327894216 9.926543767686667
As 12.974891733438414 7.209467878344127 12.065650287606672
As 9.02811838008721 9.323828379384926 9.3176912691231
As 12.788592519736952 10.363631343594662 8.354768814486949
As 9.510008567175968 7.6641706900042585 10.818295876183155
As 13.730660054565895 10.553871142767886 12.193690841426939
As 11.15139068272665 10.381310618243132 10.039038955799787
As 14.723869237373952 12.751041302782797 12.77812314899746
As 11.244009308714867 8.994347954033069 12.118893155722384
As 13.606721210743373 13.663008482197077 10.781047803482839
As 13.044155485421802 13.30861120565235 14.636995475101836
As 11.293359920418858 12.715118101967201 11.126245302590563
As 10.85157564623016 12.667350926136136 13.637084779200864
As 13.604236933337154 15.618503912015852 14.069050069164643
As 12.96115954905983 15.925870462398024 11.651284389190577
As 11.201736093649952 14.620063005494906 16.69848215287315
As 9.826220412950804 14.221888175818732 9.978150564275689
As 10.4701591170142 16.017204109017534 11.47742180194307
As 12.005015415758008 16.700919179437864 15.671780535855309
As 9.417655462406257 14.646692764022877 13.250553195276536
As 9.651147144530904 15.933670512335533 15.399198201190384
