23
Energy = -103.03370137 eV
As 15.575958122186892 10.989884882961082 13.603206104860924
As 15.10064772389271 12.407888443980701 10.342443595065003
As 14.491680808925635 13.024010487316648 12.698428986033903
As 14.587201941182377 10.08848955510904 9.499726024553931
As 14.25824161909729 10.550556075231077 15.693552419642828
As 13.880341913759255 9.122910944225127 13.653814510157314
As 12.511664796582053 12.202093809517876 15.871623361033754
As 12.258648754851276 10.061743064283103 8.754373771286247
As 13.55927003889242 13.509481367869997 8.752832503762939
As 13.910003703325621 11.332795334834772 7.427085007099915
As 12.239556641127646 12.360035499789253 13.544398117566638
As 12.015088150316021 10.092964830243417 12.380470167862182
As 11.545943925884764 12.422123414714882 9.714785360922214
As 10.454806372360025 14.060969987106901 13.303112999085123
As 8.526049702851259 12.511920765935484 12.984520593609743
As 10.369140713601158 8.96554523540553 13.870007731860806
As 9.336380488904302 11.033717756545038 11.201897256469914
As 10.79149333170717 14.637890073836031 10.913937447723466
As 9.766563893060093 12.886395912793605 7.99946130048548
As 8.217727944928379 9.232150254394792 12.629194975410408
As 7.9056743827814895 12.057406842977942 9.434306939886543
As 8.712820496670755 10.642809951642473 14.646235218878731
As 8.648825799282893 14.436102247269197 9.643118141832657
