20
Energy = -73.56297452 eV
As 20.988247414498023 18.340224495820316 11.855737285334452
As 18.67989790676805 18.72425849768398 12.05563948655017
As 1.2568547119380091 17.862211783971176 12.332229394603575
As 16.433982113312013 19.026848363590044 12.633787658940333
As 3.1783201751643726 17.34523357066809 13.572842457909124
As 14.30156635940132 19.28895641022855 13.580060082736127
As 12.388284750504615 19.52724394968924 14.908165705988136
As 4.351631006410806 16.91506742956653 15.551103657488163
As 10.94783727906472 19.72600026643433 16.74627541855155
As 4.5907741561636906 16.70540675716554 17.871905042369914
As 3.8323533111555244 16.755849259742888 20.087933034743912
As 10.583382163855624 19.8651215343775 21.29960525020492
As 10.260731016421955 19.86194270905157 18.981265294557783
As 2.417612960860892 17.024027888699013 21.935686750765825
As 11.833247746806721 19.723647097539537 1.303892326690891
As 13.76206478620796 19.408154034442845 2.5924901549833113
As 0.5539391862409376 17.446096561223268 1.3261995857161402
As 16.001228647458785 18.972260832147274 3.1359831128447726
As 20.481605344135417 17.93869536240373 2.352038334812179
As 18.28009027980936 18.467671853511067 2.972420900641567
