22
Energy = -99.17622688 eV
As 7.27839730392752 10.546978502870084 11.14193564333652
As 10.33187841516606 8.64874298691686 11.131683613674047
As 9.036244955844495 9.72681837983832 12.691935303250354
As 8.489845747640194 10.809179692368772 8.982096834040545
As 7.465472062948984 12.768962555120266 12.160854837522619
As 6.9925676602660864 14.269688643741361 10.36080742467883
As 12.04475633693446 7.769669912467554 12.73067134460846
As 8.172078825365087 13.210183214617942 8.461434605655416
As 13.170649175691565 10.201431429048363 10.962007464175944
As 12.744903207186962 10.110312426617014 13.401483894523711
As 13.819486126535994 7.8180716825327785 10.918584700878995
As 10.310767885032995 12.395243951412844 9.468812364661673
As 9.417224338621844 15.200970520921846 11.29040354214584
As 15.345450446747464 11.389293460553871 10.757369545668166
As 10.044646489080032 12.839887372389942 11.91007233102614
As 11.688328347217752 16.247753826689785 10.717812327420974
As 15.720056532268599 7.877536059012881 12.462239864739486
As 14.98736338639043 9.52707296041298 14.1880023687898
As 17.03884466230291 9.67551298667795 11.30164370222554
As 16.287876089834487 11.345265266537226 13.036493604973357
As 10.841276358561625 16.486758375405064 13.011421636118296
As 12.258050884392249 14.620831031803778 12.398398283841447
