26
Energy = -114.49589875 eV
As 14.730662791737757 9.045903421387598 15.142223864131191
As 13.31641496007738 9.308061934695063 17.193883263378666
As 14.991582534133327 11.016162838101005 16.613913432658276
As 17.630462811715162 13.675148420732253 12.342591394609867
As 12.607263042590558 9.322807646374784 13.761807368667114
As 19.88036962651391 14.45351893558294 11.722634248611456
As 11.218031217274278 9.82127312460234 15.749778492732252
As 18.65165421685896 12.939014249137841 10.228836817686712
As 13.766994172516718 12.512320850388562 15.01951448575608
As 12.159140973026357 11.464669329850873 12.486641393713045
As 14.202939419422854 14.814282132208602 15.72131263645164
As 11.61296822790399 12.222544125036533 16.22135102792343
As 17.912862131403806 15.265874914714615 10.493090337985853
As 13.385930580696055 13.073196831473032 11.149913060444609
As 10.42262159034967 10.464588104109259 11.05868461058287
As 10.588815854886125 12.80121499044769 14.02584449208888
As 13.13466582974992 15.704535791445819 13.791863941194173
As 9.026425888910463 9.805154775753634 13.04287021000228
As 8.324818748322455 11.955322462073864 13.802782727255467
As 13.000723824667656 18.174480838773007 14.174991948258343
As 10.786237673517382 15.086528259327553 13.168109025529107
As 9.403371295778223 12.654983724169272 10.638561062398548
As 11.30416658827497 14.261809343475846 10.795526297763267
As 15.047444962633465 18.389101572982632 12.784970585042819
As 14.210306520235848 16.306283202544467 11.602002069192174
As 12.862028057202192 18.433516546496516 11.69334171769082
