22
Energy = -98.54275919 eV
As 11.368564879505909 14.594009746483438 7.588789535627751
As 9.623937912414707 13.003660229156514 10.364742267717684
As 11.016138148880513 12.270520780335278 8.4506306860344
As 12.49620734614037 15.365331928603698 9.682538170192274
As 8.077737350665284 9.836847091537127 10.392181596311149
As 11.040931564234715 14.628894340528872 11.55012779779458
As 9.10735091983061 11.322748686548206 12.11417761348761
As 13.273274461148127 13.305989335529425 8.558966678773178
As 10.012173422235664 8.721806989331009 9.334566673741659
As 9.104484317789957 7.837117796973601 11.476546252521137
As 12.5543627995447 12.971304266976361 12.602033159577518
As 12.350042943628091 9.375094144127333 9.947597829957697
As 13.259574220567705 15.589085523010159 14.969258821645518
As 13.519997411285479 11.387601592670311 10.987184942662319
As 14.612736252053267 14.209658793731679 13.502929280541746
As 10.305359037605886 9.366877624739093 13.142138157509867
As 12.659169309277813 13.633587169599789 16.248511238180033
As 11.463404129305966 11.921939845057732 14.534934967900888
As 12.319853170376517 8.321762233843073 12.178528416721555
As 14.81460776670262 12.684436671290298 15.459719736913211
As 14.300757665675663 9.778554211582852 12.765362641433915
As 13.49359758488941 10.586858703664618 14.956529813946831
