23
Energy = -102.60052354 eV
As 13.827759952093034 15.033231378592914 14.192304387357504
As 16.434034056207775 14.8069063497613 11.237806768354115
As 17.504997321494393 13.550842424553748 13.05808642907222
As 14.166411827215086 14.130396003158475 11.849552267996602
As 13.138351208560374 15.052749600093442 9.818470817832797
As 14.064956966070763 12.673890504204124 14.951033397901888
As 16.665538567147994 11.255632041202732 12.67796484652808
As 16.34034715492616 11.071358204944344 10.255699803861066
As 16.016044996667215 14.213416290140305 15.000380891219136
As 15.960799339340147 13.223644212538037 9.413018245284878
As 10.849753382099149 15.472488891043211 9.929832427734686
As 14.244186274006069 11.698960305231006 12.601166154411441
As 11.130715619178977 12.57997495304013 12.213333942471266
As 11.367107990432133 9.628824486273896 14.240097134070048
As 10.060155375245955 11.721498286715397 14.254628748145524
As 9.561524296050008 14.443970113972288 11.777814972566395
As 10.215637483258856 11.177033352755956 10.334326663244651
As 9.780189303715387 7.98728891794529 15.199118730989289
As 10.22626445484094 7.993706641948027 12.764087191909324
As 8.526595793274149 13.032792503814138 9.965279714064195
As 7.8098115568330515 11.046702691587846 13.51359981744949
As 7.887702817718197 10.887207248106082 11.045669422885165
As 7.966660022947986 8.574194797025998 13.614636200552829
