23
Energy = -102.99279126 eV
As 16.033630033095253 9.590972207397055 10.166772388462775
As 13.191165949127118 14.483330939567017 8.823870793303197
As 17.06159151093144 7.729719232105832 11.418680397840072
As 16.277797105734923 9.734028892631665 12.605190239335627
As 10.827818940842276 13.72651603006543 8.307434563777571
As 13.55200261783718 13.834196224634603 11.167460053675034
As 13.649779605523065 12.14958573801114 9.426127133038703
As 14.650442727353257 8.172927562020872 11.625477819968479
As 11.225220605656451 13.416405050647429 14.43589911275863
As 9.5822141004705 15.154918824402424 14.935245590311824
As 10.975030187109837 11.369099399666341 8.981001146157615
As 8.826988991806187 12.840327175880713 14.85398047559036
As 11.123988495883703 13.589981442263886 11.95405177310123
As 8.647124210611127 14.406447208881614 9.292006697925093
As 10.835536780811923 11.204561542649603 11.486830894218308
As 8.998546430519346 14.876379051210115 11.720307526855802
As 8.182226198786545 11.977700085607134 9.1135239530251
As 10.697187221974984 7.50271081820981 10.178086139802241
As 7.607195967857702 13.092481285591175 12.670183076146346
As 10.95894519771841 7.689002452796119 12.616018587573224
As 8.366779531963662 11.081154236463863 11.410300140438705
As 10.428317996851003 5.511305466573314 11.600617007739572
As 8.734473586703926 7.300253127892805 11.644938484124463
