22
Energy = -99.46267092 eV
As 11.413409989983146 16.63701614215344 7.703760005651737
As 13.271151522649497 15.88594670258087 9.160788374835487
As 13.116942375918628 13.4268405228981 9.069144299267162
As 15.676948207894178 13.957185845553685 12.204438231330242
As 11.18152683742328 16.66683577870686 10.206786477196994
As 13.395347311965278 13.089242374259031 11.52214884965699
As 9.72946814700411 15.217751747224447 8.82690771919776
As 10.696814737638437 12.960304658509703 9.098560493534805
As 11.707587770836767 14.27578789662128 12.761350294772761
As 14.655362275097136 15.903900316379284 13.286225068547674
As 15.251432639284229 14.125912389664427 14.625729379739925
As 10.725918466411082 11.371695915936877 14.585887377219752
As 10.023066973290884 13.072915274845657 11.517945257418075
As 13.139521112083637 11.864253139038881 15.024595062025037
As 10.605702029794292 10.693216576516614 12.203806827667073
As 12.978243740075698 10.597342810806104 11.480581751154746
As 13.609845847507803 10.599700755493819 17.163601009354213
As 14.208452901201523 10.175921322913542 13.58666165459675
As 10.772490831795965 8.97401257270682 15.0979166401314
As 11.688530485855637 9.08700935610521 17.430711485041723
As 12.968704163812317 8.162254072249423 14.211959802082088
As 13.884236823053582 8.21132430649921 16.553044222758842
