29
Energy = -130.01014379 eV
As 13.519880322515553 7.557979567683302 5.229686969774681
As 13.666994378064661 9.951757755463655 5.865666875000891
As 11.467457208704069 8.823921008704346 5.776337544854237
As 14.361561785826824 10.002194539455141 8.248790931829681
As 12.189371822191223 6.958148136596791 7.231858552168013
As 13.39217594821193 7.957777184586678 9.168912803885474
As 12.089869926716544 10.06299116004929 9.241650478217236
As 14.551942888825712 8.642465576930853 12.629222524251793
As 12.768977742524783 10.781800780258266 11.59877041667548
As 14.346257822377867 9.382248649099523 14.953515614225598
As 13.868266178183465 16.377562541793342 15.605077296611414
As 10.983893464341081 9.362439270638596 12.62067730039813
As 14.978512610821115 15.042879637279405 13.793062583290736
As 12.29604099215417 14.517140252324271 15.039115744674637
As 12.599644891696444 7.927570110551495 13.931301348117588
As 11.874925177498907 18.505136177753865 12.480183648031835
As 11.509307300775253 12.998662144487803 11.428144245917666
As 11.332293981741538 16.204638368884773 11.643430913945416
As 13.294215303278381 14.713743011503007 11.851102768420372
As 12.865887673259872 18.462727960355977 14.727617975183128
As 14.439769069345532 13.3783242334165 15.604014710017802
As 13.243798815079531 11.560975569778485 14.407635134361119
As 10.410020917577974 18.267847288900946 14.545240916686836
As 9.464920315355592 12.619629794658547 12.90723496754721
As 9.58649911448576 16.18180253428923 13.443597381198328
As 10.631264742111792 13.600211769572992 16.667498628274373
As 9.770216975981663 10.66679263575256 14.367296168251741
As 9.013312998881599 14.144369157863952 14.806792157279904
As 11.427910293142002 11.291453843037779 16.131754062580914
