27
Energy = -120.75715316 eV
As 14.765807388841013 10.250743480950208 9.275712876200846
As 13.042560754702551 9.49412552660788 7.642408581410072
As 14.021798451964676 11.780893477125208 7.463066176528499
As 14.092627110412282 10.53263423516979 13.081335916326584
As 14.336151573488362 13.381938127827206 10.643408130573917
As 13.142352778448265 11.26434058082202 10.92658353473109
As 12.391327681117225 7.623572400662691 10.49663952733233
As 12.026599766626475 10.09733004167454 14.437365573020312
As 11.09184845009944 9.565155939290726 9.263670367583217
As 12.962699174357304 13.78142009491195 8.58778458623553
As 10.541942564984291 7.157883947836135 8.857606266856445
As 14.010300598280374 12.759378133328685 14.312799563475743
As 11.523265213522208 12.494274628571725 14.92836995503427
As 10.521915009662285 13.481892785662277 9.184041408008216
As 13.361686772151625 14.517255761851214 12.624598382932891
As 9.701180002027405 11.552824853520878 7.910998927754865
As 10.059651400735422 8.78621837420762 13.619336450230994
As 10.978419641371646 6.787490734690782 12.37902555471373
As 10.934471309726474 13.999480633808748 12.993999837040958
As 9.09430038050281 9.469346739592 11.410740370895237
As 8.983824494350193 6.976366705111862 10.868134562889486
As 10.173033811508654 12.284687394128344 11.365248870882807
As 7.4809943950206375 12.209245701770902 8.806212421240796
As 7.924153276042274 13.40987302681559 10.943945184846958
As 6.682907319144065 9.604694323353648 11.987847257592573
As 6.0577960960015504 11.977143971072007 11.897679980385268
As 5.859956277292464 10.523360072016569 9.8550114276585
