26
Energy = -116.15340424 eV
As 10.773561448540388 8.444689902077732 7.443098812462069
As 9.549278000079003 6.500958469772229 8.276952559634427
As 12.530305297970575 7.445685745995602 8.778203232973272
As 14.500517754865072 8.95079482223879 8.29808501651114
As 15.348908652679906 9.797817297539146 10.46725725082213
As 8.26313362268682 8.072512070041782 9.605708284642738
As 11.558011854183864 8.721241922636494 10.745953140149469
As 14.087935073217762 11.279716548469018 8.941711994443425
As 9.789607635723666 10.025657659336446 9.624192371158413
As 13.130581474357745 10.602744789476896 11.275354620805382
As 7.128665128230031 14.160318074008153 8.90341612586539
As 6.726284735444047 12.023409585916202 10.04745734913243
As 14.63330088336765 13.57242741850697 12.139610126579516
As 12.163907617647665 13.813522379035108 11.995752418061725
As 14.819471951770598 15.942512281537 12.976956703557315
As 8.181391799976813 7.791089674411764 12.13570712854869
As 5.823025293639231 14.108197421126594 10.98832027216046
As 8.24393259607581 13.686058641051567 11.03953464069481
As 10.416862406352339 8.30665113208544 13.006129866462357
As 14.928126293082995 12.405483693121052 14.285709470149127
As 8.9510363513144 10.118316097141063 12.325933457950285
As 13.011973826811106 10.802488013161726 14.02696524230023
As 12.322953511105869 16.183965214556203 12.854767842334834
As 11.416140728959101 12.73486875656399 14.080249319147962
As 13.450748202146057 15.92307485851706 15.030128527643935
As 13.179619806500687 13.515079478405482 15.636126172537825
