27
Energy = -119.98765954 eV
As 15.296250233485935 11.233595845410896 17.11408986153439
As 15.980806596305097 11.811030245425874 13.868686629725877
As 16.307327895313975 13.258702312635474 15.852137868931559
As 16.511770020018723 13.067626083976766 10.413738296456149
As 14.425644526992187 11.707473123494182 10.670259902532528
As 14.020674162426397 7.815381754543717 17.793859653898014
As 14.931920226830487 13.460263609529205 12.342999364539773
As 14.228717208063838 13.121163483039341 18.335639744648937
As 13.179621529297677 7.900045194822325 15.640688603015859
As 16.081758080494108 15.04160818086839 9.03229170265494
As 13.93089282626533 10.870517553785396 15.064921246330876
As 13.530840755095117 16.340250465621775 11.482816398396482
As 14.087326118351553 14.44523644636887 16.241696322954713
As 12.277595514553203 10.41949352119681 17.495418096309724
As 12.578011693997173 12.976707188453714 14.951474140790964
As 13.67005964739133 15.201840208295279 9.284601202260438
As 11.580029130257103 7.977242783880757 17.52831936029219
As 13.060786814787141 12.8563953285289 8.953253019543812
As 10.8651322721411 12.312081807167889 16.60698461096945
As 11.879973728478603 12.49300748095551 18.860994408819167
As 12.075631220479858 16.239330590178003 7.61726504047484
As 11.86476304637621 18.3889512086122 8.595660449321093
As 10.653763336809522 12.77143834328147 9.513855315797269
As 9.708269214402785 14.717036674562994 10.721860774727853
As 11.136066491700246 16.165238057836984 12.137533000366668
As 10.025360368639124 14.859405966884959 8.276659358494358
As 11.948728533934265 18.22683239311249 11.005431180498615
