23
Energy = -102.4331785 eV
As 8.917033643506603 9.759748136827191 15.450601165133621
As 6.977446014631697 8.521940386704523 14.363048941977954
As 7.06782491865403 9.37219051390739 6.5171812279093855
As 8.141045896909992 11.787105397449192 14.196789165410674
As 10.236878422679904 7.290199220289004 7.083921710879001
As 8.678289066671901 11.847045955239874 7.786093546809145
As 7.908960726693499 7.422501766344841 7.437876839100407
As 11.366485158829178 13.593003845263487 9.86688788874442
As 11.815689398668844 10.644411204591206 8.228900026926064
As 10.262929941194765 9.12637345459672 13.411233096646505
As 8.954660418567338 10.617810589015274 5.612182956081082
As 12.405633669458716 8.314802547421872 10.986938533179583
As 10.975601212870966 9.288990884011186 6.002675514664077
As 10.862065545650642 13.016807144978223 7.4798576254843665
As 6.7035994750217505 10.371569641328271 12.688034799252822
As 13.12968218931736 8.437708526423483 8.641768058539588
As 8.181633229231142 8.49265473312521 12.158185068336739
As 13.331171682004003 12.084247113169361 9.619939583080406
As 14.776832759917356 8.817722692177016 10.481468103003497
As 9.534058734559258 12.23116338924123 10.880748825290095
As 13.415249061589702 10.599657383023953 11.56837639727864
As 10.385903947136812 11.587710231925865 13.138237267865803
As 9.64964748148789 10.211121881280645 9.4610781108692
