26
Energy = -117.02283444 eV
As 12.319402760194441 6.485281061658829 14.115242332430787
As 13.622625317145772 8.375833947475838 14.06647248052462
As 9.997027325476813 7.173886087859029 14.29924973206639
As 12.113427803721615 10.339772609815642 14.144878615637174
As 10.037134195022242 9.453366944674007 15.165572772370155
As 15.360004688875728 10.8434170972389 10.278264165096054
As 12.012777732764814 9.43689436812044 11.822684789228164
As 16.098043187652955 9.862283812236656 8.145482751628151
As 9.833483935806468 8.269465044500421 11.901381903086572
As 14.450911269532055 14.906331884548312 14.156850891184805
As 16.67589843771619 12.18813751382739 8.691486766463475
As 12.608017567687728 16.503115651894657 14.82033523872245
As 8.322045748996228 9.689163216495588 13.286782986300128
As 14.536189158474919 17.278743736462012 13.493416381478577
As 14.348648997730322 11.593372589196713 8.168216766157014
As 13.516147584464331 13.644873833781485 12.236833742293038
As 11.058878381960861 11.170794469011872 10.198597824017652
As 9.108940782209803 9.789272568017925 9.535783830485888
As 11.264690975291794 13.601991042356612 13.253468570287627
As 13.830679420579918 17.459636714362194 11.120178357293858
As 7.991865401251767 11.97995671478566 12.449714080789166
As 7.178362991471494 10.606514213089321 10.578373804391465
As 9.859510797793197 13.037446191594027 11.256199074954015
As 13.282624757654267 15.188395720579965 10.30325772053234
As 10.777344140340553 16.030467211615566 13.224456970114613
As 11.46511477049942 16.76138388511646 10.956615582781858
