27
Energy = -120.3115941 eV
As 18.343235870259306 15.984322700889765 16.939754265251363
As 17.019893273838026 13.926093748329277 16.461522427841523
As 17.28447378054161 14.771764049826169 18.79463963914123
As 14.778099384999393 16.606314336009365 14.094047307546615
As 16.213399511634993 16.841451257876034 17.926080965751957
As 14.977129716643148 15.39223511869775 16.290846571777564
As 14.752485000695689 15.267843497659097 10.943976685290705
As 12.886670922672725 17.840885847683804 15.05294573622873
As 11.158762421986339 17.555659736561882 13.218436485819955
As 11.521922574270107 16.193298917906002 16.353628019712648
As 13.826921493213108 14.565570660471744 13.098238174400194
As 13.45081500032191 13.641195973684495 9.656937446828135
As 12.947739200224206 14.334010236842412 16.921022285061863
As 14.46912535957137 13.871681685374806 7.4411204245754545
As 11.50595636620625 15.258944900324082 12.404516875039189
As 10.055726216970836 15.585088190726717 14.344292990333555
As 14.871390642748185 11.559423887764433 9.83385198018868
As 14.866818612008542 11.587432413212367 7.396455908905057
As 13.457798978918747 9.610096799105547 12.75698800139923
As 13.541333129802222 9.48922062694643 10.226487980469141
As 11.829448418562425 11.404535445921685 12.26758506504126
As 11.942178928305905 7.687620051122188 12.876195098520872
As 11.157208546102812 10.315544740115365 10.148489081109101
As 9.940344130394172 10.922960391749138 13.801415593794426
As 10.318287674012698 8.600001269901737 14.557231156687125
As 10.32385272236258 8.183380020213813 11.029857486919555
As 8.68777498041389 9.095594944727829 12.697872958521836
