27
Energy = -121.02326256 eV
As 9.110571440618864 7.630064193339867 8.000060292463505
As 7.504706488673049 6.751550339661383 9.675243407896376
As 15.09573099462997 12.641101605665042 7.046133183020875
As 9.928405515568095 6.293862448706921 9.936787080382093
As 15.066031665119747 11.41947368294719 9.204938011382719
As 15.658912792624468 13.837410369375132 9.142705012140826
As 7.8247432229245355 9.198027303578735 9.440822015402555
As 12.760403723117674 13.204040948912542 6.448393517446419
As 10.920229621898182 7.9759974592203395 11.469192798358126
As 12.718821198021676 11.367974660656165 9.987646291284985
As 11.27889888646425 12.304100606025372 8.20956136281624
As 11.87564953617793 14.757836968155797 8.155794809360192
As 13.619507996656129 15.019699524910921 9.8886587080613
As 9.487504477098677 9.930079286232921 11.130979445446728
As 12.503894862274922 13.40865557768651 11.414982457937052
As 8.672405134374381 13.929984179775529 11.428306260486405
As 8.976374342041126 8.327660723929894 12.984383548449305
As 6.350876577561909 14.457873423607099 12.087992478133037
As 11.41292271488388 11.079356351975049 13.447658515410044
As 14.271226180028265 13.313186522944424 13.10834659189085
As 7.7841765305306225 13.113698737344748 13.5769162233172
As 13.498771987675967 9.77264275027021 13.187372336811077
As 9.946415999694288 9.710930698778167 14.881471557311759
As 13.40112086026679 11.737496337108919 14.7848257892675
As 8.241237912625643 15.513559072704075 13.265188903741588
As 13.38730571700374 7.9875803942433805 14.870962639263174
As 11.343822489593263 7.956824700390948 15.865345630665969
