26
Energy = -114.56030862 eV
As 14.034307658361037 11.815029230426495 10.122657378264899
As 16.98127948692083 12.57130557437159 12.813158650478485
As 13.874181158689492 14.06105916801991 11.070007824972736
As 15.12294561435183 9.363905751228698 12.479533805378923
As 13.487612700433713 12.259590108602668 18.88322888275229
As 11.626968498320643 14.04793884946172 12.169387727742007
As 18.58109935960281 16.051045990031145 12.852486337672174
As 9.322832984578191 11.070156258099008 13.016870413872008
As 9.436354358781125 9.073468406322618 11.567742284728036
As 15.106605444253484 14.086935053301277 13.253464922313809
As 17.47292899994962 15.956899215349603 10.646130549652911
As 13.196079161740723 10.468279179700929 17.782422049030917
As 16.243924447697555 10.9934257261849 11.02609429650083
As 12.713345559924553 15.95038823913631 16.92200359489338
As 10.919857078513667 17.431797906840426 17.720545154859586
As 18.604020265115093 13.949784937936572 11.55568481171608
As 16.11286656469006 16.288025774703097 12.694732367240194
As 11.580786044195934 8.5320742286922 11.077358600108216
As 11.584115592227782 11.917228577178829 13.386811777882903
As 9.085104598286119 12.43772429592691 9.019151679510724
As 10.596618081243113 16.08399506358676 15.685968686618875
As 13.044096976923644 10.366796256533597 11.897992059875385
As 10.666155705937818 14.992319088899247 17.888034883043783
As 10.47411549110717 14.270568112060616 9.979840866990575
As 8.021720012169984 14.226905477581067 10.349845787608697
As 7.887950297711668 11.849376627647857 11.109699449511663
