26
Energy = -116.17256271 eV
As 10.688011892424056 15.783298145290852 12.42695406304354
As 9.14793992057285 15.350121479246333 10.500742027758442
As 8.907875487829008 14.8844591882916 13.985595306113245
As 14.378071262054105 15.152161689235335 10.753096291523166
As 10.323585485838487 13.588720071055723 9.232280536358719
As 13.64481002876408 13.358154506221467 9.226747943582057
As 12.424017828776934 13.984053403078045 12.418626664749164
As 9.48800680749299 12.554669067121544 14.531970041661523
As 7.311308507584915 14.641813988877493 12.078727561048511
As 11.91976025272255 12.889205265979959 14.673960725722731
As 8.762360800204121 11.717274910572442 8.766524949747453
As 11.789887681720737 12.288959903816048 10.765593866161938
As 15.70519137452319 13.221283202413797 10.536374371017052
As 6.639908258697545 12.268677985295831 12.341348704398607
As 17.04558299816697 9.34215646546126 10.523191268188045
As 14.478466443774154 11.560377522117738 12.39923036015253
As 6.729649975022231 11.217871837943953 10.053945431702829
As 17.836358156910148 9.735519950509087 12.833495590461826
As 12.594709190174763 10.640221827405206 13.941083996639712
As 8.570191134258673 10.872278534365961 12.958502014905156
As 16.542619328084744 11.658687463500884 13.74125387096003
As 14.648037070153169 9.428292480948263 11.142941012857552
As 8.910511916686081 10.057314952669968 10.58382045296264
As 16.190554686519246 7.932836652803218 12.374436306447768
As 13.840388261106893 10.010404856927858 15.976552687706878
As 16.062531010319663 10.441520409231916 15.813339714510326
