23
Energy = -102.19917807 eV
As 17.349570298686185 11.354535468194207 13.097040505736153
As 16.515625766558138 10.24132889870437 11.055670975671456
As 15.127065930471744 11.610977702893377 9.521371981521664
As 15.147527924552445 12.176533100245953 13.730585532212647
As 15.245871188433393 8.93466614927716 12.735081663201248
As 14.972222089377674 13.695783857050278 15.667676043364192
As 14.87121605988547 14.136946580587859 12.232283717386693
As 13.125459014211273 10.126897176465913 13.23557665144703
As 13.416581697499668 13.24605626790556 10.444361472102173
As 12.883983391845968 10.41437573612678 9.274664603974982
As 13.457655539736843 14.776850762030733 14.160336076795966
As 13.390711424149726 17.260269786358602 14.448011104531355
As 14.038404925313788 7.060254857115011 11.563372093867008
As 12.016127912189383 11.342285677708906 11.365820922248542
As 12.539599943054709 8.01936802964677 9.852703672159304
As 11.86588835526736 8.051471567140611 12.233134407452619
As 11.043229754632252 14.052921421685408 14.015129108899716
As 11.269264563459693 17.859664645338807 13.319221392200516
As 11.296433422642702 17.525117924744606 15.743654353572449
As 10.360418773332443 15.711698133060679 12.363684504648008
As 10.438389703215579 15.18576362122378 16.094166300612574
As 8.083936290851737 16.169547897976386 13.226396540490159
As 8.133003235514044 15.845436769270826 15.483030962856942
