28
Energy = -123.93021053 eV
As 7.805693364431813 11.34214300650022 14.799531757120207
As 17.16495491054859 12.135418098541376 18.804770741963523
As 13.538118807426772 19.179366918536207 10.11982883806809
As 17.77620676014618 10.23541761951249 13.314532764952737
As 15.361776377546777 13.157124254446014 13.789051596044631
As 8.001267692209122 13.459114786629248 13.455125315855142
As 12.605685059810448 18.28169533283235 12.19608184507165
As 10.067173286430915 13.877233472580313 10.381711173872093
As 9.580432381583988 14.0499313453985 15.310539302392133
As 17.235956515380728 11.057349620687761 16.610738207541342
As 8.205149733195153 10.490178730262729 11.191774136580444
As 14.620623894062021 17.199169530132977 11.190592691264222
As 13.241624250133986 15.676416646179376 9.725141784834033
As 7.671106271632926 9.48423917127956 13.187328961621645
As 15.461560826453846 9.331103616815755 13.376336119892857
As 11.614502494486832 17.579347892318783 10.00981154559197
As 14.756891659985916 10.773076321106911 16.671491589376906
As 16.34327130830406 10.37385666037095 11.30815427065521
As 15.654610917623568 13.014897393419027 17.21381185246936
As 13.148453633299944 12.093573415776081 11.182065462521042
As 9.914997006120068 11.857994036502834 15.95884722764746
As 15.565665921756692 12.742167431274078 11.357508673963217
As 12.20758468330422 14.343333811173515 11.550072115762493
As 17.618165996995007 12.459637828089058 14.384485546985767
As 10.676503838944555 12.370354940734915 8.489599187963194
As 9.70398125945645 12.170486685872676 12.199525827404662
As 12.804584862501203 11.633748624485403 8.79303052762718
As 14.037321770904022 11.121906204187571 14.306103360680387
