29
Energy = -129.65719197 eV
As 18.831219782965725 14.644624575940705 12.559076839344407
As 16.575312855602803 15.718401589505488 12.424970614467814
As 17.340394764367453 14.25359180583457 10.58014058693205
As 17.822296774445615 12.617378582563633 13.753255641858468
As 17.18422963142317 11.949811432264958 11.469187838925754
As 15.950270335806605 14.175308099804619 14.255820284496437
As 13.628931957046028 14.611759536874013 9.917054739908776
As 10.288605637863851 16.00822617483012 8.672682824508593
As 12.115680205607429 14.310114497511037 7.965755231820895
As 13.915348187628528 13.306504226205778 13.144256312081842
As 10.78028320123259 15.880921005272826 11.110600756505814
As 14.783749644592197 11.417517112076371 11.734461317830425
As 14.329280485630017 12.28275660420664 9.382776174429104
As 11.081695980745767 12.575855128705047 15.534999109912178
As 13.26635433425833 11.964725028387548 15.149220547317428
As 11.959960022657384 12.79885103376936 9.944027424004773
As 9.121940871745524 14.337769478605223 10.11053341288235
As 10.672504520888054 13.801717088162452 13.428991739465332
As 8.35592681090798 16.188032414960894 11.581873736188628
As 8.508827382620625 15.03098806375285 13.896729390461713
As 11.354165255829617 9.06298037138185 12.152325765034803
As 9.22640613767374 11.999277688578507 12.408506200348766
As 12.297939607241807 7.320855106159471 13.648186520214256
As 9.683202479689449 9.920155593589255 13.76381031431257
As 7.294705610124333 12.91729840345743 13.610987636539292
As 9.009305534697898 8.408466468533554 11.903131577050667
As 10.463548755657712 6.599462451178549 15.146809399692186
As 11.037865068004653 5.24255291844014 13.161696285356339
As 8.831579441843784 6.365628798245596 13.299663056907706
