27
Energy = -119.75428101 eV
As 15.764058667441375 10.074762517622059 10.172991160144843
As 12.71861250136335 7.395381907664236 13.824597866162057
As 17.960140923053817 11.199060372124569 10.028001098541228
As 14.07819661441336 9.40208671211656 14.41490507818175
As 16.39742073472571 11.28150351941076 8.100722754894061
As 12.879252097095193 8.05492509094062 16.170076784801548
As 16.25543940557906 12.001484205656428 11.64994192320098
As 11.807751303159236 11.606393027553555 11.986447155311115
As 11.957222321145279 10.756164063945475 14.340957316965108
As 10.792802377226588 8.578234777999102 14.88936426164639
As 15.32915838378305 13.513217127514842 8.19226764213724
As 13.34055387488379 12.701886120644478 9.504926755606773
As 15.169315133087728 13.969566280969744 10.589502336509153
As 12.703429212068444 12.851852835335698 15.813131487242353
As 13.467642160500407 13.841108241854709 13.818265383844599
As 9.467473079434626 12.369856645827676 14.356423595628911
As 9.592391931298888 10.544202476715954 11.40167804285362
As 11.877020123448567 14.660591699044192 9.044274707283568
As 9.942690993984524 13.483454625450156 7.975995260325558
As 11.10721611730895 13.89938736030678 13.032430729930645
As 7.8697346114138576 11.656911126763111 12.774205768338527
As 8.749221558475867 11.92958567954373 9.468518988575381
As 10.951743201646913 14.538455186532575 16.71881744386714
As 8.64621466714886 14.187257139921448 15.863201755311838
As 10.536234115940005 15.306033865060613 11.038257733003018
As 10.19659320127199 15.782299138543758 14.798811911522174
As 8.488129845041577 14.321007294930514 9.899297635276339
