24
Energy = -107.53065192 eV
As 10.981755691260162 14.671391023906681 18.758317432845857
As 15.535809729612833 14.962172058566546 14.049320977995983
As 16.94523996874548 17.010585254002677 13.331605183631794
As 16.738953830974015 14.548299707841268 17.814629373290952
As 13.242984598936234 12.127431464589169 7.598543435893282
As 15.52166307310109 12.006238822213207 12.024935873261667
As 14.949891683328751 18.431946492551802 13.675957969551163
As 13.73059806099103 11.068859033211565 13.451215137648363
As 11.550556029794881 13.874192981945447 7.952431796738082
As 17.34064995924375 11.020164762447788 13.391039001193313
As 13.544069280010094 13.65283297320121 15.937871003117172
As 14.609631302733652 16.74689882336694 15.546073427718675
As 12.42763745086941 13.453403904783613 5.696108786801871
As 15.503258568820756 9.5855566310942 12.552626294456465
As 14.36944366890544 11.300845506037204 15.83033970650343
As 9.904169060372801 14.777233962584807 15.6746316878638
As 14.451719557636109 14.539753112649011 18.025137856945634
As 17.323493349437904 13.990037679261238 15.490091462032149
As 10.952277954384625 11.80629147431689 6.767607163944609
As 10.588568916016131 16.603961910401953 17.232834722446558
As 16.623332215210144 18.220976989111726 15.461216215259054
As 8.699955087751729 15.160062058683346 17.829308663633704
As 16.818177427632797 11.568767437981796 15.747923300550678
As 11.277796311635766 13.044169694613279 16.8681550891949
