26
Energy = -116.42556762 eV
As 16.32238672174681 10.254253835212747 11.877320198848503
As 15.42997146901561 7.964618957518704 11.60511017893513
As 14.829935153264856 10.51605503563953 9.852772337775146
As 15.03658577131117 7.245748403261812 13.941768898294857
As 15.101021653283283 9.310758073022843 15.292861834875556
As 14.793934833964673 11.134172270779205 13.587040105335461
As 14.237520927150552 12.86279380609485 10.44794553161885
As 11.728565751153406 13.026473344126252 10.838560750777106
As 13.218198324910038 8.867354880874665 10.909080511673173
As 12.901703894803735 8.284482394906899 14.615135912753043
As 12.615865786995801 10.123451644086348 12.921862498056921
As 10.752400543016801 10.419234875449781 9.121802484334726
As 12.293142889174412 15.340260902631773 10.200357415912167
As 13.257516585795388 13.837609447537142 8.371360719282682
As 11.873110545430109 11.819817123818263 7.471296505928744
As 10.382642795489202 13.255138099232338 12.96038675602767
As 8.829495610418945 9.326124657443668 12.928703400357271
As 9.886518977628581 15.788817006886108 9.78755764273515
As 9.038147751476792 11.561742792431353 11.721281382627646
As 9.38395683559738 11.756893782228385 7.64727149286131
As 9.158315047268779 13.389233738343151 9.612415209974802
As 9.004829656888337 15.240688698977209 12.09323311454577
As 7.197718862797539 10.42348388054597 14.375537750121923
As 6.43532515199992 9.451429111637449 12.302494175967462
As 6.668171342794418 12.06041418599599 12.339817599918984
As 7.152658091775967 14.268590026471047 10.706666565611973
