26
Energy = -116.3130506 eV
As 12.738853951427409 8.533876264948757 12.796354317646871
As 13.681865235382542 10.843469579112057 12.488018296077039
As 16.04735308423854 10.123878034277617 12.16672031281975
As 11.042583858146958 9.27475288551203 14.44967096522793
As 11.863085323886985 9.184273035773868 10.560587041238168
As 14.371620918741211 11.35436083402859 14.871163481405805
As 7.674384788849193 9.640320209608753 13.999612895020705
As 9.733307009357661 10.974729587979848 13.225314563107597
As 13.915593964552565 13.768622332109482 15.14708681884335
As 9.688846029642988 14.985796239103959 11.542881042648151
As 9.669047542334221 9.911707464616063 10.784383188771255
As 10.106659475776363 15.114292824225483 9.094881924570473
As 10.604370831196597 13.02925421803485 14.541105451909148
As 12.902277861938323 16.666474756563083 10.794133456210734
As 11.539486496205182 16.08976206504689 12.762335775427582
As 12.559164231513876 14.713601954149977 9.288222296868122
As 10.946382992185187 13.134057939998156 10.3310760916676
As 12.45725358243689 13.797659176707356 13.06126745495706
As 12.31124118929166 12.111837526052504 16.111033033967107
As 9.17553827852943 7.651569962480028 14.171456641517057
As 17.013866337046803 11.836006170911867 11.009039745915699
As 15.175506255482981 16.88179356577914 11.840911177840391
As 8.178117667091986 8.279520096344894 12.000279839791727
As 16.80305956509487 15.51029803533521 10.578093454900081
As 15.241564210732024 13.599031570473175 10.964460197147076
As 16.196619648016803 14.8479880952892 12.88049811511871
