29
Energy = -128.98959761 eV
As 16.04815428931293 15.418168903319684 18.13537876289229
As 13.581703296630863 11.468612654492473 13.075548385013223
As 16.866646854581717 15.340859201938787 14.368176944031344
As 11.55571461954289 12.506706643540037 10.234778375671796
As 17.535326403738544 13.690916450743673 17.149689517613528
As 15.769929443797793 9.253960967704906 14.994331468048937
As 11.95850049990541 14.665169432038294 18.457389788202203
As 11.948197622813941 16.290807679580503 10.290200870997397
As 15.82570325245767 15.629659374120463 12.137735283473848
As 11.573232139934447 16.311008180080268 16.923481908371432
As 11.610859130455342 14.912683404745556 7.07385725251181
As 11.674078617447211 14.406205305114748 11.848372377962033
As 14.071186650859895 10.47826731431159 16.316999728115846
As 13.556892793472773 15.3424278944878 8.641159867281718
As 14.840351630022106 12.388340752330931 19.824383856520342
As 13.55711231726021 17.53551920866351 16.08381510152447
As 14.028154113619564 12.742057579494885 15.275553606595189
As 15.333802146375838 10.34981551713013 18.461377707922058
As 15.462479862976922 9.956345593072909 12.827210926544485
As 14.063491566261478 13.598790862602373 11.77889658920967
As 13.800297456044431 13.00312531503812 9.335071689058681
As 15.940812399533181 16.87588207413033 16.11350703400242
As 14.186245989535463 13.805330533957173 17.89146674589904
As 9.948261952596248 15.77167486609798 8.721652127687193
As 16.50345800615723 12.98144047127871 14.990470401399502
As 10.146444305786035 13.369714950827206 8.343448896212847
As 17.145858269541662 11.978409136983432 18.942102040029827
As 14.232317828079182 17.39775686191517 12.00091719561727
As 12.828878904573365 18.00430201549255 13.82377660835861
