27
Energy = -121.23969472 eV
As 15.746128587759388 15.172046293071165 14.130810320015863
As 17.965024872632398 14.497980712066873 14.961107576081368
As 16.831498428303007 13.163502935155854 13.23113149052593
As 15.974130866694557 13.16988590143865 15.5323807244946
As 13.331609882324306 12.393716284471655 7.231992234831115
As 9.655097770397354 13.799644864658516 8.335192357888465
As 8.854114590466947 13.419358318622697 12.159396949855635
As 13.606823682937092 13.9947952736738 9.103359175449922
As 11.996366045295714 10.403588372978666 7.997534445029938
As 10.469587412771155 14.023675919013163 13.942697172706596
As 8.863429647458403 10.279981102461276 14.429583692544057
As 11.883398375955071 14.406196521310694 7.343286265345948
As 12.790708937834188 13.447975745684108 13.084929398358165
As 13.03823495723513 9.958091644257545 10.216109025282188
As 11.742860597350676 7.423560165087514 13.22745130611815
As 12.13598800433888 12.777477131082437 10.746160021843492
As 12.04142210428199 11.073737509713364 13.490589446948881
As 12.785989730437434 8.972316133222495 14.821610188827963
As 10.402771666724169 8.34401853125706 15.088642405788429
As 11.036383212423214 8.9589202460446 11.13361678819429
As 10.58056113991173 11.863595951602692 15.303341773450523
As 9.586571166173576 10.89995314735466 12.061184730267037
As 10.083449999993094 11.495904036991623 9.123469539664454
As 10.348275035045278 14.588826773100447 10.62827553034011
As 8.988223826479896 8.090662767694246 9.710128744029921
As 8.122376954544807 10.059749709147638 8.496894399732104
As 7.530589923028676 9.712455427635694 10.860741715182993
