23
Energy = -102.93598304 eV
As 12.014576472675346 15.527038908705038 15.244132118616754
As 13.431531186511219 13.433722955046104 15.154250249324585
As 13.861929628108589 13.87153415950471 12.596863179817904
As 10.606747839940699 15.334642110483243 13.200069553197721
As 13.907822568595895 13.511980489572842 9.749735213222817
As 14.644199066295505 11.208791572233235 10.148196238845744
As 14.903978016539616 11.555940721649758 12.607556524841598
As 11.50523957506421 13.139830623292852 12.302633931624474
As 11.598046672315542 11.95160183973654 14.614775533315997
As 12.76523548534261 16.499527269492464 13.123410500097062
As 13.195430270806845 10.20552427480968 13.856582661709764
As 10.78597829123399 11.2857733920822 8.793967660178664
As 11.5154451441534 13.410859699927277 9.569664338291151
As 14.254282298115767 6.6676639555406645 10.543527901084193
As 12.44373171401153 10.033499354828995 9.980419135844562
As 11.59563724249857 9.298368538853065 12.217226875121145
As 13.042068793007227 7.9206399392140785 8.793089091265117
As 12.46362161382765 6.9873551532454705 12.256548310635853
As 7.969431168175432 12.414149344183047 12.391051573446644
As 7.847602698919245 14.142782028963387 10.63885208748585
As 11.917219812872855 6.074353360094129 10.014157375479215
As 7.3470882853311865 11.802760875517984 10.100825767695524
As 5.783825300239023 13.122328577605522 11.503133323439444
