21
Energy = -93.6205778 eV
As 17.761277538303773 10.259159153484088 7.996200652956105
As 15.425078152636178 9.616180643454207 8.409166998921577
As 16.83448151989504 10.382341636556458 10.26964286837652
As 16.09154489711767 11.976723295366464 8.55181876048241
As 12.714313930215203 10.841228064687142 12.230542230935493
As 11.102926521775407 11.252316940070045 10.445827503736345
As 14.181093387761363 14.422096798457865 11.805827611979554
As 12.543475949642387 9.822016845615776 15.504845302065661
As 11.77534255413608 11.780544165995268 14.31192326883642
As 11.841912122671957 14.602796382508197 12.662546976976508
As 13.03172185512702 14.54493410654746 9.599196232566468
As 10.838555701836203 13.731201303665403 10.517494937496878
As 11.793063696099024 8.880123154929736 13.427096274384018
As 12.870653312282338 16.419413912265874 11.240043923004817
As 8.871928340309902 11.041200757840286 11.585560145830847
As 9.199828681163464 9.282438739112443 13.278395565790216
As 9.205178865017999 11.590165160375781 13.974411145845176
As 13.32271274713741 15.494185337693743 16.624893718424964
As 11.061630062115652 14.738556212224431 17.216467185276038
As 11.377978843848908 16.905000718641332 16.10528625261967
As 12.094651822415376 16.607765485817733 18.439405896003308
