20
Energy = -88.11117567 eV
As 6.786793891874765 10.21632907406545 6.753990984125001
As 10.738621568724888 9.970638618263012 6.302175697067077
As 7.0347292941662 12.385764434097156 8.013075678764443
As 10.940119435439327 12.11103505698558 7.2931231901242
As 8.816184310109739 9.14810498278756 7.8835086081806445
As 9.15476917809109 11.35736189182785 8.97781080708252
As 12.702993834344312 9.354745540551841 7.9167846750186035
As 5.363898893872323 9.33470379488812 8.593853708245204
As 12.799895629454781 11.430250922237565 9.14620700363728
As 11.410925616106372 7.705226949125883 9.785986959025374
As 13.901756668142013 7.748100645850202 9.691783812732536
As 7.37049868343328 8.715616271385022 10.297901628046644
As 5.509424884466189 11.450979410627768 9.759047385551026
As 11.439304976338711 10.010180098747357 10.876833088982414
As 13.963159426592227 9.754763310027732 10.998716174975332
As 7.717577921171203 10.855332016697867 11.33897245711399
As 8.487827443575735 7.166938314595908 12.023862979246546
As 10.99210767938708 7.193760301333189 12.36269071132464
As 11.005804809449206 9.41523523835578 13.345860344021133
As 8.488435582699944 9.299762854988115 13.262643834174193
