26
Energy = -116.77152025 eV
As 14.262024567909416 11.527583830949181 10.308582511626291
As 13.477887047016575 9.861781751142512 13.049007890886685
As 12.144256411228001 11.389138338574007 11.649431907779828
As 11.94859760170527 9.770740291622484 14.981523748798914
As 10.163357323090755 12.151457586908435 16.378024566030142
As 14.221222201714367 9.144021573055525 9.588538222475519
As 13.6518050836917 12.422015644774657 8.054310973179216
As 12.379644644491464 14.269502233704063 9.176791875258894
As 13.225107935464367 7.897110762287625 11.55557962809449
As 12.509622908201077 12.151201613924496 15.495269193102327
As 11.458053713030338 11.375611113880295 7.5432254499410645
As 9.507187695774782 10.365905127694422 14.717829723403597
As 12.419683621073277 9.12354817813629 7.873449296802813
As 10.350767239541476 12.751002027115936 9.425903548672187
As 8.949526151690257 13.878129939077903 15.05344967409987
As 10.9291208041719 7.299674788128776 8.726790304716898
As 12.49144439683277 13.2982521587615 13.244901478753464
As 10.801853554536889 7.513772900184493 11.147963135093715
As 8.67791439528 12.141388110194486 13.153690126830584
As 11.261585458049232 15.267612726698102 7.219056435655418
As 8.667807462926156 8.110384955353984 8.138372666924896
As 9.284437466051726 14.16950079140561 7.688707599700722
As 10.16742736240759 14.077090753624857 12.941010577432463
As 8.470779752905026 10.32968090245381 9.269793903864127
As 7.383117264707796 8.321378648097939 10.254159484144216
As 9.273796113478358 9.470541429219962 11.442664253702866
