25
Energy = -112.15280419 eV
As 9.759133337094402 9.793162195152929 6.940374224719285
As 7.49388581049117 8.821757192128556 6.616034615006871
As 10.434359708935583 8.07961847290997 8.41223800112566
As 13.085543319032718 10.122053930150134 6.317219870263685
As 7.132617683962714 7.603401441497668 8.772711129783515
As 8.554261189374008 11.207463208876225 9.131213188657691
As 6.552682620414774 10.892391126210104 7.667562482187347
As 15.214883925996215 11.016960375708821 7.19137175629631
As 12.89021201473643 8.555863875884093 8.62712183913734
As 8.658634824179257 8.972083310596574 10.211246886395925
As 5.264201044587665 9.249660718903815 9.060062524731507
As 13.134478570660429 12.327219160199498 7.2341346264806
As 13.003166329873839 8.28496083187373 11.299479111891761
As 6.77222349300498 11.863917266894772 10.980286529022568
As 13.809278631113752 10.80712269865647 9.257316265327015
As 6.2151826133317085 9.57389004787587 11.325710208845639
As 11.20112386314959 11.68958802578459 11.387134677923386
As 14.602839824212184 10.037680461258912 11.668538062546743
As 10.860506878478803 9.435513568640049 12.431395829782799
As 7.785496298410685 12.099742254292009 13.259488943609368
As 13.278806634096965 11.823287868711292 12.82814275933211
As 8.779891739061016 9.994900536842637 14.068275509079452
As 12.285584870421635 10.178951144550346 14.38090871963879
As 10.05893508963404 13.114703115091041 13.034005237222464
As 10.360843844584338 11.642881330149423 15.086801159831543
