24
Energy = -107.67373909 eV
As 16.725318293440573 12.66808436150537 10.784339224089857
As 16.274484471773345 11.416751641223142 8.705243738109822
As 16.716690991709946 10.201698760479962 10.79770914370337
As 10.086535810490888 13.188938600198586 16.100012948154784
As 10.867460833986245 13.937744369232501 13.846534415611378
As 14.188602609678714 12.70675970501682 11.340900432183304
As 12.30891440406901 12.547554152205468 15.304324995057026
As 14.17798855807355 10.221926391995897 11.3832198297137
As 13.73366863751413 11.42925531955598 9.255527029187899
As 10.594420912005502 13.61704325425088 10.18357607607634
As 9.612860769752674 11.953764742069398 12.876427840548484
As 10.39149690480021 10.941556026672446 15.023725955836756
As 11.258100921123264 11.386632636136518 11.050933666522615
As 8.192938625741888 13.363481090809222 9.66841433314667
As 11.283897467539456 13.63662166561246 7.817491425607597
As 8.90224922714963 14.383457004085807 7.429326224030362
As 10.728118681214093 7.767271452906601 13.477332378148205
As 8.571399561589313 9.023336177855567 13.32266587063591
As 9.729725531204966 6.583427349653621 11.511448586031761
As 9.6925867697807 12.140374843263212 6.661868175907163
As 9.974809168935872 9.798559412181683 9.567930350015613
As 8.272576144766786 11.197888646741335 8.454212820837819
As 8.277599700342583 8.526431619661782 10.867540808578575
As 8.622542350745885 6.54642812411513 13.75428107969373
