28
Energy = -124.92151401 eV
As 15.67771296880387 12.359481922607134 8.304768850372428
As 6.447058819156768 14.682462269824141 9.26862208036123
As 8.852909852000376 14.319827919342528 9.637745131087248
As 16.130028734014175 10.03064614511113 8.878551739852323
As 13.678340737720186 12.986545106233397 9.255762201692704
As 7.7295635418090844 16.23913887723432 10.679212143094022
As 14.371016882414514 15.192565034073064 11.884996935680984
As 7.261278629086042 13.963940442426848 11.475235774560334
As 14.230769453638187 9.139525869222808 10.131611967471356
As 16.373553333142006 9.685456161854901 11.328942518593175
As 13.020601592013684 11.276268688478293 10.89735860099412
As 14.979798864936127 11.463067860481054 12.410247940606958
As 16.09800544203973 13.601791057882574 12.673477105526917
As 12.21303621095441 14.087177438177443 12.311451677003888
As 9.44746744502235 8.988784527127711 11.42018455955906
As 12.420489758197045 17.821350406207188 13.527142581136587
As 10.999155070842653 9.038388911464953 13.322868595590538
As 10.932540685337207 15.924470687941573 13.49578581801905
As 8.93099322534854 10.36191532815751 13.388976005412404
As 14.582348340978594 16.775589878421894 13.802440223400053
As 11.98629509737405 14.082435379384862 14.786826000463979
As 8.825745386559014 7.90612129776906 13.539499409546234
As 14.670899922635643 11.472805344536978 15.194199941988757
As 13.949735642257844 15.292063790070479 15.650266423429093
As 13.711045907317004 11.072808069583948 17.553858379406794
As 15.86090933888633 13.724754222746197 15.340319297912915
As 15.945509235843835 10.215141262674125 16.94210092327049
As 15.638981210359807 12.461114432936917 17.874976246872404
