24
Energy = -108.10420602 eV
As 16.10324644775844 8.99964001751659 9.592021030448564
As 15.457054616083077 10.182971092518972 11.629624672498592
As 14.388145347756495 7.17490457039725 9.27820354789428
As 14.085859639803736 8.61827114024818 12.91465020721609
As 12.866718192168184 7.398667772223787 11.17293776708748
As 14.26446377272302 10.73331749792353 9.560781002583187
As 12.863786587395388 11.886327979631565 14.751607740173633
As 12.544462516082787 8.931708632521536 9.286118056950913
As 14.12104840111949 15.469300455520505 14.790694917501025
As 11.476253248993796 9.967477363291273 15.4469622575115
As 12.146330368192357 10.215525683202824 13.065004613278944
As 14.63496011813132 17.5048299112171 13.51372340432937
As 10.423203883799061 12.182727651696407 15.146014132039745
As 14.514644095913958 15.331714717504903 12.36965958023801
As 12.466335343116723 16.37849102291762 13.218917445518475
As 8.915549728672248 12.199607491110697 13.127504476323187
As 9.226637242267895 10.193548174810697 11.635791858049052
As 6.9644807482326145 10.484126079673935 10.66219154374068
As 10.761517459580036 11.51542908741116 10.148812800863807
As 10.323207694992185 13.568727551074305 11.602802636793951
As 6.426313397725124 12.859256607099244 10.340609131831373
As 7.137787110147587 11.366196896669855 8.394080185729091
As 8.506662949817924 14.246368761552926 9.970619812796087
As 9.352894399390502 12.56242715212842 8.352230488466578
