29
Energy = -129.06481714 eV
As 16.578308366249303 12.235022271519309 15.614964780413757
As 15.750348037960226 15.738232844330163 15.641345954649982
As 15.803238456916432 10.00078043845016 14.822553452379989
As 16.18210943138484 14.022875229194199 13.947199417884036
As 14.674224478622781 11.15333044516149 16.75728389847189
As 14.36527573029052 17.20586189047976 14.583292375194286
As 14.696325696090172 8.60150405752383 11.728431642477759
As 14.053226176764065 10.482518219100236 13.10027383835182
As 14.139685429159865 13.810566158016215 12.560152697607208
As 13.896329086594362 16.29945603188523 12.34261344204873
As 12.343049473243859 11.653662612024908 15.980337925207916
As 12.221315157419511 13.290008798111021 14.071482747857813
As 12.317253506954007 9.554641596091788 14.67784770309089
As 12.650022320633488 7.531107151154323 10.922013456692945
As 12.506945454487745 11.179722550496377 9.970100729679427
As 11.312455112964832 15.440760215230751 14.909532933805064
As 10.64149475716083 12.401001582212473 12.37188430526709
As 8.87780702298516 14.996788317929893 14.78411675341771
As 11.448977710352391 16.603457788176033 12.720582234642306
As 10.22217409269563 9.95992139051632 13.517632865318877
As 14.55365778738053 13.374472017468698 8.185892397512871
As 13.167588984213227 11.443286738148567 7.563850153790683
As 10.427146988180436 8.26574072839593 11.73881839015956
As 8.50339029722059 12.899528856184341 13.51958317766457
As 11.252386868275194 9.086279766000564 9.513391259434101
As 10.508927332956747 14.94995177595525 11.17588209814245
As 12.680972648102692 14.514874516428325 8.999778139889342
As 8.325400812658945 15.143110065892479 12.351599818717487
As 11.151244659085044 12.630325503990194 8.4618657356621
