22
Energy = -98.61117125 eV
As 11.934511456811979 9.36508021607702 7.6726641561749105
As 13.308831647262641 16.044006261326544 8.97490925042114
As 13.34586450888447 10.716526827246176 9.192048689018764
As 11.701613125235404 9.134332544967036 10.13905476207881
As 10.447915027982758 11.19353563232552 6.924382151862682
As 11.75465969921469 14.57777890064723 7.7275221803469325
As 14.888952953893206 10.287344779071885 15.628503400528235
As 10.86152069089206 16.037954544465062 9.521820559288978
As 13.698711652511534 14.302243122274628 10.785600321614545
As 9.424146811996376 10.129291025225907 10.36088282547727
As 12.005517577241921 12.800691412321402 9.51848009955257
As 11.639045288117824 15.158835687160263 11.82017565242983
As 13.468410678385151 10.468222096953639 13.62512364597879
As 13.593891349121005 9.569475072600614 17.357145548508992
As 11.757328444536212 8.707792603443222 14.011160826419102
As 9.49421404328949 12.053359747712271 8.865963079579597
As 11.367908241208553 9.125845319865585 16.442468715744894
As 11.449865453546854 12.656424464233385 12.2483401332146
As 12.356238774750443 12.45881588236003 14.603124309901537
As 9.564509271159475 9.931984396639919 14.113703702961121
As 9.20511163607062 11.615503075710444 12.351468436913406
As 10.497043004944414 11.430767724429806 15.881268889041054
