21
Energy = -93.49105825 eV
As 7.9270129241570215 8.08406128800457 6.276944710304104
As 6.85635106734564 9.055653646820454 11.434558761472575
As 8.95835210599483 9.492279489918529 8.136299793668789
As 8.660584508997028 5.917159079470321 7.372061101695235
As 11.573895966876734 10.93596412123364 6.231527831952615
As 10.48759650276709 8.577130916257287 13.245192718414346
As 12.6212450096483 13.030585117661493 8.97916990109109
As 13.175085012192408 12.78939047405121 6.576973778428239
As 11.134755831931509 7.718496655686051 11.029284121260702
As 8.282784258315013 7.505652664550297 12.945392973894066
As 9.44935667245283 11.804259157660807 7.148526106813671
As 6.666674900067354 9.849214132517732 9.000309369618616
As 13.253986215803565 10.810257313850204 8.05405538113674
As 10.284854001699768 10.730667285351718 10.512277503011394
As 8.067478103417828 11.206987881299845 11.595526416328171
As 6.4846489852870794 5.778684696879068 8.620571821411536
As 9.563244257055585 5.843987174538043 11.564990431829475
As 5.7722738657470005 7.9666986209185335 7.5740222890685525
As 8.400819031964279 6.974420808485811 9.65805206446385
As 10.17136482658627 12.913025078232085 9.26166175548806
As 10.08375905526955 11.067055774642586 12.994168037343513
