24
Energy = -107.38293901 eV
As 12.12946223966768 15.097981894608305 8.576114032945032
As 7.099266698122324 12.864851032022353 9.872321179884917
As 13.758666308849671 16.034401587114235 17.332240723919753
As 15.018385231466898 14.351455256761446 18.60394664432126
As 9.943238260430267 10.88791352800484 10.045621644925253
As 7.757540295812719 11.10988078467765 11.216814794258829
As 15.543327564941047 9.346858386018852 11.742296948066855
As 14.09820021459924 13.976007694966352 9.508613552047805
As 14.266252246008987 11.617590663047261 14.72837161183068
As 13.32622767733655 7.878048072288948 14.17904970950264
As 10.943888651908612 12.705914235565041 11.555526259896457
As 12.42305280225769 10.153149374197048 14.052698295580745
As 13.47540858004087 16.18144978245113 10.434099497948795
As 16.04498350196995 15.437866611820619 16.654627859818525
As 9.218266707165357 12.7649621104568 8.600807632197553
As 13.300131786937328 12.148948790680578 10.957576076777563
As 12.119414492517159 14.34315487150106 13.700734786623583
As 16.2404511734722 10.531776560542236 13.771910675295732
As 10.24748723610733 14.603707093998302 10.12615503767539
As 15.833777970851564 8.131160181347656 13.92827172943506
As 13.04815860559387 9.043548868838771 11.95918001384916
As 15.67213807510838 16.71801936196967 18.718790905999104
As 11.675921591004068 16.044552500683373 12.13842730911241
As 14.257604573379687 13.372985332909392 12.936693847066815
