22
Energy = -98.72738224 eV
As 15.09675271426458 11.401724744989838 9.537890976541306
As 15.248744377666895 13.366669481998665 11.1008399284656
As 13.70841058551273 6.700940758919484 13.710588978476602
As 14.796550120104762 13.736444746814449 8.6867952991269
As 12.98985338941527 12.738271258422055 11.968583383020626
As 12.811968855256076 10.811729491853423 10.378134741106248
As 11.589505236543934 5.490280760848931 13.403833338240732
As 12.130617745248728 7.388528629918773 11.933349322560694
As 11.58008460387105 7.777377878663757 14.30386591628676
As 11.969808398937356 11.664920596893602 8.24085090516898
As 12.351414939177385 14.08073474884369 8.460730023261725
As 9.83003052813109 9.16984001174781 8.367218457301037
As 9.261693967809821 8.225081849801812 10.359902938243476
As 9.470699085695134 11.574453043429216 8.041813683452258
As 12.027407878897519 14.646505553219683 10.83097590550094
As 9.266657695047488 10.700482167705589 13.625349674273803
As 7.887335625931449 9.587660374337563 11.86936079473341
As 9.688547829261086 13.12922068168454 13.379171950851864
As 9.557103999598421 14.39096253449429 11.28350894114627
As 8.269320445296536 13.061089336092493 9.625327950987234
As 7.36339002591322 12.377528537629955 13.503184488395517
As 6.818378826595176 11.693829685866715 11.102999277033256
