22
Energy = -99.65215966 eV
As 14.913450105719619 12.474461455501462 16.15125855978181
As 14.357164781541126 13.727691872496102 18.265503755415345
As 14.238294494420304 16.06721767264335 7.24522826710414
As 15.52722086943912 15.27341426387737 11.281715801548161
As 13.505152857760928 17.30941515720601 9.013926340750157
As 13.089213980289188 10.860814026353083 16.352661350629116
As 13.362360870116682 15.601240054675962 16.89510947213445
As 13.986577258787376 14.347712378825609 14.787244220396063
As 16.26060526782127 13.934838511942724 9.360754003339597
As 14.216724309473916 13.701693077034385 7.939369517244993
As 11.925404743558593 14.005414912497065 18.083901027552777
As 15.597872208895073 12.81591712769473 11.511077960929308
As 13.127395713561091 15.753276228310588 10.903537848946973
As 11.66002807627947 13.787296451865217 14.346211565053565
As 12.394781071070344 13.824986275058148 9.579992646843248
As 13.272953571863818 10.108629464606063 14.020201487776324
As 11.13667409642663 8.644476317830096 13.94550599664646
As 13.381584907981326 11.946150729635514 10.796887264525646
As 11.114229609190007 12.35311694841518 16.28898922752638
As 11.931176643714432 11.823211770458286 12.834088317816324
As 9.47225496749896 10.03418410055269 15.035479599873472
As 9.720126956384423 10.291853632894188 12.712191096411281
