20
Energy = -88.41292541 eV
As 9.120391545816819 8.800218541719202 5.486324369877952
As 8.508530416033615 6.792718410071719 6.451322131433982
As 11.786125849135054 11.69056308548424 7.465195120418586
As 13.539479144941268 10.03247374123753 7.560194256883892
As 10.04276280212556 9.896143596538746 7.497461192024267
As 8.938474008703704 6.902414307241634 8.901006889305497
As 7.595616764585101 10.470228318805933 7.8959928568930025
As 11.650242233327509 12.40185253114929 9.846537230617214
As 13.16372622162039 8.872486856187434 9.639788332389532
As 7.007218340132795 8.491288196584359 9.229158203655484
As 11.222741398915552 7.902951053710192 8.363098324265858
As 9.381256411954897 13.096085912076996 10.664994358927004
As 6.856752504576161 9.414308002567559 11.547007948081754
As 12.513812425023096 10.564978299938705 11.290171075684698
As 7.345511457971921 12.536358252020896 9.328358514062034
As 8.068266350068459 8.15338861803926 13.40750296143069
As 7.4379406001868995 11.818576468628418 11.673031780115652
As 10.228699207394474 9.625810715340242 11.552339807035848
As 10.448550244934612 7.574929647800047 12.926051228358654
As 9.888478573303995 9.706801945608873 14.019039919290602
