23
Energy = -103.64906469 eV
As 15.669673681702255 10.76398140392136 10.560881789794992
As 13.825035009292499 10.452354107715543 17.06969461774196
As 15.067106149653162 10.948791210063831 15.003430579580364
As 15.053207624641255 10.23688533103115 8.159851240943352
As 13.143252811508566 9.423701242032562 14.936945458847948
As 13.83711456367434 12.149405314485943 11.395650575944028
As 12.795698520663581 11.826837597733245 15.306854466702935
As 12.884932811115227 11.300993433179823 7.771111569152992
As 12.660807266491693 13.078287689616282 9.445620973098784
As 12.923473014674872 9.154440284959671 8.951909191963882
As 13.520607631852585 9.714744739323221 11.345738842690462
As 9.98914248563945 13.836226941822579 11.988718569740321
As 10.45524638482079 6.764488227443004 10.049556011855342
As 10.550874870900318 12.068781172424298 10.36297103548301
As 9.329947418949763 15.784090527462826 10.696689730303339
As 8.667374374047926 6.490877581815267 11.721193760161151
As 9.932839802336831 8.603895992976447 11.608643592817826
As 7.654078282603385 13.01904799527224 12.305535794579255
As 8.356975606883552 8.018555823109637 9.814943764130406
As 8.863517043865349 12.44959251348456 8.636764093127152
As 8.123491640975862 14.82932426094166 8.856351463558246
As 7.104608905568186 11.72396838252743 10.271357239613144
As 6.3442197372564095 14.113953865774628 10.492811277286641
