25
Energy = -113.88908183 eV
As 13.565464451609321 12.959761305339951 7.983215811361566
As 12.933228217815113 15.303190506978119 8.2148236903017
As 15.2173878965992 14.765845715030324 7.516262742805324
As 13.794233855373113 12.45469199985927 10.434041152163982
As 14.407057509146352 16.344325441628794 10.739604860478707
As 12.727468775543887 14.553779567709972 11.172047937352138
As 16.203015486352665 12.883868214423023 10.371601037809695
As 16.3411160273599 15.23519336845847 9.70911152476557
As 16.702035375836438 12.872983888383327 12.838802341424696
As 12.808958948068176 14.045295957672773 13.70309941258603
As 17.235840237904547 15.190273341507774 13.603590811349447
As 15.519916078389668 16.881003081845424 12.945086466934914
As 13.469470687854741 16.393202350213343 14.197874572347743
As 14.504496867865617 12.249530589380576 13.839518682754262
As 15.940628350366888 12.452364463742036 15.861546040961585
As 16.665483038825368 14.820029230228087 16.04268644631344
As 14.822842144745605 16.479989487229552 16.247920416984904
As 11.436059064069326 14.258781199380094 16.75258772673705
As 12.263662285179336 11.903113098741143 16.81595014919807
As 14.462564169416327 11.966628310839134 17.845896760485633
As 13.090916171326503 15.660874021553765 17.883295062911856
As 14.366167387888886 14.025834231222964 19.179683833823734
As 10.415027833379126 13.928171065651892 19.048213934447045
As 11.222762148533262 11.561954324619741 19.073763735653916
As 12.361776719339083 13.286894967148541 20.457354576834735
