29
Energy = -127.80222715 eV
As 17.80228656916267 10.218075574076193 10.660233359180811
As 14.95971345492557 14.504853326718594 16.58910992947887
As 16.576204703694582 11.691802627448846 9.049097236456577
As 14.47199146613301 17.65486347790512 14.346017672848934
As 13.963249505077735 16.76232742470001 16.601381434560466
As 14.890698288178418 13.637744124073308 14.264439175891463
As 16.02640833850166 8.772101861459895 10.84520672625335
As 14.672120620465186 15.639825345590829 12.843245897786982
As 14.022369894452869 11.131924404943124 17.971441808840947
As 13.0822360420353 13.450663713131386 17.762864122294104
As 14.758775340115847 12.161000982452592 10.668424698445737
As 14.635310622517421 10.124857737761932 9.2582492535613
As 12.187193857255378 18.582542010511858 14.812662117826351
As 11.943512450727015 10.094054146896509 17.113214298433746
As 10.582305002302812 18.773145298971915 12.993915596352076
As 11.48404775872913 16.659915518491033 16.306903765563305
As 12.496208578216793 15.10610818383388 9.365538124319102
As 13.820035772481319 10.182080040258068 15.68418484173843
As 13.695538884180095 13.240622485774562 8.730620133307886
As 12.414617083013946 15.46541509295973 11.796233168037796
As 12.066128023062326 8.33668579876814 11.374731184529576
As 11.144995458656107 17.45068347234705 11.17867681526799
As 10.347066611526277 9.932358292066407 10.63759014945094
As 12.855730905034777 12.187872411409925 14.005815606829481
As 10.330526043799022 14.771620749666392 15.123501608558737
As 11.028800233381276 13.780516958273708 13.00435864893014
As 11.49070441883716 12.636133139276337 16.037731175140276
As 9.7674501359951 7.5617482648870995 10.958926159812941
As 11.19393708459809 8.238803925336176 9.074929801540575
