29
Energy = -128.49318802 eV
As 17.883120099564117 10.493969259511156 13.181574200053511
As 11.492956682664778 14.726312050996079 12.48671596645313
As 9.957181157813206 16.03101785232292 17.045693424724057
As 16.64693799193496 16.055699380748916 12.572835570113375
As 16.60092779381443 10.418491580886059 11.042271279753727
As 12.987101827634824 8.927797958730189 14.895926632618675
As 7.843953802828185 13.609049112609375 12.099424159553871
As 13.985426441654864 11.097227636762792 14.0846273872737
As 8.592670443336873 14.028439699962814 14.412673992522889
As 15.890324979458184 13.564392682225902 14.737262056332888
As 14.32997421762689 9.928333767340332 11.923673572483674
As 11.097778699332217 16.645858511397616 9.074614158282078
As 9.830042925441198 14.254357090122262 10.693547599968547
As 16.85714052656596 12.897782882390649 10.718423463814556
As 18.74189517873566 12.690818456757727 12.2927125747007
As 10.864479517212342 9.64269847137386 15.885547033338021
As 9.69239868970571 12.396763616397019 15.760527403862975
As 16.295026001964644 11.127569772710142 15.029870923345067
As 10.495646206661275 13.772012355870428 17.471953052343153
As 12.672251843650692 11.351090712185467 10.729491404030405
As 8.858500151585257 16.287979580698803 15.013242387761702
As 17.9969855922962 14.572857011428844 13.937920082987953
As 13.350866635821541 16.14488864409341 9.376921197668796
As 13.249064697279602 13.845179172698996 10.982935773471553
As 15.367285510560574 14.018871028875104 12.35517835975462
As 12.031846835740348 17.008325263705608 11.297281642147192
As 10.903227843045892 9.098266256932792 13.516512344185927
As 9.30758331248884 11.832504315974214 11.130727166928494
As 11.183351937118536 11.55352940801667 12.759272167136626
