25
Energy = -110.66907917 eV
As 11.765385960959605 13.69306066701452 6.175863588857655
As 11.544191382820186 11.08547563570147 6.910148421317838
As 9.108818233518708 11.424944848107954 7.257473626368684
As 9.491041193005692 13.999718473792964 6.375581618664951
As 11.344385193507252 8.477004965702134 7.67854795881995
As 9.001073594244376 8.825745849069195 8.121834842396597
As 13.009575303423036 11.663574929661136 8.846915598229508
As 12.227037248505544 14.250966442343614 8.762262947568766
As 13.14313655563957 8.950355313229528 9.407914465552297
As 8.496499952793924 12.67236204111585 9.315223872875556
As 9.587075042625592 9.139481043526834 10.477695671702614
As 9.794555820346869 14.747995350771367 8.964221172448841
As 12.418564438319589 14.347196899314907 11.372251265175516
As 8.937213522129483 5.452156301677743 11.984681372797802
As 10.682139224908283 6.97803021191764 10.974174699858805
As 7.117397897077563 6.929619210592994 12.86127070508559
As 10.064106317955542 14.569751965905258 11.67492058453214
As 13.067553713326966 9.500497081067422 11.775024161380783
As 7.808814472653398 9.237792765608825 12.18779203866754
As 12.058920058913973 11.792439752041567 11.114334335744527
As 9.59630185494944 12.047955035918873 11.460409877801881
As 11.534045171933599 7.912202920050918 13.067732439573014
As 10.004795378699676 5.5188947958813666 14.209583908670854
As 9.600697566335922 9.337256645504878 13.9039505302026
As 8.448969799250802 7.297815752325948 14.972485193550606
