21
Energy = -93.86542003 eV
As 18.906854338067017 13.504690376653462 13.223933404040388
As 18.936166830118555 13.771312830144812 15.637324484135997
As 16.883271331302897 12.119937646252302 12.756840960353971
As 16.03636167971955 11.670111433570098 15.038049626426407
As 16.585033812393082 13.727403383056293 16.26260191831084
As 13.609876263818517 12.168109686921792 14.74646876553991
As 13.487830893168127 11.16007475466549 12.505620525128403
As 13.736503745030843 13.045876476693381 10.8828921401391
As 11.555337585537623 12.532290735450106 9.777399405945232
As 9.387094781127207 9.559497074767663 12.670295211961195
As 11.00671535815672 11.39861719973716 12.099656902920618
As 13.46789619797556 14.66829162787628 14.473891856743576
As 15.846487788514269 15.416814331138369 14.636177979908405
As 9.939785978986636 10.705839509397267 14.745500626979965
As 16.768007579294338 14.577436169198059 12.49731917720371
As 13.376518824960755 15.18672590805474 12.067195966052342
As 7.9170818363350834 11.33630369538427 13.651286867399655
As 9.276737709031073 13.244096611468732 12.514197347342348
As 9.793435540044655 15.096133000813118 13.849099815357706
As 9.949691270099636 14.292451518781291 10.24289202717861
As 10.961547561194513 15.936803305093182 11.828527880907183
