23
Energy = -103.09671367 eV
As 7.665888867341787 11.761777468420687 12.89584034148582
As 8.45595650103316 9.51319569242589 12.193431484654162
As 9.084177589332844 11.500248568781233 10.865720645343405
As 9.242653582837383 12.388464658861015 14.67918003670049
As 10.37928201477489 9.133512764924486 13.715468793853393
As 11.367622839883719 12.112162886162505 11.635942110331364
As 12.188784066361832 10.137918913193612 10.36899010501136
As 11.35733766987759 11.366455761669982 13.98822299412152
As 11.87806015089705 8.237532304489893 11.969174512222882
As 15.725262827626336 8.735664364805622 11.940545597147228
As 13.880509492605038 7.957059225395596 13.38906062232682
As 10.511935670339234 9.46281143305493 6.755147984880166
As 14.711078664241034 10.355252451936495 10.319560454913113
As 14.874400257706066 12.13701169314268 13.725076002883892
As 12.625395935659142 10.565725757560879 6.169384636173904
As 15.422597672302388 9.787626715968356 14.154547700740505
As 10.666781900171628 11.911040026955824 6.79258484590389
As 14.596107758258709 12.504328470696931 11.49350677688705
As 10.700278836565404 10.713795850362066 4.644310743266309
As 10.23427848465916 15.12448579798039 14.388823047050046
As 10.351608181558797 15.62362674980207 11.980787617097633
As 10.575787889122104 17.510046299739194 13.542842824158223
As 8.413300260537076 16.369343257362527 13.300937236538724
