24
Energy = -108.87978135 eV
As 17.835174079470733 14.956541264028626 10.735736105113828
As 16.825997768054798 13.634051810628398 12.548303369259198
As 16.325417178897816 13.087008198151176 10.206468340817409
As 15.427949829648094 15.143541021131558 11.212543157525806
As 12.443766951083 13.106490949583527 12.958759608156731
As 14.07887026114801 9.48082968682578 12.088516281062427
As 10.698397765083602 14.608612109104588 13.93810769746084
As 12.260107647527198 16.38091989585306 14.605574840681737
As 13.204569255178212 9.512378493002696 14.409141140760664
As 13.746595585089104 7.034530832974633 12.02752395460739
As 12.749311270077545 11.869268119076864 15.084299193104567
As 12.341614781231312 10.250885974092434 10.532516699628662
As 13.074675156517635 17.54358696710104 12.615966625216739
As 12.484507898387255 6.528435236366641 9.948066515781322
As 10.760793920124659 11.810258532200859 11.696754798460194
As 10.800033235878262 8.875873360547985 14.492515470268586
As 11.144841466275706 18.45313666082434 13.94491484469105
As 10.41887461232255 11.128453461553566 15.63678138340861
As 10.819085103807074 8.323562890098966 10.303838405379834
As 9.85704526857016 15.380772245278092 11.76620085967397
As 11.508726811414412 16.874901244760277 10.747967192578066
As 11.277922353473048 6.6864298478267745 12.110730421759103
As 9.444547715923362 10.638404272825404 13.439222605602993
As 9.57277211093624 17.792724952282676 12.05114851511989
