29
Energy = -129.43167761 eV
As 13.987843443419921 7.618738395603294 14.819178680566912
As 13.662297116991338 8.315708863862776 17.18974369498648
As 11.999774483857156 8.91330192975847 15.4206059792098
As 13.985527187608877 10.11138411515455 14.49388529099801
As 15.049240792627936 10.381749894246937 16.761395516684406
As 14.462128789072867 13.008843604152695 19.530552544726103
As 16.00664104688416 14.788242346643552 18.718560399853434
As 12.637390382199978 14.675355821963851 19.448004409193135
As 16.43566084841229 13.936237298744228 16.46767569873119
As 14.093952590387646 16.38330658706989 18.403128792793908
As 11.555667483039562 12.802389400428313 9.528307781114497
As 13.347255042684505 12.09763576389174 17.473646147409298
As 9.910920689194487 14.643105505999415 9.65400871777194
As 14.133142520407393 13.571738132404002 15.661074714553935
As 17.957532676188436 15.835297632188313 13.511613766072072
As 16.835861503297213 14.686604794572972 9.898766416254954
As 11.633642264576801 12.52860220709664 11.97584998705095
As 16.79339914466867 16.247871234706537 15.59691752043191
As 13.885786586083833 13.781839343717174 9.424766258637169
As 16.213525953242257 15.370642920637321 12.048212010855949
As 12.118435986484547 14.76848188212528 13.030544307980858
As 13.026885091216233 15.694182986031638 16.26937715599227
As 13.998613136898697 14.907241680588173 7.217743006317324
As 15.633596373387215 16.343310124915437 8.474912120360273
As 14.545069586921818 17.11917188450272 14.892329608094975
As 9.32067911592596 13.624122911115835 11.855716488879334
As 10.347633163924785 15.90178690560606 11.751640734650907
As 13.272170471762323 16.16655834113953 9.216040933606717
As 14.001766111581459 16.40631542101281 12.55286932820556
