29
Energy = -129.72091479 eV
As 16.75019808326023 16.096119827852576 11.449708970002046
As 11.047455392240103 17.04378205579999 9.729257589909693
As 13.015478755332289 16.501481810512846 8.299630769215971
As 18.28322452994017 14.931201983017345 12.984546208396209
As 9.472386472312127 15.26102361935667 9.142872158699381
As 16.061751454798447 15.639257333448127 13.762284210951488
As 13.091864252550792 16.052231631524272 10.729644923366846
As 16.268277311547802 13.791230161293402 12.155713340612383
As 10.923035877374613 13.286659858441967 8.845827384469127
As 13.19383892840252 14.160392952817357 9.129986641256274
As 10.824659513326674 14.361768359736253 12.523768893348521
As 8.646622568557191 14.365181217585338 11.37650081434863
As 10.23061192707662 12.41439787237887 11.123919918194025
As 12.139567030337657 11.918920726517397 14.912084390041136
As 14.925172240155549 9.588783718890161 9.367572907180492
As 9.986911012864775 13.10400859073718 14.588411033335408
As 12.642186995302291 9.723238190308326 10.330696649501299
As 16.171332406917458 7.950202295527935 10.743848937664737
As 15.207462326301215 7.257805900843969 8.573641610220747
As 8.802661562514468 13.845714084223193 16.849869908893734
As 13.306303304899473 9.164082102415541 12.661717132900051
As 11.196357028237905 9.902420762261121 13.785802412169202
As 6.768669545287888 13.211881682149754 15.722350841377974
As 8.098882209589465 11.36192489950161 14.770719279867148
As 12.241460802150765 7.474125052403804 11.196736173524254
As 14.350820992262216 6.273000508971474 10.679353648378289
As 8.998059097096776 11.366446734401292 17.094997224338506
As 11.48208840507139 10.793412301113943 17.066687083832004
As 11.370056849634746 8.656700641311547 15.89924581934753
