28
Energy = -126.45607072 eV
As 13.775487057875399 10.397978304288177 8.456640033311176
As 14.186204544762637 8.490864944410783 10.021835037667813
As 14.812120408019528 12.244630124045807 9.802578311476648
As 11.779603332429014 12.335811166325794 6.291236211745553
As 11.329730587314037 10.61703078955287 8.066633342218124
As 11.95160659981056 7.453656082986834 10.040039392165705
As 14.525672134267465 9.489529327237472 12.296332099111089
As 12.022704448715935 6.442442080517017 12.298318849494162
As 12.278866452354448 14.418385196043783 7.525436552528115
As 14.048600017268832 11.948843856046834 12.173634658452908
As 13.048840650401566 14.02783204095504 9.874019675014791
As 9.908088833367993 13.81054645131949 7.026911352743676
As 10.423274943670938 9.323908472391071 10.592245974835047
As 11.73943683087836 12.337622898343493 11.198346222893106
As 12.7304995954839 8.416950859273571 13.666559670191154
As 9.475458722106813 6.47262578129455 12.727828338023231
As 8.731095604845326 7.4951225862406075 10.60616881857534
As 9.457471696784655 12.341845016440798 8.986943616906784
As 7.333684990248302 11.383100993788902 8.326389379307766
As 10.904147359253395 9.908023321377083 13.007621099120454
As 10.626184271469414 14.25404546393624 12.393769339117684
As 9.007798887731857 14.388638571181204 10.526861398535122
As 8.315549486547424 11.227831280201103 11.937540178241212
As 9.340988429355626 8.465808032826725 14.23686734982864
As 6.607804306533954 8.438883367091282 11.396108921355589
As 6.369666274025655 10.877935756122323 10.478989929387216
As 8.250263264897018 13.587570320632235 12.725658889254495
As 7.231192752835914 9.614579398384874 13.5305278417529
