21
Energy = -93.51848356 eV
As 16.148191992814606 13.559885006131811 11.99620642231932
As 13.954563875423714 15.247522431683107 14.26605638449923
As 14.411430352030573 15.306745565110413 11.798899918275858
As 15.042115985270119 11.908116375685388 13.525339731842605
As 11.949012045167333 16.770680189394643 14.470773644526496
As 15.495574497802872 12.808309790667623 9.702741421913155
As 11.42232716524587 15.778224992504342 16.71477668487202
As 12.867255122687624 13.005744812872512 13.967102917728218
As 16.684691024410764 10.839740365275398 9.061065574777802
As 10.780207804814298 18.132792601437234 16.738136686263477
As 15.641497994623185 9.452827962588351 10.732353950435257
As 12.397455511079222 13.817737160145137 11.63378342103633
As 13.191192300301877 11.9859453470798 10.123070187669157
As 8.730856871007438 18.410903656519782 15.756034974715462
As 9.966437773354391 15.452744821573305 13.54947714309962
As 13.72683714081584 10.449499865784995 12.001725576668285
As 9.472160921367957 14.48604656080116 15.799974909999863
As 15.379145947445913 6.988887779429741 10.799211480578414
As 16.730119982767675 8.077138304320941 12.602840522542369
As 8.025103306451847 16.249953483453496 14.90929687923452
As 14.428227079679132 7.522902595094204 12.991981641153759
