22
Energy = -98.9264903 eV
As 15.332166395359996 10.683308905454208 10.00110669213903
As 14.966588432912525 9.523921011726571 7.86423662682671
As 13.55280984096217 9.527775039682512 13.031236611773311
As 12.907367688265056 9.837966262445025 15.432322871464429
As 16.486699128776692 11.452665966732896 7.967757260520997
As 11.362471809259949 8.419712461262284 13.017850018778043
As 13.337690345831849 11.823975998856222 13.94764259217266
As 14.058368789370139 11.778001507576308 8.207298590226893
As 10.432024293449315 9.865553418461054 14.807853256495308
As 10.261193129244685 8.256554858691329 10.755809429259331
As 12.178268583186682 14.013771002202873 11.475557211855433
As 10.017750397001322 13.039417113530492 12.300883799784506
As 10.972754265085333 12.261795711498426 14.462232189961544
As 12.044608541155673 15.953667703618123 13.054139896830401
As 10.710603816984483 10.129958456915858 9.257397567423135
As 10.932908245983045 16.111873969140188 10.879164337644063
As 8.000205327207928 8.675637361532365 11.566637602726134
As 9.599226787432807 15.46631400586853 12.877198671506319
As 9.109565594697292 11.939467261255176 9.613066288697333
As 8.640452533170984 10.091911058141367 7.925953342466633
As 7.429677786374901 11.037832253286945 11.221696998759686
As 6.835872980983941 9.2781933848185 9.502232855385348
