34
Energy = -151.67935212 eV
As 13.844603239052072 14.930750684590068 11.484576895554916
As 18.42501395620989 18.369665554333803 9.370187245591024
As 19.28864480926559 16.26504326614877 10.375021947933714
As 12.602682558088455 11.640809358117684 9.970489117914347
As 14.215996210113161 11.076012716082088 11.844628130079446
As 16.612372972323822 15.718486513156805 14.375983707612274
As 14.476171672280996 9.80406407898483 16.927653272212787
As 10.84399436324764 17.18264036731976 14.829591765671537
As 14.039388765803286 13.625332735186802 9.388860652945795
As 19.022750646545138 16.69573758972431 7.952681171909437
As 11.323327815165927 15.238016444716799 8.964449995350705
As 13.910813936309022 13.123816012453874 13.197296770620941
As 12.213344015514426 12.98933388977178 19.70511018086588
As 15.130788253755332 10.521627670983452 19.19843062007095
As 16.573940780335292 12.447025668600483 16.06289298838819
As 17.601121786476682 13.115859021297616 11.234482287341345
As 16.331657189926315 13.32062972997748 13.729563903781939
As 12.890732836192615 11.58251861034638 16.147735153535542
As 15.776468329382235 11.89087237326157 10.121793056477594
As 10.149292341944275 14.23357988348019 16.93265052750876
As 10.851894272691718 14.705217228620368 14.513975102592344
As 17.556733455067562 14.737690136029018 16.51070403490379
As 17.03683012081541 15.223393866090323 10.367663559020036
As 10.667940885449704 12.594523966445061 11.189777181974113
As 11.356547748703269 14.9949749281128 11.445104697256072
As 8.777786375099394 16.058822733929887 14.175401459946448
As 12.961871829557193 9.3937635939345 18.918418926356036
As 12.205710988091134 14.880251260735447 18.110736510060928
As 14.659434318498635 12.943890512470972 19.349427517865468
As 9.18835363374645 16.53653265349735 16.59449520108642
As 14.311256887155908 13.501262799018324 16.961489396582653
As 11.455110816534692 11.238031952006862 18.135451921489686
As 10.221360487014868 13.194200259707262 8.807858590546214
As 15.34150825582427 15.842046915962538 16.471413674708742
