36
Energy = -158.99660417 eV
As 10.70520851612782 10.410322464593136 15.66299466752975
As 19.315185444269773 14.5998614266876 16.837201096957504
As 13.173051839040113 15.571936295202592 12.023891376943682
As 18.214165103916184 15.217620362266688 18.997390244526343
As 15.173806308454779 9.935214591516267 13.127943037201021
As 11.579614282401732 14.321608722839247 10.539387441590444
As 14.815001342434787 13.419805006068247 11.993805568967641
As 10.506905944790901 17.182521125324108 14.504015521033372
As 12.744219953102833 15.222425144250963 8.500447256872546
As 9.117983793195327 15.8025261304538 12.9817391485363
As 14.25114384302038 7.611292580434607 13.412009707167272
As 18.3600726064125 16.946332329761823 13.772717627734382
As 17.111557051877032 16.64841831460274 17.281635505781804
As 9.991122030378586 11.368855017880916 17.810024055609176
As 14.64011887493427 8.973262025436368 15.390829573017083
As 11.877758244294368 17.839978347605253 11.112322740504949
As 11.572546201289493 9.47367771330388 17.762421834326275
As 17.485291335526846 9.072827544949662 13.27771655836768
As 16.751031737469194 14.214252677489498 17.193741825573433
As 10.036208745221124 16.256174028980354 10.657622787874656
As 14.545289268019093 16.128095020235513 9.96266287997049
As 9.200335968430718 14.419782058544275 16.12414033769278
As 14.011871657023427 16.997970481319257 15.644376962798075
As 10.930102556098706 14.740792979322817 14.343266705381412
As 16.196317124564356 13.947706804969581 10.083621579889071
As 12.781928028892409 17.69157376589177 8.877602759051356
As 15.813589016145164 16.601657970394466 13.855000880473154
As 14.767726031964163 17.576507185621516 17.92353809845905
As 18.198647136528585 15.038703782842164 10.809595588779377
As 16.096574573612205 14.148852637948135 13.991323874938587
As 14.078532815936109 15.341411121887493 17.450582276829103
As 18.429960982019573 14.497120571433788 13.169793996852231
As 19.320899565462938 16.942495807441453 16.076907002679867
As 16.40500705487582 7.337520623519816 14.663357603114118
As 12.295537671347308 11.70264341641434 17.019883961576678
As 8.816080041769531 16.69118866254546 16.269015191655328
