37
Energy = -164.66147038 eV
As 15.927994642577035 12.384685341237141 12.135063772387737
As 14.096404294843293 12.858149834126246 14.164007436706182
As 15.963807255910563 9.971934236738146 12.49157173064174
As 14.467682922821774 13.370708071100362 10.476882242899475
As 12.054859952200944 12.383956112593552 15.891883100499626
As 12.851945585922113 10.123936137442902 16.3292355770044
As 11.922790154577344 15.845730273795215 11.466920797340796
As 13.704350303370168 12.098863302458973 8.538660370463779
As 10.666540504118627 15.096561953403766 13.474497388085567
As 14.858330697945867 8.582399812141432 10.741940059838159
As 11.508188780996338 9.523135427119191 12.992599297437046
As 11.196854385221323 8.54740742029879 15.270232381619556
As 13.762309392943495 9.559998169879519 8.675871964443047
As 12.36281283988252 13.531705333355363 12.20821184190665
As 12.696137716186046 7.726262338165844 11.677673300795712
As 10.667597008195122 15.085771681362354 9.41636488054169
As 9.598584221678983 12.115772321416728 15.541073589840904
As 11.24434108857119 12.695092831028592 8.672413945795881
As 11.605166495658477 8.99570785921984 9.81410853817886
As 9.078528285949872 9.708012928196714 15.828557097294775
As 8.826679540985412 13.714219387830505 10.407274108164621
As 8.407765154661746 14.735587613858769 12.617497914965645
As 10.622683357889462 10.13034770306236 6.724325724076754
As 10.543467124219946 12.014523435490467 10.976899850192655
As 10.297214980303563 7.076103266649028 8.840321357930808
As 10.295350901093972 10.547750160322709 4.221033507105766
As 10.229318228142706 7.713049471051332 6.372466624567038
As 8.740066253608841 9.95416324585131 10.685995947583033
As 7.874255068767751 12.566284186887058 13.815874173208718
As 6.977884022869406 10.760191987855018 12.367918898499259
As 9.423143630174776 8.130087853233944 12.215624731955199
As 7.68240137859945 8.893239842414914 13.86051766086389
As 8.656063555818065 12.37264350938866 4.167921160662999
As 8.32880317106653 9.267460202218155 6.772049043604691
As 7.8317036415829655 10.237079247877064 4.03437754650995
As 8.037242774802477 8.158850363575151 9.048296372634805
As 13.949192320265954 10.481088771776815 14.022297698176892
