34
Energy = -149.77246202 eV
As 13.50734692170233 14.700617724022656 9.159388367031381
As 15.293333309463364 16.778601814233916 16.468760331735627
As 13.135162935247394 11.043368096863649 11.40893097848717
As 13.97159795258974 11.35311373311765 18.70361965320294
As 10.019758324769745 13.363135780535513 11.625153084035334
As 11.612230385805438 16.821418815425535 12.127079880768076
As 10.887982659998903 18.953874774647694 14.948668943346119
As 15.665225650786072 12.689962853149707 14.156982714477387
As 11.899345266214118 12.952718506330296 10.09449621289531
As 13.397377275795941 16.87917080752347 10.376316159142927
As 15.658877130832055 16.14668465711537 11.13436477225732
As 12.791023997549601 16.057119632347053 14.16431364103504
As 13.612645078587715 10.774507253461662 16.455585601915622
As 10.929445260725974 16.59418052397392 15.792911600171541
As 11.999980035547042 12.480464526272419 19.172165232677575
As 11.993435618018735 18.39985185845392 17.099122179074943
As 17.682914781504735 17.536821182789943 16.0390652886488
As 11.737379769030767 11.745723435927115 15.417704985323512
As 10.580368776622418 10.954150872146796 11.923868559839097
As 15.784185527808024 8.778715784611355 11.680563043941527
As 15.786599740188619 16.60716591477224 13.630278728246413
As 15.125803669063323 13.702547673027988 10.875087133724591
As 12.909034465661778 18.462777395487812 13.50364489639097
As 13.992340973795315 9.16077807131324 13.36865202309772
As 17.540459952513864 18.393375129635277 13.714589559434081
As 13.589000003394759 13.049843775853823 12.828384180342436
As 10.67552519927533 12.752303833682785 17.228644986081957
As 15.077121105362282 7.0085790345958525 13.114334595483548
As 18.182082301547805 16.056374132626978 14.110549422719748
As 15.540652036333702 10.333701233025096 14.927732526424116
As 17.85913905516867 10.101802772518381 12.212145874180957
As 17.533051631190563 12.346446998586575 12.556933085061976
As 14.305070048731762 18.85986900124375 16.313892847338348
As 9.688724259178956 11.766121677494992 9.751238863275152
