37
Energy = -166.52219863 eV
As 12.489643860047806 7.175499033797799 14.880207228360772
As 11.563474858696463 8.37348957707622 6.474211701402577
As 7.8645377603287185 12.871696501670057 10.18434279039923
As 7.451330319543311 14.360040054744658 13.499214334906316
As 14.803665106840528 12.126737707857743 11.183984576356329
As 11.440580892404858 7.335050451175469 8.716138568889928
As 10.359981024881826 15.087486660337444 11.252991683712725
As 13.467201949027206 11.58201369818087 7.904291830104818
As 10.603122009071216 8.711696848588668 15.12734654573593
As 14.026908025493196 8.104120226727716 6.350224874983373
As 9.810546944890598 11.469797848783573 8.322116228310998
As 13.798717551453523 15.503967109694555 10.403496447239428
As 11.48028184834351 10.848555866291727 6.538466158494591
As 9.779660388505912 13.574484430931735 13.182260945325769
As 10.829092953694358 9.709739049010572 12.780765603738416
As 6.888480354307501 10.568256297134416 12.394585925301866
As 12.788878540360336 10.99080120535532 14.001360969773375
As 12.539128753164693 11.847878658541715 10.216880881070812
As 14.721822608336064 9.473196290659065 8.297545241900096
As 8.656841417852128 9.298878587169503 8.562635805368753
As 14.783032852850546 14.309247031285421 12.343600296977655
As 8.992599996451084 11.227056707568869 13.52251745977615
As 7.821839017860662 11.021361547769548 6.935088277481575
As 6.109414963987414 12.898934381180066 11.953420770820546
As 11.922503355034753 14.14766139777015 9.535712232567585
As 9.619237036041309 7.421307038978175 12.185071081769513
As 14.172387583588643 9.066159216464692 14.626956056473968
As 8.351401482021787 15.320106597802116 9.833255293308085
As 6.159178713104522 11.95891271426593 8.646305956641994
As 6.624797290251099 9.856187311204797 9.940569646270252
As 13.67017077005418 6.317908451532538 8.14769471725747
As 13.466416765772419 8.079815875270736 9.918422802480903
As 11.369061592609324 5.901505195085008 12.97508785544083
As 6.993666597065096 16.03954893259638 11.726019642085618
As 12.6324696394255 10.135197543231373 16.239063881454516
As 15.826624921637045 14.1248203340668 10.103571726175648
As 9.368171511541686 6.407755023656417 14.341445375593961
