32
Energy = -143.98529304 eV
As 17.269001858715853 16.92006442555289 12.844155607168014
As 17.564462277671094 15.178174865676164 10.981226532700033
As 14.787869441912985 16.806504805031466 12.571627547140457
As 15.895085853631405 15.291814940632943 14.182993567128355
As 17.329908759140302 13.689921839410045 12.950083984995723
As 15.302866902661203 16.012812773601272 10.29568082087278
As 11.411534506355265 11.911801422163178 15.11611820911366
As 13.109800763698043 10.046207005014416 14.784931833995671
As 13.726361930992793 14.076680388157436 10.27355892186297
As 9.71723123344925 15.712268850555123 13.706756131008394
As 15.614209381314291 12.505229495771607 10.136261701373469
As 16.082432443168166 11.547137238171189 12.367748869590347
As 7.856558459927126 14.103804302491993 13.633156489264891
As 14.28714744389955 12.091633976407422 13.961917988079511
As 7.419578074698706 16.509494481734233 13.304633750153393
As 9.37607919005698 10.829871333462226 14.298088618282549
As 8.603348471923926 15.219419412709136 11.57365224559211
As 12.245934579766688 13.221072091259037 13.072900693744817
As 14.289312900795032 10.964664937977677 8.659496145315533
As 13.240763286087752 13.132053861545716 7.939543689654926
As 10.96229411197452 12.351261648056317 11.096994641602912
As 11.961041845965099 8.732717421511593 13.049490806864561
As 11.878669985207297 11.338937213473685 8.979412981295907
As 10.185193033386383 10.136130096590064 11.895668624013048
As 10.092182913289765 8.456673746195683 14.71912923543137
As 10.795822535368064 8.323408099692827 9.999395039445565
As 7.618676486229929 9.402287305712466 11.933352553913501
As 9.967068662552743 6.441454594623606 11.36512956566316
As 8.926680469952183 8.098107524425009 8.441276026858885
As 8.40801962247398 7.4106815357754785 13.077332035167872
As 6.875488524591003 8.288805680076026 9.919230379817597
As 8.073977305812063 6.123505943212702 9.74365801955747
