33
Energy = -145.9694917 eV
As 16.485052819224947 12.79502433989694 11.028630609356323
As 9.299665358618824 15.138739953428995 10.756382005290352
As 9.540921752854763 12.737766131144854 15.665923415986013
As 10.99939138901471 14.379826240028093 9.113558102461884
As 15.134097734766629 8.762509748146497 15.440585456825074
As 15.732395152160784 9.797968506158044 13.27123737973205
As 10.675483648000265 12.635205244467574 13.44490678975924
As 10.152849981390021 14.821887399797216 14.449240997813188
As 13.299993610257255 15.271959525266967 17.414716084051236
As 14.449418095588667 17.519726889431563 17.546438156170307
As 13.578880136735153 9.91899293687675 7.550278447669926
As 15.562132688646699 16.42977019179591 15.611378633699738
As 13.458446180534901 15.225101269707817 14.63110315965531
As 11.738956199913076 12.627366737663865 16.929229053623704
As 14.406995371328092 10.16488017043612 17.457889033067385
As 14.3822303338032 9.608762494793924 9.859677264996774
As 12.003670718213185 10.358313731341442 17.72805808912003
As 11.847127787983863 16.770922737804582 9.237465260715904
As 14.29636414518508 12.215404898921902 7.572446951669963
As 15.001952692563341 14.611112030095581 10.30194886752037
As 15.410457738066894 12.243708382775889 16.510528274256007
As 16.90565747969643 10.524324215793756 15.320725748621127
As 11.903529765503048 13.95074753991853 18.956821360892675
As 12.952421774017818 17.363707720103182 11.3659947440968
As 13.517582067733702 12.704810518109301 14.932182736899392
As 15.732878468437125 15.412154200176392 17.848798883571977
As 14.662631993635413 15.89444029880597 12.381990230825801
As 14.743942474348634 11.990525603446551 12.643868970184695
As 16.03705688295507 11.242635745304128 9.017208078749258
As 12.909701503936489 11.174487056341682 11.18782503735703
As 10.470382345593881 17.25008848398055 11.319062894472014
As 8.590985351034002 13.822233406272211 12.777450209769592
As 13.10374719288912 13.133344493941571 9.685482677321719
