37
Energy = -164.9797521 eV
As 11.795041023345695 13.282678452987149 8.763718098033005
As 11.05934599454604 15.025781181234175 7.148610455345729
As 16.724058828251813 12.73752436940733 9.219368128761285
As 14.207883003324095 12.72728803035692 11.778659892766608
As 16.511259478177827 13.048889048843613 11.664655384003677
As 10.296868290867838 15.132488573042105 9.490298553281013
As 14.708225626408696 10.17040917734267 10.772180149659167
As 11.41620654706423 15.265092515245806 15.184453225720093
As 13.756350719468328 14.867193743206865 14.433358236707543
As 10.490970153657665 13.47892804640582 13.72534855366212
As 14.187025734799732 12.439492603594381 14.26326024959072
As 11.933156412370126 15.257324700031052 12.769566575446431
As 14.751106242165463 11.50120316751581 8.398912857094205
As 16.689704515641953 10.246089243886185 9.245666682821417
As 13.488646868729134 8.615539568451753 13.983989310861901
As 15.683563615871597 9.050886466175418 12.977737330930067
As 11.92743835923523 10.061282105618329 12.602393611092856
As 8.64465548310165 14.697936630717068 7.664009195731444
As 11.52070507954316 7.793788329354905 9.440960303978484
As 10.171222569631967 9.877938408371946 9.76233167090411
As 13.9749710336787 7.876196741210221 9.974190006046284
As 10.482019689838484 11.412348525083482 7.773290584046
As 8.158999068831152 12.283124254380496 7.880941896941402
As 6.432616247215811 9.125656517756637 8.999084352820539
As 8.66671199440676 8.599422201470935 8.08910154621508
As 8.050809722423928 12.593349583629406 10.362325435675917
As 7.830817979590268 11.05697124076994 13.629799569746973
As 7.605454743743537 9.899726941710673 11.28621133759423
As 7.42004616994582 6.997362353668048 9.477158243432878
As 8.27341825928042 7.492359765469144 11.979930447197514
As 10.609010355214526 6.737869467182579 11.54928213123399
As 5.741197332836418 12.667675154069416 10.626749123442913
As 10.32826244636633 8.32972041078899 13.41519662264532
As 11.877289583017163 11.611532119337914 14.58965212386133
As 14.398355702222732 7.031194838734236 12.306605020022385
As 5.726996500763206 9.943383926261555 13.034594203153132
As 5.8149881244225305 12.419751351340162 13.091808134879317
