37
Energy = -161.99736715 eV
As 16.511749072396476 16.778506504494533 10.834539827857597
As 15.159973511683974 13.885820871665729 22.959960770614146
As 20.203275457276742 15.023357591555282 20.56394065895196
As 16.459793150180634 14.512048148886576 20.898225677711487
As 18.576553295929596 14.014537418019138 22.123590840287722
As 19.309361738945125 16.80948466990202 17.212081957413538
As 14.423822721156304 23.502640807457833 10.54592757590128
As 16.510955917134776 17.182880994450958 22.442161821776313
As 13.716304557408376 14.928504716710728 14.586537775080894
As 12.536041891771692 12.835951995259302 13.919604025735836
As 19.69038608823437 17.99010796122706 22.5660435959663
As 19.02265513672106 17.198282167315913 20.248761568891425
As 18.07047174323798 19.407518468279886 14.391233495005867
As 17.661838920288044 19.205136216966398 23.275423640595257
As 12.051425463725414 13.03052799014552 11.528250553716763
As 20.880271120078756 17.955373998540477 18.73932695025875
As 18.11108108339477 12.385276574322097 18.2841494370503
As 13.09900473226263 14.195984801893863 21.609633798251057
As 20.400421867457574 19.521375908479804 15.384499858732084
As 19.725104363468322 14.132406582125537 18.29727856669124
As 13.979122174405788 14.506404551735255 11.082133291021941
As 20.6835935598013 17.034342673509254 15.08951182191808
As 14.81194413056586 20.50983705449263 12.95044787826624
As 16.662454480553414 20.91555851986215 11.545375639103394
As 18.837229152331886 19.93139465487884 12.077845397898523
As 15.573015696726022 17.29660368491427 12.884895024158773
As 14.878929416039384 13.289548265590234 13.133910917591502
As 18.398619885915213 16.957639340282054 13.949347730514686
As 12.826692511749053 16.394733174239082 22.2608349206677
As 16.58340259377169 22.764762463912316 10.113318738256712
As 13.278677189584402 16.380473175892323 12.596853378568532
As 18.808197074496295 17.414235499470113 11.498712997916831
As 19.197489687295665 19.355943453213808 17.579345098529988
As 18.40213933130493 16.081609905023573 23.595672610949805
As 14.689162440133614 16.226158494282256 0.171519349939839
As 13.362981157526649 22.160150311774835 12.1727789289883
As 16.439331906530043 12.264970879776985 19.91124825796652
