30
Energy = -136.33969876 eV
As 17.617984963900476 16.143740039935363 8.530847969481233
As 16.480550403530312 14.561393737367315 10.08682555552662
As 16.02792042127344 17.988290700057867 8.066332474820944
As 17.855145823898425 18.275699343365993 9.77840264737247
As 14.143896662782936 15.31026771264449 9.617200383387914
As 13.991169401178386 11.425067556870626 11.786889712802255
As 15.986927894655784 12.466583879474266 12.835073083508599
As 16.971637123197983 15.77050287411599 12.147995227474043
As 14.36277768427904 17.73172516734562 9.916077671697911
As 12.104744625987573 12.9901799086357 12.226362272140703
As 14.768452341227581 10.659321437317159 14.06982812953216
As 16.181029289713177 18.021265654528037 11.624721619564856
As 13.020608419773001 15.252913422278581 11.803336120717553
As 14.976405331719553 14.72258498811187 13.379375285450873
As 12.889658648491023 13.454828060139832 14.580033658831582
As 11.378684240464327 15.190519259159926 15.398002091135112
As 13.09559521754151 17.006467679680778 15.92055794239178
As 13.252312679001806 11.47997782180415 15.791542507532144
As 15.365785951899559 16.174565115420204 15.514089505448778
As 12.137086019177087 15.628560388832451 17.725852656814503
As 15.853690193560123 14.31012373584794 17.069421152024567
As 13.725742264339345 13.822691262070117 18.32659785623022
As 17.107142973460263 15.909439599333577 18.520101364109166
As 15.242809724043665 17.005366964366612 19.69250776722297
As 14.015835389910745 15.049045112137224 20.499154563944362
As 17.85866265409921 14.293678604032944 20.192392618789032
As 15.799751322266069 13.703194868469838 21.488009916165783
As 16.433439540259233 17.541281336017494 21.803903633607288
As 18.425577783791628 16.064385932321784 21.86122641790107
As 16.351999964927497 15.469362792666828 23.170363148723332
