39
Energy = -174.81786069 eV
As 12.932751780540462 13.478367862418104 7.763234895759701
As 12.266371616619962 11.144990954599722 7.003915963955916
As 15.292762325247939 12.99891596402564 8.327698504552114
As 14.284426837553958 9.714488925699138 7.312278511989617
As 15.312107431022405 10.706018880376298 9.366997599929281
As 10.893730988127425 8.842969737246541 8.509849015200528
As 11.901836387882751 11.832518561722999 9.352149936346727
As 13.231002802588213 16.73332944463352 9.619347557622602
As 8.727592122554524 9.50550151499918 9.680572393573451
As 13.54149636327275 10.736314653633519 11.057131633158498
As 11.542927498324353 6.439288729314433 8.384784115100457
As 16.127545387901144 14.037010463523313 10.448821528779408
As 13.816690791048005 7.462045265155573 8.470416604575
As 15.48179249057324 16.451806574318887 10.597835720029593
As 11.763935432296417 17.59112435539869 11.414470087596484
As 9.394762502077345 11.92333124841269 9.79162049346693
As 11.450759531115224 15.256339207792001 10.50709695388637
As 9.82468432183299 10.42800317056105 11.726998269621266
As 12.163381433678794 13.661574671104521 12.278202887097967
As 12.294940882709765 7.948424449715379 10.31784855229219
As 7.771093116136937 11.115245909394954 12.96804270879966
As 8.67545453616166 13.16780150334031 13.97053575035506
As 14.696488239265246 13.29974377889261 12.309686950928281
As 10.161861587688275 8.330793169077367 14.97823803052488
As 15.293764612040277 16.861934658396326 13.09379912427695
As 15.462215808029235 11.123026583908626 13.048426064902214
As 7.895215547370693 9.325061523021644 14.720224463506666
As 14.607385117790148 13.646814617028305 15.937911701459655
As 12.914068505157168 17.32386913724361 13.595254469418705
As 11.488612781866507 15.33328640612197 13.974871767056271
As 10.800443913975041 12.139328059206617 15.132444448964401
As 12.194336195703771 9.952282358502405 14.907891965468155
As 15.89473325490856 14.619517287494425 14.002170659997242
As 7.661880376836291 13.113513191439964 16.139119110409972
As 7.571636868211481 10.718352677842693 16.731223842205022
As 11.176375559759762 9.275527905278976 16.996532606698505
As 14.731783786773011 11.24691233951945 15.331866153921737
As 12.120514350214341 14.122630961963509 16.041754561358402
As 9.792120704728028 11.547477087258164 17.344218184796432
