30
Energy = -136.65392873 eV
As 11.365635241768482 10.820913068734017 8.750816763397541
As 14.428110769603316 16.823184326067672 8.034132800949902
As 13.528542330178992 14.568699160421454 8.56619375848625
As 13.71310067876755 10.881065798810809 9.43435713576096
As 12.339772205858132 8.974943921987228 10.196196018747578
As 10.143528660360571 11.841258659023667 10.701724137951595
As 15.250362718168086 13.953304684794542 10.205676807183703
As 11.692792220358164 15.26895130594943 10.04675559077798
As 13.59158494273153 18.345392151308104 9.805828144604266
As 15.929763987485238 17.41393381762537 9.924382006279545
As 13.911043018360612 12.292114761566358 11.471671084509355
As 11.708908163751653 13.439021541780734 11.715232384107804
As 10.769163143569529 9.79051108929008 11.967803472044645
As 12.860522417426367 16.762630912198457 11.595522097934126
As 15.18544374207245 15.850819448211572 11.747750682639726
As 10.364228276849085 13.201500443399272 15.586599622142403
As 13.91233475861945 13.666058246790827 14.355539721982575
As 11.999132092873408 9.91337798890541 14.153954041577217
As 16.186280003222922 12.804996008386333 15.080907975596938
As 8.627165698277514 11.825506353398515 14.47159666420418
As 16.28256356123749 15.178016783879054 15.786364106558146
As 9.718471543484801 9.670599227930493 15.10910611582702
As 12.501236595769814 11.936975087121773 15.49284349232782
As 13.895474727374259 15.165932739005502 16.42535064774248
As 15.488947281491527 11.73262356011944 17.176121273081332
As 9.190861002093456 11.409711340758601 16.834348653470865
As 17.44135068910165 15.045375436336894 17.97799002277205
As 13.888674067064517 13.378118072194269 18.11564040522995
As 17.32655578137497 12.667430657035393 18.637108236283517
As 15.713589638218025 14.332173364481127 19.587626093341587
