38
Energy = -169.51684132 eV
As 8.469289963965133 13.088849909872451 10.821969501894525
As 11.717514393051657 12.237334934400915 6.178123973280978
As 6.882952410780035 10.59563868888636 12.521858984007526
As 7.481968985057685 6.43017971618024 12.970855747725617
As 10.55739621496835 6.4339292152981455 10.642143934856325
As 9.324642608862984 12.27164918678434 5.386513163892307
As 5.079086954626419 5.2028033034055445 10.568228519139726
As 9.217239788354709 11.366232776284457 12.394511778176005
As 4.201804882151044 6.50385982740307 8.626666260888603
As 5.649072586407094 11.089588529628589 5.6397206760143925
As 7.59843510654205 5.503338649863783 10.563300631140633
As 12.026153266949715 11.633472890175888 8.615331320075342
As 4.31370083997189 10.186227922309754 7.567511279564193
As 8.850095744374359 7.775842065496538 5.254691597884657
As 4.9184366910154 12.143861518629475 9.076713922585304
As 5.627719975145629 7.560065888038503 5.71854537800669
As 9.671708821375367 12.42177945662742 8.680268356481214
As 6.354706701823453 12.956389196551024 7.184165332239172
As 6.9924329024748335 11.20199508612331 10.08363454915992
As 7.296239561757306 4.696593780630691 7.479979232440426
As 5.232920810351607 7.1222335232812135 12.255865678853842
As 7.264876570026845 8.336982399934243 11.415172612280038
As 9.264577465281059 6.507010903251534 3.183976195597395
As 12.218584301035573 4.660333910746609 10.02584245460914
As 10.323179673383178 3.7290180718950916 8.606734970246308
As 6.525069319968352 3.047615503615651 8.946780011020527
As 10.1936003016647 14.088725639683787 6.861337969513788
As 11.176765213395194 7.483401488948142 4.381715192808528
As 11.30441916823258 9.246367834126923 8.479050666641362
As 8.565750324568473 3.188664396888696 10.356286577896158
As 9.583636079883105 8.944906480137242 3.204588085463186
As 7.823749018744433 10.943261386660547 6.973725511263056
As 13.476036861038644 8.081882942662023 8.788027733710173
As 5.8875521142475735 8.293621143791057 8.045446092476684
As 12.627266704002643 5.9066605191320365 7.875280436645889
As 5.047837196590101 5.297972767368586 6.602849801463102
As 11.993987216629279 8.480362969319062 10.73064868987904
As 10.132314993515417 6.214067308180916 8.16465891239246
