33
Energy = -144.65570998 eV
As 9.518440290231052 12.304369375757682 15.641558587404075
As 9.829702096059137 13.667772210613085 19.30711163333412
As 11.156445907490632 9.163744853005655 11.575231908256423
As 16.123487590212996 16.82520864328967 10.89527627243363
As 15.803084923733124 10.45623538092843 11.098953507513313
As 17.326607533398477 19.175461390605733 15.00524113821952
As 11.92233336746949 12.545454560845858 16.185294541959315
As 14.530616119541902 14.939423194456634 11.479548361177347
As 17.36768816197217 10.575512697402049 12.998848648347447
As 13.49271744925783 18.82546296164752 18.49839730209114
As 14.666824278797877 13.807662888623803 9.29817005853911
As 12.008930935601779 15.449994985087795 11.573808742857409
As 11.53308986951084 15.81052152749662 18.05256329425102
As 16.62517629778081 12.258136139141946 9.520844482945094
As 10.19063385033433 8.203093008392889 13.449962538803618
As 15.464412933211998 9.841988652391786 14.341480447351099
As 15.073771767835963 13.660978141721344 13.538887575323368
As 11.369296425451418 13.332867444224846 10.638912757673843
As 12.110027779008261 13.452975974608558 18.47502282268803
As 16.214850456621797 15.767673573733555 8.6593102167419
As 13.729547248830464 16.521182049576023 18.695645329658944
As 8.337354773201268 13.182278545750657 17.602614753246865
As 16.106392966813967 17.23243373134583 15.92040184225707
As 14.296645880518545 11.317563544638526 12.86930083580788
As 11.845213217115248 9.345312454597458 14.848247481590622
As 18.169926830153578 15.637323732796384 10.17304204726275
As 11.768736118511283 15.149820594919914 9.154457348766783
As 17.456231938792435 13.13519367126475 13.351544355844775
As 10.737625569586196 10.47218442121167 16.80605113182555
As 15.764376775267593 19.28961621796754 17.23628971592729
As 18.266126792546746 13.304303574193904 11.036462745187213
As 11.779938051595675 11.03751047656215 13.022195538173593
As 14.877705787649237 19.117385420858476 14.931131380668724
