32
Energy = -139.33103249 eV
As 11.18841515434165 14.515597369926843 17.327874002950892
As 15.438503804123192 11.126611592628205 16.287384725401527
As 12.227757060695373 16.01165409515199 11.864185591630166
As 10.301170692680385 13.059176989523243 10.016278785380942
As 8.818026922299032 15.023834673158952 10.09630084977944
As 11.365232316195105 18.55043585902891 11.785508561554295
As 13.935894370753491 9.368724737016382 15.781642922515381
As 16.309011023065242 12.604549202714084 14.567544551339552
As 14.31509187028767 13.943972151196455 14.04767806651734
As 16.124264842631273 15.81919919638499 10.85159043577916
As 16.99667101211612 10.705781425164178 17.993263657933923
As 9.52186795406281 9.688082144153736 14.003683960101796
As 9.425537361724297 13.503275669690737 15.946260264503604
As 14.994211247892007 9.125607593405693 10.457167289041024
As 16.239830431506775 8.665884584850438 18.79583676053508
As 12.945753750503671 19.38358738492501 10.12110469757706
As 11.572147727574427 12.25652510721619 16.40494020717526
As 15.59633629857405 11.80558888355017 10.609877348019195
As 13.981465581887766 16.25442629962924 14.871010610331721
As 13.539211279735662 19.346556139397006 12.535112205315405
As 17.267894419184024 9.516837830728035 10.103920846424806
As 10.630434617971579 14.596830023987897 13.939732339985653
As 14.190296576252681 17.36884287121566 11.091452809051471
As 14.513549523955342 14.269687899251714 11.49069837580706
As 12.173813495770686 12.65654340811815 14.018735843474742
As 11.257973099253858 15.348929769109628 9.683627274926588
As 9.111089543633565 13.578219472648545 12.124967473634138
As 17.395100142476675 10.977656973553584 12.174165504622893
As 11.832038399026374 16.326202058511534 15.730607931686608
As 8.296737929518477 10.48812682407153 12.45222193111906
As 14.37620720064835 7.920472562598788 17.54106005559774
As 15.060136883828758 10.489835531584148 12.673258613756403
