37
Energy = -163.89344234 eV
As 10.566345966629536 7.4694473240076915 9.215847214148193
As 12.53711840919839 12.40348706467056 12.765478723409212
As 14.258687861353353 11.962950583572429 11.059595663192843
As 11.125977809059743 7.1953157618048005 14.915326103555012
As 9.276682014674444 14.543694346662145 8.85014172977595
As 5.549507264255996 9.830976071556512 7.3854485043830165
As 10.94688992739774 10.463593713170077 12.758683407470919
As 9.044709074124762 7.287150115477565 13.609253233341247
As 12.632063649244188 8.786530401849133 12.132986171340143
As 12.377344535471918 9.391022137460638 14.52567740707859
As 4.651771321704995 8.908368649575733 9.489181541987966
As 10.096748963319303 12.432882718239634 7.759992424835177
As 13.33236480432167 10.091204711034273 5.63788120666033
As 9.372531461420973 5.31145024650844 9.023875865109353
As 13.032123345302681 8.035459344010693 4.638113070538146
As 13.544172422592215 6.2990565388242965 6.203826781471169
As 14.178889227894137 7.230162964348153 8.225455173901551
As 7.167214057458583 5.647445078513404 7.857087465983741
As 12.673046557213782 13.866591443511004 10.715134635920013
As 6.905393802237128 14.68321852664124 8.032565083952885
As 6.131665019653737 12.844700823635629 9.548546813449903
As 4.026656808641816 7.802679881991624 7.371430735060121
As 8.142695130838199 13.541417318901328 10.854967623344269
As 6.229748334216533 15.152663869599678 10.380607127093473
As 5.765572576244886 8.76300626791903 13.614530683125327
As 8.08943956205543 9.587272823244119 13.957497049392575
As 14.312675733875263 9.574801084940493 7.760779884883624
As 12.467620917740339 12.922593274407712 8.34596208735837
As 6.723906636458477 10.002424499048798 11.941397434588103
As 8.02091939602599 7.228200935798815 6.174227429751089
As 5.203523002289627 6.483691986538272 9.111230163056646
As 8.024981890608768 9.462541751050065 7.194520715117307
As 10.04270246805535 11.128684186173945 9.886552902898776
As 12.748381988199629 10.701546268042835 9.427491564269552
As 10.30652488428063 6.470472623867509 6.959280695841036
As 11.146014983446246 6.740498915519092 12.428380742096474
As 8.661912166892723 9.067319722282 9.555568915015899
