37
Energy = -165.16097365 eV
As 10.77041355624851 10.978921822022182 5.293415340411997
As 7.806716032965662 12.571285558075562 7.527576816791736
As 12.557228390962647 7.905018811045927 7.364961735072246
As 9.47684709787949 8.960447379528357 6.096587636784961
As 13.20569475572369 10.784200031053599 5.7883551940755185
As 13.140600111151633 13.28517146216197 6.21883907051818
As 6.6009093314967675 6.3599871187205 7.456715164400773
As 5.504229838380061 12.068161271572706 8.379806189397934
As 7.400724258377178 10.301681825597528 6.592253223897903
As 9.898245447599727 5.739830103361497 8.44213684998451
As 10.617401030434115 13.380711922139255 6.197073654335614
As 13.364248527780937 6.23281794839497 9.040519742374915
As 8.426119363116694 12.725432257388713 10.06324769321396
As 4.317439229385944 5.845903617387723 8.383261311163205
As 11.20999792378566 11.066520037281975 8.676034949735833
As 12.006847506866123 4.538685691156783 7.880441833189324
As 10.320002311737817 8.24429799394582 8.334611749978365
As 13.435793620941434 10.137837311340201 8.173862157409514
As 6.889501944564139 10.094024091381128 9.081512237225581
As 6.23563109798675 4.245397439422387 8.615756379517086
As 11.41166905995644 5.478762223743055 10.36319566537748
As 4.839375069229696 6.769433301819082 10.642395139132582
As 6.092510831921391 13.632664075327497 10.277897401401091
As 11.85777086476556 13.50348147495642 8.316819626204124
As 4.704121089909238 9.154605530838676 9.946175480802008
As 13.290236227372153 9.7847650193483 12.321222884152194
As 11.301373963827606 10.676492893753691 11.147210753289418
As 11.29326791155419 12.866364207217757 12.325365935160418
As 7.195942560749164 6.177430793727077 9.877028893561379
As 6.842217187469758 12.014856889297 11.96930282608062
As 9.318096589996744 9.312426041057865 11.898459569996199
As 5.753480484985117 9.85452807303725 12.05559707615056
As 10.372210449149945 7.14778732128716 12.4072045989329
As 13.185555345025053 11.907948818228865 13.697066763245314
As 12.05396329714909 8.283329927736322 13.864458122583944
As 10.878283899549562 11.944545386020382 14.578077423147391
As 9.989991828212279 9.588902367832794 14.270210949510705
