35
Energy = -150.98718084 eV
As 11.913547826646594 16.49799378822422 19.57290338312888
As 17.381102241644694 17.044840272077334 14.103985798988296
As 14.346072496334287 16.78060266921659 11.011407408277838
As 11.628361318436628 14.256207124229784 19.84552992594651
As 18.39915756242859 16.896556031446597 10.390601144100833
As 12.438563895514518 13.142388039055927 11.325033025418659
As 13.828045579610643 13.560269864235517 13.323432032099092
As 12.780514147348537 15.216515544733426 9.862280478445939
As 9.783254825472909 12.51322879241985 11.195540981004754
As 12.378670429228093 8.400644629936835 15.04393418750656
As 8.025933715199654 19.992503130174327 12.7226294321792
As 16.917854435571154 13.565743896679091 16.006657003061445
As 16.495866109220216 15.340785918186048 10.555532493324979
As 12.337342236112235 9.457101929365352 10.333291041258201
As 17.98273023828626 18.432585550930455 12.448374982180624
As 9.955200856735944 19.294949829403837 13.25804029975866
As 9.423272229829442 11.150532851680659 9.352195665939233
As 13.852650226515578 11.417690010353622 10.19476709180486
As 14.520783705526092 16.00752271420874 13.321052240898572
As 10.16322638014636 10.070847622944727 11.431227081422042
As 16.697090936569197 12.806498165254927 13.832840415443188
As 14.263355564878218 9.62351567183146 11.90445243127028
As 11.66683219143534 15.632889593882329 8.037278599152572
As 19.515911550625425 14.92899432287321 11.241197474561016
As 11.708391053727384 11.542243145212396 17.81027026970541
As 12.319644758730483 15.336980487021215 14.283745556591159
As 13.147491009311496 15.065948430752007 16.649178035337098
As 12.107021956251872 9.151395274126854 17.405549400863936
As 14.319129162363035 8.354091758838686 16.638358866149876
As 13.243155982304744 10.535549957204397 14.01286671472854
As 13.27533633476338 12.572206793540134 16.325048486490967
As 17.598956049332614 14.875813175560031 12.716367754042611
As 15.433542816424293 10.083296843799719 15.178645223103226
As 15.592182654040654 11.767051077065158 17.030003107374373
As 10.895171171429809 15.236293695148396 17.691508605243317
