32
Energy = -139.7506058 eV
As 18.947200911885783 13.085365337750515 13.821147569233077
As 17.724718659168946 15.071404717581842 14.435024853989672
As 17.579043016011603 11.298386167035785 14.962952412077478
As 17.541578433222277 10.354283329062612 12.650915749182305
As 16.667800486914203 14.166107339877692 16.448518230042353
As 17.628378488134814 12.65065313607291 11.543739696289812
As 15.181026947126158 16.153753651446753 16.735395988345168
As 15.87549643920394 14.11295118436597 12.442138576319572
As 15.463466260439503 12.627766501764766 14.864414558140082
As 15.108913071016229 10.076840990193288 12.388889489532373
As 15.219004876083533 7.907578489552374 11.285138893692745
As 15.139919015110161 11.646426324520208 10.4494183557113
As 13.648409993432475 15.622034508704727 14.851452729379957
As 13.577745861312799 19.21238370703641 11.201820789959177
As 13.949375238428152 13.605340065905553 11.049344993379858
As 14.169123289208743 11.094683529791553 16.363189065531422
As 14.985436290398676 8.335065410800668 9.016630413807748
As 14.808710930787989 10.557273477502282 8.340460663525937
As 10.140863369163089 16.23469694359896 14.474793275337499
As 12.927285413327056 15.189994458305161 17.176321817091402
As 11.77906970204727 11.625509477402613 15.804204908871151
As 11.685516663976765 12.442004369960227 13.440487652844814
As 11.3625884592852 14.863694340199011 12.794614972986134
As 12.182126151499924 18.041831469201185 12.397645929771057
As 12.17915412138761 17.62875939405365 14.906695541993685
As 12.853632660960448 12.744948177938808 17.707145898360885
As 9.081261782271715 10.920038159726149 15.92148406622088
As 9.580797844522962 17.866029658113867 12.70503654637669
As 9.557337050025074 14.347102736950639 11.2144905427431
As 9.17415682149703 11.817967015808001 13.57975813117411
As 8.447766059027261 13.108172852719862 15.515763249228383
As 8.578410799446837 16.413969925407184 11.00645519100727
