32
Energy = -144.25684337 eV
As 18.694199233056526 10.22330491675254 14.353351141240772
As 9.568463283571845 13.440330729662776 16.726967563071923
As 17.63356348238822 12.323356945909726 13.394405058506036
As 16.495487305077102 9.521921686066959 15.343402829831565
As 18.216301789133265 10.412889342443608 11.953013080324693
As 15.624944240894447 11.78580641981956 14.793259039243194
As 10.902101055162364 12.21729946276684 15.036080947556872
As 11.884583915671561 14.185401295765233 16.17898810453163
As 15.642142964336797 8.013162040215978 13.587279358469553
As 5.889577579881385 12.779671643967722 12.497920080439325
As 16.25104792412376 9.019097498333183 11.399596040941761
As 13.299729714415056 8.822310548356766 13.787317081995342
As 14.471395402332519 10.731956803683845 11.049476745064903
As 13.682820946885803 11.257180354993265 13.329399363621983
As 15.391155248140732 16.24350140358764 13.811622632133545
As 14.057678270152138 14.707493021781307 12.437172676101788
As 12.88073497377748 8.789190358463188 11.30356047602721
As 11.832364367338052 15.748359878333872 12.452667588278052
As 11.490373445549755 16.27809637552277 14.83601717499739
As 13.76245155219366 17.09531390451789 15.472568213824111
As 14.34728648356489 18.478680817448925 13.495811042529638
As 12.38412730040623 18.098319302029648 12.037112692644136
As 14.636411243343373 15.480622628528108 10.098120517107871
As 9.099365542063474 13.747241111382873 14.300470505002933
As 10.621878909596083 9.896846803077468 11.587714796000641
As 11.094402079963016 12.26367914845566 11.086794843062819
As 15.84159531382188 17.532624696545767 10.618381172643799
As 7.329611194051511 11.95498048279076 14.274024713450736
As 8.68176443406253 12.402181478846433 10.451915907590738
As 13.537510986892975 17.691761804615115 9.83911664242851
As 7.385211993402213 10.90770807828502 12.011758218234002
As 10.220711749191839 10.800702941491103 9.30570767754445
