35
Energy = -153.28636028 eV
As 10.793632771677668 11.898329390623104 11.607458794754194
As 16.979434998247623 12.432736565922884 15.61322698495275
As 13.876573490700016 8.502936221665088 12.838579110520106
As 8.128066394249851 14.436892663427832 9.94724160060926
As 13.728680602284774 18.399088320780166 15.298774720566735
As 19.970735175894898 14.534416106299377 15.84797952605069
As 11.26060346702697 16.630307017899693 16.12008846179036
As 15.837981867398076 8.727826667106537 16.218890825304612
As 18.302706309028277 16.248998106461027 16.692141697785335
As 9.377782121750975 12.534802121279165 15.296856605259764
As 16.131531831391975 12.523216962073613 9.800642624190434
As 10.137613853900206 18.01359665153824 9.12751631469728
As 17.868387287573487 13.039441383146302 12.630015428869617
As 16.3827522959052 10.615895652390842 11.353193573101851
As 17.356797974763 16.561147525769975 14.369278290366074
As 15.391667656058814 17.554607741587226 16.94041077298361
As 13.024612573673512 16.023733945833836 14.589256753800758
As 11.27602916601368 15.791899905608197 12.738565802934843
As 15.292040393691668 10.031774401814664 14.150008660471556
As 16.224347151324288 14.432326677794814 11.403561524203935
As 8.425214442852088 12.71008918785275 11.59468729428429
As 13.869093772014782 10.193670538515274 16.215926093189903
As 19.128114547861646 15.005587542274386 13.539714064456753
As 9.668435433765985 16.206503370686992 10.239138716209103
As 18.90967328996025 12.584889135313004 16.877142945873157
As 9.102436990817202 15.959873766568972 14.040423522351997
As 15.950088511429781 10.936514315667104 17.35475551621923
As 14.22624313089734 9.719313142856029 10.871366606544616
As 13.011254846910116 17.771961138405796 17.595283206112384
As 9.471961005307886 14.887425336681915 16.270078678507772
As 16.133330229085423 15.234136671192791 16.065517144419513
As 7.887044641928076 13.75570913183836 13.759819744125446
As 12.363559868916834 13.571268244932888 12.521453064985671
As 18.27456117390637 13.720944595748724 10.245022474714451
As 11.396289321517676 11.823352629704194 14.007564244462262
