31
Energy = -135.18257464 eV
As 15.524715403017659 10.378498125751213 14.591742472374355
As 16.8245528046219 15.931812036740244 14.813776599881578
As 15.775212705803805 14.43219477185452 9.722611109183335
As 19.23092660110967 10.535849699569068 12.003060714774247
As 15.955802785564662 8.337693738505148 15.97894885245787
As 14.277762090724314 18.659949161578712 13.370738687139525
As 7.882573381961642 12.569954803745254 12.875505281189719
As 13.956581674865289 16.368065107030862 12.545812983660934
As 9.924989084932704 15.698200855962687 16.03483318924485
As 20.2669066042423 9.360035565170296 13.44195632771236
As 13.214001248375315 12.945641204780028 13.665911799268029
As 9.5098352279303 10.795747160841714 13.423617648571803
As 11.094464636152587 12.330061128918796 14.914480819927496
As 12.00788967576145 18.227572104942983 14.41746121519911
As 14.851702841985729 11.065437141521796 10.888808989102555
As 9.567937050795775 14.2112231850274 13.976708606094544
As 14.138960459799259 11.056294355058895 16.482079467481984
As 15.635752356924113 16.698625471986652 10.70411613112419
As 12.151164400417063 15.7741779855312 14.94351904807585
As 15.848405001719224 9.785771683951893 17.792926088200684
As 15.881431505348877 18.211510355294603 15.223053439923174
As 13.102918472845747 14.853575847956384 17.077609328695797
As 9.775296807842473 12.136481092681914 11.47891125641126
As 11.620443606753227 17.373333482876294 12.071113942828728
As 13.633095157178742 10.513913008999877 12.960182512844748
As 10.094471727641283 15.420568739481197 11.923955282062822
As 10.902657888556421 13.680391949343594 17.136289804289706
As 15.446562001189582 13.190220117292956 11.708692349829121
As 18.055826334325985 17.92613695003185 14.068653264397751
As 14.62645180054926 13.399536826776211 15.761798900772808
As 17.458347620070032 16.14393162928846 12.386938183015143
