31
Energy = -136.70053287 eV
As 11.122770848152722 17.233547085768915 12.807499954143998
As 12.585667042715125 17.014771627196886 14.78091612786259
As 13.140549617382174 13.43187403424742 16.15061166901996
As 13.12717659568815 16.610262655821305 8.659050260675572
As 10.832063851641452 13.440603090052463 17.126486038604
As 12.088620150934794 15.567138172556307 16.860908308412334
As 12.79845422189137 9.885316153845316 15.49402106728424
As 15.405689074830217 10.88875384940807 17.60518537788855
As 13.942061597305665 14.387921800263555 7.904549024165529
As 13.667208264027032 8.374373021396607 11.731863070207666
As 9.379459471504498 15.480611280684059 13.378376583923083
As 14.156562494801065 12.69196737831192 18.272606193644894
As 11.085367849632838 13.69566585224605 13.51613630994828
As 13.009411147299614 15.641241053604086 12.820935630531293
As 16.060139097872526 8.776685894912552 12.292148109666748
As 14.493861600455295 10.711137720733047 11.937294979149147
As 16.27498593855293 8.80824922431415 14.73959642892162
As 12.277076239238799 8.139824591572175 13.810187408421541
As 16.62599996644731 16.665556666974254 9.49710690332972
As 7.673454188405739 10.624280624059372 13.11407169090197
As 9.385099379897209 10.444209767905459 14.90572089234279
As 14.908000327529258 11.154189063217059 9.563953963774972
As 14.696153475978216 13.542662906898341 10.124277726513455
As 14.494831013309868 17.295530971790324 10.593202840488871
As 9.704875880208471 13.899017964968586 11.476098417830979
As 7.748189960252993 12.381824570941957 11.658289121685952
As 9.33946703371983 12.947984412170126 15.182441000961939
As 15.045776418784243 18.146529710665128 8.290624139734023
As 15.087349132568264 10.892632702284736 15.130634613816007
As 11.43884348217304 10.461969731054179 13.480282342798889
As 16.31558283839252 14.437206475162316 8.45230041405843
