34
Energy = -152.42939096 eV
As 12.991819634768172 8.243026442105238 8.509376503945054
As 11.833025085345708 8.447224596287986 6.287717625982818
As 10.850363229024442 8.463477411212203 12.323963415092564
As 10.687611129459976 9.050152319488404 8.365239641621354
As 15.685329750989098 7.960024978522175 13.181442653436202
As 9.084621075777743 7.773162476315597 13.954689783426192
As 14.427128682612025 10.251925823794213 7.968676067968585
As 12.33313759702488 8.67686053709039 14.381120852018599
As 10.320134283970598 8.395305637440055 15.795319058784305
As 13.309246785830483 10.42693914120468 5.719824437602299
As 9.833103703497613 10.712225741878822 12.032629992572879
As 16.507212164374533 9.142287757701505 15.259530706175266
As 11.811934995972333 11.498347737468926 10.703007254010771
As 10.699937419146615 11.506207207894914 8.461024953769726
As 14.733353221160423 9.71265609281003 11.748059980258597
As 12.65258731944011 11.06043665798693 14.84926880976066
As 12.869690634427947 12.078192415836641 7.463531802252379
As 16.048627302660382 11.52425422406643 14.887809502820394
As 18.027625273694678 10.552314766549133 13.844135876624915
As 12.005841373004603 13.898620471926371 11.336705333275313
As 14.361905227942772 11.732397995365933 13.116672271953673
As 17.167341739658745 9.391618615754659 11.750186247489294
As 8.307448646878738 14.12824567790951 12.071998628898434
As 8.591832248207679 15.719253574731265 10.246013592059436
As 10.358199468709085 11.745065865481523 14.216259212124935
As 10.457422110197005 14.122917528920658 13.388483841330565
As 10.873838836798093 15.096667788196584 9.46390318992039
As 7.074569846419906 15.492065530393859 13.711344357561746
As 8.724693571268011 14.881891379224816 15.470398942640344
As 10.462643621137813 17.299714009293638 10.580674800258247
As 8.562442878376254 17.16508928459984 14.850937656079996
As 12.3499425626402 15.80585075441533 14.211117818932856
As 12.16156017899428 17.498887860016183 12.440873967800622
As 11.086671028386775 17.799534325913765 14.660903849348983
