38
Energy = -169.70094867 eV
As 11.302913201437041 6.811754515389891 11.97611054668459
As 11.521821070369661 8.141227512186552 4.9661466587067835
As 6.352568353482141 10.668223386968421 3.5432343789278047
As 10.035327572700602 12.518238370051808 8.67231928832047
As 7.599408975500447 4.775590409449607 7.094321534312737
As 13.5711801929146 6.552461406707603 10.99216099268489
As 11.57053860458728 8.611018291580281 8.279722523628783
As 5.500381514856296 6.172837349933773 6.898424696984859
As 3.9118047645470257 10.893157060315984 6.250197369654698
As 7.702220208338698 7.27033403429654 7.107682526488039
As 8.297170050154074 10.741573373559634 8.851657456012687
As 6.385521270078284 7.928629208207592 10.430021309637993
As 8.465931292297615 5.032106109940004 11.127583135077362
As 6.391839508331022 10.881455004847963 6.0163076054019875
As 4.856253227564178 11.574789667716528 10.085253405414418
As 12.947174850735937 10.646381644885402 8.061520196477163
As 12.88579597159445 8.756531328070642 11.864497130646459
As 6.542282950095858 9.727601498717831 13.696325479291394
As 9.72721173196261 6.9217282231804935 9.980849977407594
As 11.478091512939915 5.85161413616193 5.988646667530529
As 13.132481178249963 6.710928396673627 8.560877250924412
As 8.5525947274526 9.37462853795546 3.7156936863090793
As 7.275953494448179 12.245624423774945 10.522759447487568
As 4.2451675654099335 9.261918218741291 10.755942923992253
As 8.33236946744055 9.625347291864891 12.260323191673654
As 6.820145483002368 4.25809908551289 9.416400059699816
As 5.0702636849411045 6.049455021084034 9.383807428885406
As 6.606188753936569 6.251704708378628 12.281377751905035
As 7.957257646977543 7.712979858602279 13.816659578397488
As 9.696778924429566 9.519773035600437 6.061886048009791
As 7.635059910359582 13.019994096413846 8.160694475809118
As 5.084901543315242 9.053703684778492 4.991935233492046
As 4.989745833406087 9.824260789722482 8.354945168813945
As 10.034142731978541 6.324120975889017 4.04053441598096
As 11.619286630445032 10.127112929856926 10.191957176143632
As 11.041162874739967 5.342901849761125 8.469287833741841
As 11.118462119930129 11.648155953717103 6.55736183593663
As 7.737563888906323 7.1670018933619835 4.569536897363841
