39
Energy = -173.45504772 eV
As 13.523365439150561 12.59122901571598 7.797734173688775
As 12.414552413045296 9.135981569858723 7.389420611685095
As 14.606671771143617 10.388973261885292 7.347587229010114
As 11.482769012042992 11.246914837919778 8.458738553265842
As 7.51256105413011 11.575926589783657 8.65649764450172
As 9.509575135630545 12.206110150916889 7.2176930414225335
As 11.974610214980714 7.734629177107002 9.464231701934894
As 9.541307029885463 14.420819311544973 8.295440296543262
As 13.836275045326483 12.735029303885133 10.29847961088632
As 8.755237471079171 11.568883081165582 10.821614248948595
As 9.29751383854019 9.148670745023892 10.771435978916553
As 11.83728216308921 9.740543619280903 10.937109440031527
As 7.272124874537313 14.060157734128808 8.837839184301659
As 16.335629167046108 10.005538790930546 9.102878367194123
As 12.224669241509565 16.02236784165984 10.78803090683718
As 10.678780616647233 14.006920973475196 10.860047606994327
As 13.992579583441882 6.600425736155678 10.383301032483764
As 15.848816129392794 8.19810574767881 10.868961775726072
As 15.97974909423731 11.653472468191932 10.926593685511268
As 6.797109954257367 13.843959752834174 12.87320246327989
As 11.330170340184939 16.90423153197485 12.911444549049236
As 14.359559393122678 14.96797910386327 11.379507806199808
As 6.951790092606814 11.37216155762585 12.469014279425453
As 9.089076904713327 15.32444059406705 12.344731217862279
As 11.866878472030482 8.440409539369188 13.092083784591383
As 14.538694396169971 9.895493068065676 12.061099716425822
As 11.829626004065712 12.322185306852301 12.433779607509733
As 9.19547566097085 8.474936686987961 13.156790117248137
As 7.231755558686693 13.633042419084868 15.19116062311661
As 13.519607607944279 13.824762881164359 13.499967886939695
As 8.473063115657428 10.599159568045893 14.309619254667489
As 13.32317400032821 6.519452172536328 12.736889066461076
As 12.134701257180204 15.534351399851106 14.7063699670661
As 13.068664856957138 8.918049218056826 15.291683106408488
As 15.266460421941847 9.781212681603757 14.447630469171356
As 10.515471946545583 12.095425183336257 14.536789977733267
As 9.637572757883511 14.438403622835482 14.623962032774548
As 14.668128030798032 11.998546924739454 15.44023387219235
As 12.638477445089832 11.130624342788032 16.32993262398527
