39
Energy = -174.45405115 eV
As 10.124617292948203 11.807170475092784 7.866752189109567
As 13.617518469236442 11.684106576801492 8.321624183663337
As 8.735684667822117 9.517887544403356 8.185537260510507
As 11.652044462301363 12.229093577770593 9.780262356580439
As 10.188474404384571 7.4162030286210054 8.165213442150609
As 12.424227884311598 9.450941046233863 8.146306022768796
As 13.873892559882828 7.870542418663697 9.486448155529146
As 15.488910975546345 11.52030248054827 9.909791381726793
As 8.108590728419557 13.086576159778053 8.57765474648321
As 11.51023559488725 14.721929801028773 9.939739626211274
As 15.166103218178236 16.909025388921187 11.576618512927958
As 10.57394634540067 9.261874158807045 9.954123565284608
As 6.93099838474064 9.415215241666107 9.940562838671829
As 16.635695734175037 15.007813414613935 12.168908599653092
As 15.614791960676959 9.16582194857579 10.711322397084635
As 6.863922171685797 11.86035414477796 10.382109360853976
As 9.02385022761373 14.897033684432685 10.059987442584127
As 10.247171289357556 6.7473514963839945 10.544774747859234
As 14.226961393306262 10.803193995034418 11.936298433225836
As 12.496990180661118 7.303195531847219 11.465900514812743
As 7.56739326453244 8.525377612530992 12.236004230723525
As 16.85627012481682 17.106815562935356 13.434463145577944
As 8.818738559687805 11.655515108381932 11.902373602447733
As 11.450167167142633 13.9037575871109 12.40401495009651
As 13.42894198816002 17.27796573082128 13.397238320530215
As 8.921586522532447 14.056330183980927 12.448579242013277
As 10.901610919443849 11.261331798744962 13.920224101361649
As 15.069229323572426 16.991677294403992 15.220841535369164
As 14.73187622478798 13.826197984495218 13.238681335924124
As 15.868777378490641 11.655025818534458 13.629089174334704
As 7.289058248975681 10.640783377772737 13.58044517707085
As 9.683744517489107 7.922048667514606 13.521192631647045
As 11.637727562211301 15.705715112120386 14.121896039438967
As 11.93368862472027 8.961655093416631 13.40687391896701
As 9.163080392582163 9.861926365617682 15.081525170066442
As 12.68179510066816 14.39427933927556 16.021116142891227
As 15.125979396203693 14.550427506684535 15.552531836184437
As 12.414276346032322 11.865118017300427 15.898367078928937
As 14.382266308650069 10.593255640590193 15.295442504970941
