31
Energy = -138.52588866 eV
As 14.996025191228345 16.01642764409594 15.063468634666942
As 15.96920866157263 13.839238547895226 15.677145080693881
As 13.936730110761511 14.661610455934031 16.851623581323274
As 11.477222369747818 14.167156711797523 16.50022743075558
As 8.937233741010427 9.633690660067508 16.806992546688356
As 15.166022337339147 14.219719125545053 13.344854268384374
As 10.423030971787515 11.677843217272237 16.167478322441827
As 11.12590454003102 9.275802170880684 15.747149456776663
As 10.274092409121954 14.487131974472737 14.426677114638741
As 13.018730995691962 12.942477830826599 13.276000268784001
As 11.743597163014426 14.929350334406998 12.473520601980221
As 7.824635508150316 15.327098005170578 13.66319288687459
As 9.73689345568464 11.961567601820205 13.76192261736867
As 9.091851066315092 9.398302221546356 14.407119103525748
As 7.933402813147957 14.375698924580844 11.426687387186258
As 10.302732631034713 13.443238233534991 11.084507911314336
As 7.35288329397145 12.924872192934613 13.393754011649198
As 13.578612643109414 13.86161310985128 9.66390879695894
As 13.72650129619605 11.823978849536575 11.110753243565005
As 11.258161674798322 14.453316453969887 8.993484554012545
As 11.604934802554808 10.563144981030797 10.844946868870954
As 14.37914325356301 12.993614769389579 7.493776218147562
As 14.868349803981818 7.994410116233533 10.71849307347899
As 12.415943533304912 8.175865294964295 11.211794660715743
As 10.50035612097602 12.6124215668126 7.540195232640319
As 12.453368363400083 12.722166694317488 5.976049335890758
As 11.358283258971767 10.423925300894654 8.36583341901141
As 13.50284542814635 10.711172726479964 7.119432137037932
As 14.310688000011197 5.760650134260092 9.737078895055951
As 14.557725478207107 7.711734631263589 8.256509915434432
As 12.270121863954621 7.005992298999071 8.990655204913027
