32
Energy = -143.84325007 eV
As 15.963253076994292 14.458505394318605 15.1425446022704
As 16.684720751543903 15.984177276784813 11.695163265544732
As 14.539390027756005 15.455194263293174 16.92007827626716
As 15.955493221350554 13.613424115980411 11.628764358290624
As 14.04679730580001 13.183896077834541 16.138453455256677
As 15.347415042172463 15.131433289962104 9.780147047927425
As 14.784791401622517 15.22304625034204 13.103000309129651
As 14.61951715831695 8.394825034582832 9.383086923909431
As 13.642355743658236 9.357098261055405 12.99312733066709
As 14.458994021815373 7.05321303001927 13.100400791984995
As 12.68263581723875 16.95393770968689 16.12451769553523
As 14.198251806011505 10.231013018052934 10.761333435690055
As 11.865732104546401 13.274256922724414 14.980804676716799
As 14.360125120105677 6.374132987068782 10.75241892208304
As 11.514978495295797 17.19372991271923 13.972094215733991
As 10.794389796178454 15.441843837928392 15.637093630553279
As 12.308852429619218 5.955008304691338 13.848486583262419
As 12.937427366222511 15.810836939912061 9.841792530606078
As 11.637557971281664 9.089495119616084 11.612631387462484
As 12.189582004293053 12.91482062353171 12.287987472735704
As 11.860062109671277 15.474314453702965 12.149027606539734
As 12.126116282248635 7.135491964706898 10.103866662485618
As 10.461872034513604 7.493433336534463 13.269620987266418
As 12.058742534422668 13.55235373128323 9.592416741486383
As 10.946775143623968 5.589588058606396 11.817955570893695
As 9.941554242891797 11.968194314611752 12.691163872974677
As 9.44785987072591 15.7369604327623 11.42116188623693
As 9.919808403947686 14.741737004903399 9.184982412401475
As 8.481734392550042 13.985532909544759 12.869942757052597
As 8.746696659620842 11.128643936871121 10.649204266950385
As 8.22361009161169 12.94363687903312 9.075532952926817
As 6.971043463618215 12.874360498605817 11.18933326242856
