32
Energy = -138.13266744 eV
As 18.77891784726147 11.67471576398973 16.917904349748646
As 19.570044174637115 12.963375799223215 15.184970952702344
As 15.59513492980786 9.512304066085148 10.049687054097166
As 15.317349729226835 7.459280255739991 11.256941256510379
As 16.533981369767023 11.410687761745052 15.824098167003775
As 17.385945044900588 12.844108593147425 13.973256975074941
As 14.067226047024837 11.089776608994049 10.711452515018971
As 13.628808965979733 7.671868152790125 12.809669410260357
As 16.28556337569923 13.870172635291558 15.94522033678938
As 13.002353696342261 9.97631483609793 12.586852011536426
As 15.440565208648643 14.796279147970841 8.96454103071481
As 13.482800406899063 11.714150872631214 14.810354492511276
As 16.697525910452196 16.909470792246125 9.3336112908592
As 14.189766903959125 13.989258860056255 14.563925150753658
As 14.688831800250817 14.835138016367758 11.423692782141702
As 15.968898666866933 16.95736256816377 11.766506920195255
As 16.674134469430978 19.952301188869637 16.351434555368254
As 10.637604800179494 10.240846121621434 12.959850010218219
As 14.607546493876107 19.67091243879818 16.734681312085016
As 11.121610375440886 12.279155779569056 14.160762118752462
As 14.616064102711901 16.913735844592445 8.025490388338245
As 12.06279056569587 14.90329691847221 15.9512259227708
As 13.516648679273635 16.992584610520375 11.691609458331577
As 13.46496558641593 16.288874341321137 17.4612413923778
As 12.672262989311605 15.061909057894542 19.27440983684722
As 12.850612416909641 17.662145273970573 9.479967130533927
As 10.622923857102458 14.588378708592066 17.987781348171954
As 10.221728444354508 14.230835786876536 12.762863092719154
As 10.635475870706262 16.106003523947745 14.30244181697078
As 9.06855897362054 12.384748815327695 15.76759041534667
As 9.77694269555682 12.351194951036947 18.02144160543546
As 8.65728731934136 14.673634266115792 14.64809074130904
