33
Energy = -143.57252378 eV
As 10.670438876682873 13.231844451818242 9.18128661321024
As 15.039228057738839 13.49556527847324 5.721051895685885
As 16.67913033663585 12.49989684347248 13.94783547558588
As 16.76982303252226 12.933778432198253 16.38899714686323
As 12.164296320576113 16.801254684438742 13.099342234879115
As 13.095241875563133 11.123609632414864 12.813872956762209
As 16.279777577145612 15.084507962445805 6.385319092082161
As 12.606112955577311 14.704199914609042 9.592038393628258
As 16.710274842565678 15.442632942693843 16.515968783003558
As 13.34244462511279 13.738852257911695 15.205288508545959
As 15.54964644801806 16.118268248845517 14.421948302269858
As 11.78958179244264 14.354382460046377 7.300002066153997
As 11.485146272364354 12.395066027911557 14.305530124610407
As 15.137226401160598 10.29131368578007 14.01474708950976
As 14.169547533351219 10.414925487120282 17.569852627932292
As 12.935586943765315 18.911440763791205 14.103319823243327
As 18.052918104450246 15.983579608141913 14.497563441220413
As 18.457594898431672 18.318274295946946 15.295617639985618
As 12.854281798104209 8.439656141162851 13.058771767378865
As 13.024536153986345 18.03852731532863 16.453309113918486
As 10.425895473315546 11.233855087437034 16.178925979757373
As 8.175487062811248 14.468108167790282 16.520124958305328
As 10.107539898272083 15.625652247928759 17.188983431517073
As 19.314629506993665 19.11175320072867 13.380278533709
As 15.244092701289551 8.26957836376402 12.49789127244026
As 15.142440572414104 18.443867051467272 15.223635093658581
As 12.929010537569843 12.531426758614312 8.4932916032365
As 12.046654177507204 15.984958957624611 15.338949740166099
As 11.957695302104613 9.813077543905482 17.439319290105054
As 14.669376566246807 13.479279488700367 13.097090459291548
As 9.775487653839177 13.221783905279535 17.79907648782249
As 14.436315729242086 7.943870457756149 14.805877732800301
As 14.45132070466401 12.807839553654405 17.249565238208
