30
Energy = -136.58121346 eV
As 17.448599171895978 17.260268609335963 10.998415652806575
As 15.539186407978521 15.72214923434438 11.7457049178428
As 13.960047802422675 10.606435403896867 12.13657904399544
As 11.608320070746709 11.110667406756743 12.696656137267958
As 18.91007929805211 15.60836756733076 12.093200531434922
As 17.046544414940623 14.772826286467716 13.529422121218346
As 16.76690624615945 18.625609264608684 12.987832407366133
As 11.800950814424727 13.52248920257969 13.16229845686776
As 9.425921567355843 13.78845696580633 13.796879104544706
As 20.346599921985696 17.440516278139437 12.96234897771462
As 9.506423065998158 16.17304918518107 14.323048902020464
As 15.58365255596496 16.720086389413392 14.028460774219207
As 15.193645438353817 10.737946459558634 14.286447501800458
As 11.72963599662297 9.964332445751792 14.886833187960022
As 18.862012699465392 18.82138193923681 14.347216707142167
As 13.737494533884202 8.762658639247316 13.807995829471368
As 21.809444804935563 16.502886216856034 14.767434134998366
As 20.713463628773994 14.36165212867379 15.325575774058079
As 18.544520963067217 15.04579412474249 16.32190536717138
As 7.348747881354703 16.1041045570271 15.577461454880469
As 13.071903831903294 13.65825168401641 15.343830527960831
As 9.475153481417236 12.783723985898884 16.038312496346734
As 13.492020266288883 11.314258590866618 15.980821033111578
As 18.551742488743095 17.536847784931933 16.450302052964744
As 7.617300507273908 14.108178901319512 17.02959347991636
As 20.978348952635336 17.60240632410356 16.86313691805266
As 10.769308557623114 16.328069927589695 16.481386294520103
As 11.332045608600552 14.02291696117283 17.063720709015232
As 20.66741993079095 15.193813924296979 17.67219533510069
As 8.622428297709476 16.2597228182183 17.754853375598973
