36
Energy = -160.79360401 eV
As 8.999891319994722 12.428208678174244 16.2293883963805
As 7.765387553101093 14.757872605088936 13.314481360956622
As 8.466585167706901 12.761692493822371 11.96911604430249
As 9.17920764351181 8.392993879563951 9.806530850656095
As 11.234407699679362 7.024444820484892 9.462735924062484
As 9.715115497733462 15.495985903696484 14.627009005269509
As 14.570792999323887 16.754304205707065 12.102753867106786
As 17.247526376900662 8.772306749713817 12.663267443537615
As 13.484680437632363 15.774553172796912 10.091669952075065
As 14.933610328763715 13.652924726812076 10.28524548904015
As 8.504917182741556 10.240038477104441 15.149134949679235
As 6.876825575136525 13.2606134204306 15.102451166350841
As 12.587268118418642 10.54517655595343 10.374490746332556
As 15.289295723664475 10.23264464916047 12.146361811790825
As 14.823425570772137 13.057879724320593 12.638824060191066
As 8.961239404496467 12.67532734507244 8.493509244710506
As 16.818484904689292 9.560702262713903 10.356387278199136
As 11.127829694413915 13.73208514659293 7.995549124395382
As 16.327438756074518 14.862758963341047 11.973045603626563
As 11.026877191200361 16.85698711472789 13.011386388948893
As 11.384358580096322 10.181476059583153 7.110368021512295
As 10.938109447245397 13.350285611798729 14.937222296950264
As 9.861718183533949 12.467407164479098 6.278012401086518
As 10.405690496463093 9.950447943102184 13.561885606030629
As 13.205223509454525 7.454703339152797 13.205003378794865
As 12.315184027844623 8.976013710992465 14.72954719128175
As 12.964789176885084 8.690801204705963 8.847428150504891
As 15.5002827205905 7.696766629399314 11.329942611020652
As 10.29559400304146 10.576383312444914 9.299508540790317
As 12.890009261578657 11.875290302183815 8.193783343572546
As 7.0078288853268615 11.305023956299754 13.464443460984194
As 13.029403545841358 15.371665397940243 13.51667436960731
As 11.27334308116078 6.577446472005473 11.971617877654905
As 10.810153749433457 12.380831723863471 12.653143910917324
As 9.321437863099177 8.079596199449352 12.313129240850492
As 11.575274471168493 14.945568226041216 11.514159039549158
