39
Energy = -172.78151825 eV
As 10.589291223927315 11.05945485839299 8.513868324017611
As 13.017070337842796 10.876455573870546 7.877114887467635
As 14.463700786366344 12.923272582298726 7.963533054759358
As 13.259907674874007 15.044610445290184 8.45043330001454
As 12.299925831867702 7.839579975904793 9.968159836069201
As 9.510899152802548 13.237282967700073 8.634428319873388
As 15.142380447644092 12.797622516117794 10.382240480054103
As 10.40404691678834 10.720743108185134 11.075211738812323
As 10.78269576370456 15.148821644483995 8.563952837112343
As 14.757315754548385 7.880425590403387 10.322604450559059
As 14.840677187789089 16.764781266592816 10.806453533088977
As 13.449573137760687 10.029907486314288 10.19387661716441
As 13.40354960724191 14.724220714142835 10.981438995049974
As 16.647788573813237 14.684466891908226 10.508193672188707
As 8.898404173656514 12.60696506829383 11.82255155049278
As 8.42077695162912 9.223170359548753 10.749878526227304
As 7.045430949307248 10.89576348682766 12.085705482699915
As 11.09882547434549 15.980892279214963 11.311186987875704
As 15.420301546081577 17.578937720126447 13.096873701297879
As 17.559159000630036 16.36299059885717 13.63937949661174
As 14.615945740569435 13.938618316552855 13.775907470249004
As 16.9613564300962 14.0668396557491 12.920413423253663
As 12.457166124116394 17.822900741423435 11.41248564030766
As 8.436706672501154 7.659731669929041 12.73841442605817
As 12.19004148854899 8.511270791156706 12.378544751687501
As 10.134388146514633 13.066454760867556 13.954244977526868
As 7.149035733444216 9.344629536623865 14.047430220864422
As 11.846273308169344 11.304481125616459 14.234708299264707
As 14.47122445424752 7.7659167487284915 12.789460978035384
As 10.561515748563501 7.431676823495984 13.971649312104397
As 16.418185965540673 16.494228227655395 15.875068903067241
As 14.212769214547434 16.16585243081908 14.76217697294344
As 15.682633877738825 12.754669294981504 15.680362165055573
As 8.541133502358687 10.038736852197328 15.98891684172731
As 16.886568819416045 14.290753635562666 16.84979673932529
As 8.569740560011804 12.502077373574926 15.764318987227716
As 10.874511077521976 9.379248757831826 15.515648126034723
As 10.327534324656895 12.762391958455659 17.488811612570778
As 12.315881328123222 11.983489173612787 16.56888737056683
