36
Energy = -156.87564757 eV
As 11.223121437690795 14.76620310054873 10.754060100571083
As 9.313725408795388 14.847350834444484 18.102160393903695
As 13.453556783890741 16.836842708247538 13.133444854400736
As 13.64821239791808 18.194818764691508 10.113834039616787
As 13.432726759727336 12.413751346729612 15.371956788174327
As 11.366744633051669 18.41843255580943 11.06202773987608
As 13.335221448666772 19.265020330885644 12.329126971654794
As 16.2968179367758 15.031477945875945 14.51059083372464
As 9.99302210664315 12.853946966866683 17.794489179830162
As 14.258576130051337 16.09209386746182 15.462338231443415
As 17.244372637635507 9.254141726040432 10.857427455796843
As 15.348224620367088 11.872650031841385 13.892970062092637
As 10.032344467684785 12.146833029509917 14.59002200479807
As 16.736569328762975 14.95317908391336 18.368038178984065
As 13.434142229963099 12.075827168788171 10.579135407741441
As 16.54294415614039 10.147040523190164 15.22899573955503
As 16.92492516713536 11.690138415118831 17.145856288983637
As 14.975242845806411 16.368971706010207 11.276711422944196
As 9.387529410378418 13.15983567512869 10.878014659811116
As 17.92943641793145 18.489124860529788 10.205617477736972
As 14.390972082755475 10.330879915315911 12.173884819823899
As 10.578115619994186 11.128335342354069 12.389192910790605
As 12.505990928637436 10.119656193327208 15.5573687458175
As 14.976780513829802 13.81630044294156 11.57100883404509
As 8.305690093666458 13.274568178359262 13.094942551483399
As 14.501192019402088 11.757660161487546 17.61000998468763
As 16.362332990280883 17.38355550637555 15.329299914107182
As 17.919854288233772 10.647841544752392 9.391300543805684
As 17.65477492154603 13.970982865292587 16.360627792632226
As 12.361619476650354 9.320140506639403 13.28310879798718
As 12.660515177219786 13.464869106307194 12.450973356384445
As 16.173101258476954 17.10323323878083 17.78924548914362
As 19.433285814582504 19.532128921364777 11.285363145762144
As 10.998860153764861 16.46132502775547 12.555590201810098
As 8.312326888261383 10.798721836474254 13.464552046934834
As 14.684263032885577 9.404275671703248 16.739318908721447
