31
Energy = -136.17462028 eV
As 9.271353543143546 12.895212585432471 16.030162659278833
As 20.46750852484942 17.08617190782051 11.997174164639326
As 15.361309328990364 13.652422015971162 9.87228501561812
As 15.85957415226909 12.639907856624138 13.141741492198369
As 16.51755668446824 15.284023219833482 16.186761671393526
As 13.068991056019414 14.544565668022697 14.657265510047212
As 10.848687737852716 11.794406640276033 12.755732110334145
As 13.113092073258745 14.764891979740582 12.18305109532164
As 15.615865761345912 14.874931738305108 12.026025027941955
As 11.955833089584468 11.005756862976305 10.690396145700896
As 11.92543042260744 18.172563888497876 15.56404677174982
As 18.990858832012666 16.894538651169377 13.960100932177273
As 10.606097862176403 14.922736793378403 14.64586391459105
As 11.945282391520461 9.800390200335858 15.821824661539594
As 17.882436128416977 11.796543806636032 12.098878195360856
As 8.435596114574517 11.444646096655578 12.153847784272106
As 21.164110580082408 18.03227265319127 14.152300135617084
As 13.969799369241946 16.832220976288 15.088477349947755
As 16.067205706932707 12.824020390774324 15.6498160370574
As 14.60559712994358 16.16295800197082 17.34817836174437
As 18.363274463807766 12.385835963905796 16.310678386711515
As 10.874978618513868 9.46247358570406 13.638708783466743
As 19.339183218429948 19.07836115908385 12.883825415651541
As 8.355786658577866 9.546828140681239 13.776012499081405
As 13.671126431156335 12.447333931990867 11.342377370866092
As 10.22029687782576 17.395427980287895 13.98837362024658
As 11.111439953834655 11.651483607436012 16.930429129619682
As 17.447654012769853 12.32386850196963 9.907647426402672
As 10.15021503621195 16.64586905481482 16.358560520738024
As 7.674655303976527 11.801216899916117 14.49500860776768
As 18.116720769102933 14.218103405526623 17.718088481746772
