35
Energy = -149.91216147 eV
As 14.344952890373971 20.86548973793381 12.571468512501312
As 8.255833054254937 14.158934045939802 15.579239755291924
As 9.83667271716166 14.018376954978697 17.50286913935634
As 15.330811077497103 15.18789378615315 22.84233885531222
As 9.787707416629312 14.64153954234215 13.721736385195033
As 11.979532724656343 14.58570823928127 16.43603407570721
As 16.077363574766526 19.1709190577705 12.387262789523565
As 15.568872795438589 17.820845689996673 14.4151112752671
As 18.352003940058825 12.893525493619352 15.053361217346984
As 19.639163416051105 14.35821634005399 13.551433693240764
As 14.140895173894718 16.075341836438817 13.587357159933006
As 10.196408307069529 19.896355956276032 11.877738044796438
As 17.55832855184154 14.236799326070264 19.5414997831361
As 13.411731740342635 16.61062368290264 11.258006620875292
As 17.185758561325947 16.199412571229004 10.673335499695318
As 12.320824332542536 19.76561104258288 12.221796237390194
As 16.09992144704688 14.757174181627002 12.407838774470427
As 18.203166853196883 9.406327326136495 18.16993725840269
As 13.337583332805275 15.572674944818546 22.23317386373948
As 18.433742640531324 15.464424254539846 17.575466066049323
As 15.387897662079807 17.86097053878999 10.386266231243464
As 12.252403500577609 16.217587106176097 18.14343139990266
As 9.902564593321534 16.331927661735026 18.351199463658283
As 19.231636863361718 8.838143205937763 16.011205305082605
As 16.629861903451975 15.234819067275978 8.497575815194063
As 8.83877472831798 12.777138781972967 12.599213720232733
As 18.238753093510645 7.069187399019591 17.399869281088282
As 16.71603852269519 14.642885966072326 15.930747066638206
As 19.269581262979113 13.268178319099269 18.406425477282045
As 17.520375136358016 16.077168058383865 14.09607520181369
As 8.282538061045173 11.853454692235173 14.699006323804726
As 16.79430404183267 8.713532997444243 16.280527064613953
As 13.852993219599353 14.17701822233732 10.909719490874338
As 14.706420544077469 13.977178932269121 8.685507889128772
As 17.993435558611377 12.896848539319143 12.598739241217311
