38
Energy = -169.1932698 eV
As 11.441595290803592 8.938038280668328 5.5132152518464235
As 13.175991342643373 12.119326260839275 7.351480173670359
As 9.093668148481564 9.444160825281797 6.280347670514014
As 10.68411363214107 12.406984779078673 6.51075538814424
As 13.167232500401767 9.617959815402195 7.228709849618061
As 8.73247732818995 11.565552397320381 4.976677942607339
As 9.409414693187381 6.663503212498833 8.149118849693895
As 11.213447210201767 6.570359994358906 6.345598171541645
As 6.102095420794875 8.872435207203226 8.35231305203635
As 9.521695334435389 11.027093037303802 8.235260244070735
As 12.79372834029275 9.166825793295917 11.21398833006644
As 12.184201304426939 12.144732885654225 9.559202287966325
As 9.21871439697386 14.398326639911911 6.960437586230325
As 12.756250219124922 6.593771858538345 8.32213584335701
As 11.975998648411297 14.712532959930122 9.521568276049459
As 11.657344910063975 8.774874280811503 9.068287112206916
As 11.036860416857982 4.944842249743026 9.049446699863832
As 5.6982910949593215 6.394893054490947 8.129526354204893
As 7.660844018471333 12.429918332587507 7.0677781737385
As 8.077900969312122 8.955209857559193 9.915348683310171
As 12.919564200449216 6.867875708600294 12.23672382231223
As 7.537073936872889 5.190314089662006 7.467310297471805
As 9.71066090360351 7.025663491744492 12.150048856009413
As 4.92077516181133 9.142822389226879 10.562146841639219
As 12.634788669548758 12.628532064429248 12.644591596623158
As 9.675627756280115 13.055386141621693 10.92372236294545
As 9.516784038166048 15.083559079662319 9.362979740456261
As 6.538502462772421 7.267737435994629 11.011343744722982
As 6.709348780400474 10.929489223321406 10.761982655629051
As 11.213723689946058 5.124423167322431 11.56245024786831
As 10.569981185217053 9.639126665281117 12.738719137117524
As 11.33135734418651 14.594948648115045 11.953127596594634
As 6.960260720617927 11.057255084701493 13.228090623846
As 11.229197853361303 7.568084569108592 14.013668167959475
As 7.475751537630661 7.044862647740425 13.358163346912042
As 8.313047605750455 9.210711819516506 14.155306285336561
As 8.644038522403022 12.935454091793698 13.256208010808054
As 10.799229780284538 11.832844291426822 14.015895611429944
