36
Energy = -161.11166084 eV
As 16.07610437990124 11.609405755463827 13.608357499153819
As 16.455711509047017 6.674011319200924 10.03668517850112
As 14.073549243541207 11.998864578653688 16.69045066069655
As 14.200373725828271 10.433784906389329 14.781453399280336
As 15.74937839729887 14.027070705815307 13.18591439490469
As 14.76038758224902 8.042269251115608 11.173316118217603
As 9.47083867257803 9.691694947727678 15.68455739583831
As 11.713446765271419 12.71004211666251 16.860760839927533
As 13.411261877507412 14.332614127978625 16.07349466003036
As 15.985877391841564 8.97473464403678 9.260538074910585
As 15.762603253896776 12.41959518781022 11.275049455988134
As 14.329870129852873 7.1926606653553495 8.907174915580354
As 10.538305433373903 11.893672928289396 14.811978817654246
As 13.458174765047938 14.910927113112985 13.63478140202316
As 10.947103730672556 8.442372379491001 14.16849056702908
As 12.12090426427081 10.607161517446345 13.400354347506761
As 10.19962974381539 15.586861185211017 14.004317739979003
As 8.6632547368548 9.128141174734061 13.426313880051893
As 11.408255527337223 13.65199110051037 12.877392904987119
As 13.333455173673919 12.321682645264021 10.738456395331255
As 9.288884696502928 11.163583214852098 12.01497449550589
As 13.52874569101381 11.549669971248305 8.426773204109296
As 10.915811583620151 8.274295512301983 7.7796822905922065
As 7.8543946494244885 15.083795851460858 13.418382630311468
As 9.24823750589432 16.534569237178676 11.91208724454339
As 7.389537223980394 12.817727084420913 12.351469400952096
As 8.74101217686279 8.299723398846874 9.044306741063025
As 10.693282644844556 11.737615535016417 8.85548025911157
As 10.190503905601778 14.543393923892888 10.659873711262485
As 7.748330443216832 10.300280822722245 10.185505312869735
As 13.561832209018137 13.959425916573515 8.830224557009398
As 10.736264919147326 10.49642790429309 6.6891882334044235
As 8.816837258051464 8.851142314145482 6.617037269083414
As 7.848798465952218 13.886019555643719 10.164008130811608
As 11.092180045924538 14.198206298577784 8.35481375141951
As 8.118529823635768 12.086234755108347 8.52802366690983
