36
Energy = -161.68440037 eV
As 17.3857024384393 10.420175980033797 17.124590547644555
As 15.056221677501615 11.140735890871554 17.492668008938978
As 15.524975350538265 8.956677899452663 16.468224359147097
As 15.971146100256618 11.031821143728191 15.209363779512946
As 15.658228470841177 8.99829923904451 12.241492921985513
As 14.93656356901623 6.797345644065528 13.302430847576078
As 12.284166924496692 16.60594066941103 15.138070348016658
As 13.289402358018018 9.774308209196 12.580069683937483
As 11.471072908531434 15.4641051593706 17.265766805261478
As 14.955002304119203 8.056738962707877 10.017473855282283
As 12.31963644189123 13.225388492380878 16.406046366902626
As 12.537101826779724 7.405434628495459 12.97603494635413
As 13.67552964128683 14.541162108591521 14.755672451240269
As 14.67829729704909 12.89022023634253 11.294340969958403
As 13.742043908809205 6.195419042886659 11.187503312576128
As 9.899676698756329 16.162174864315176 15.528463558360613
As 14.91024180552757 14.699322670571194 9.623172396926618
As 14.162600549419293 11.739737715849325 9.316858864955282
As 13.021223178200334 9.63681583804909 10.106151509155797
As 10.869543938743261 12.47404993937463 14.517064446091899
As 12.464701539810138 13.547244063207822 12.785065234550492
As 10.433033533674982 11.578305072533391 11.028447793940314
As 8.984439462109387 13.958065451796147 14.883910789613507
As 11.83318411089781 15.805962808755798 11.873303213746905
As 12.790388269466657 15.657158195899955 9.596562286321173
As 9.445898794246332 9.832270347325878 9.581755676498503
As 8.085070721896255 12.19811734990987 11.628040977441735
As 10.924933880056187 9.845201236774331 7.574317256694917
As 11.202224818878827 13.312667399588198 9.355423861797128
As 8.008826362440011 14.460044961825746 12.627791298471648
As 11.467548697385004 12.184045567520895 7.169981495398159
As 9.414425656271701 15.915262409666793 11.169929360805153
As 7.715819360714777 11.074534452176541 8.249522013143297
As 7.3151239476245 13.198458935348201 9.520206718043076
As 9.198911038669802 14.699977614399486 8.957773017955398
As 9.259277376641865 11.408994757538753 6.338693984759583
