39
Energy = -174.28694334 eV
As 8.844244150623936 13.127189378463688 5.92790966699734
As 10.388478566485421 14.592479927964876 7.219279240230555
As 14.25605495774606 11.047775942902803 7.065126736371592
As 11.74403064791268 11.19698161096177 7.004413381267864
As 7.721703894118604 12.229041720527253 7.955285836101195
As 11.474750651479642 12.963031042986186 8.77250517794615
As 7.926782383973004 14.677025976894223 7.618255182768459
As 11.594772593148166 9.411935768455937 8.717229716447115
As 14.572187651053211 12.799903195251611 8.750997012089538
As 14.912833422021684 8.845031335351903 8.156234887357286
As 12.034480206775475 16.45204897983262 11.247955660488511
As 12.918819673392438 7.491671341983224 8.21452105370976
As 10.05012191301073 15.183512179135757 12.06684006641917
As 9.335129632232322 12.179266997180658 9.837232654580408
As 15.385051348775919 9.431330439944514 10.55774041934227
As 12.080484374280218 10.56036371236025 10.901357813905433
As 9.72689874598093 9.77710117989656 10.330581866918813
As 12.292975244828922 14.134066325241779 11.844656162395761
As 15.135112527200711 11.866401349294962 10.779086899304184
As 8.036456513038068 12.654629824792615 13.234503600240323
As 13.309859797686354 8.521015185522007 11.628650393801335
As 6.63304715023337 11.507581614786087 14.922126537105207
As 12.583061035182075 14.687447706422692 14.420011035958305
As 8.453335868238177 10.274537556598585 13.790796455895363
As 12.055812899867464 11.158255878517174 13.999869397555528
As 15.824886174420273 10.37717314327671 14.143184596714224
As 15.312372637110975 12.74835157995802 14.593612696674288
As 10.49925501423732 15.960320470188025 14.51012359565956
As 8.117235715346581 13.397744270008173 15.617688023580406
As 12.095249606080278 17.64733488296265 13.625864676016981
As 10.254465985803394 10.219280196794882 15.495280686255771
As 13.614054236597223 9.21633071523441 14.081183950963016
As 16.455859070501635 13.084406116065487 16.76343690692988
As 13.069114547806594 12.618319888120842 15.768987014036695
As 13.887564586737797 16.62705485961726 14.869791301101882
As 16.396436948992598 9.492823124555674 16.392665090166997
As 10.002095925714496 12.311329593754149 16.690366715593925
As 18.029093061198807 11.196666805318005 17.138092866232324
As 15.776160143823867 11.133567686532764 18.14688452853353
