30
Energy = -136.5685754 eV
As 13.932635051829562 17.72320298636586 8.243140393748751
As 13.148412703245322 15.474386408073274 8.955557104607456
As 15.63620295891821 18.41883067909512 9.917831952229285
As 15.09906890428753 14.945186282423553 10.35433850655779
As 13.726620620392724 11.644345667111155 10.044422191389389
As 11.349101928965807 11.368671874415266 9.568732737618564
As 13.268445473441265 19.285118546422343 10.0462131284739
As 12.546861104580138 9.829594160862714 11.213999943760804
As 15.193753397527917 16.8860580412776 11.842795180466492
As 14.019491818847742 13.302429296625673 11.874791673506992
As 11.511109614342924 16.20079013501576 10.640343322980318
As 10.20474187864533 12.540009148708073 11.468462713211233
As 12.847433599656313 17.7510414582071 11.984899253910317
As 11.740176009341255 14.321127606360095 12.255881006288712
As 11.14372237327029 10.857051928722447 13.019682121935226
As 13.702773221621657 9.300789633904396 14.415301346979794
As 12.137344549205254 12.361279914460756 14.930285691175754
As 15.803529390137859 10.601912890078127 14.054602094810537
As 14.929758419972615 7.582110554251221 15.809313249328405
As 11.588949319139077 15.849181403192084 14.736418048553862
As 12.620927332022667 10.341608141614813 16.340879139575026
As 10.370935583928791 13.971636332934922 15.692922564123387
As 14.093036961918422 14.006323057173452 15.071374535654682
As 17.037539032620494 8.900133997242422 15.461941228910751
As 15.833848632915332 12.283297785526786 15.820738979218923
As 12.31314734975483 16.538550006632597 17.072492048165966
As 15.837667623869935 8.985113059899456 17.61948949163146
As 14.574863446536309 11.16809368589547 17.589727514996557
As 13.84099079342879 14.6227247419251 17.474252501497446
As 11.411996884134767 14.404486554081489 17.944256313192337
