37
Energy = -165.07227252 eV
As 5.890158811714049 13.47237366788944 9.622445339196355
As 13.063898718449606 15.072606297551125 10.0872349220959
As 11.21036289747714 12.999365505040641 11.65628013577363
As 7.488961439705027 10.940797266045823 14.042204368395318
As 10.670589518108184 14.639965134585202 9.840170128463734
As 7.725757623833874 12.93910653083957 12.563738593211413
As 9.877719102645246 10.32492866973678 14.538618663901767
As 7.717903490888827 11.87546512378774 10.275402096246381
As 6.237478659447969 7.784445095621059 11.171515265414047
As 8.894171171820696 8.016523892489285 14.445640071167954
As 5.276356815707706 13.166602751309943 12.023468062660625
As 7.962194793663211 9.112169223211904 12.413553257828445
As 13.575387500437042 12.328915012000367 11.07564461243621
As 12.865713234935908 10.901629589985884 9.111779953408854
As 5.294014732728346 11.237840500682195 10.41833513406638
As 10.893648268824549 10.03220808822601 12.193749978994111
As 12.904352120116076 12.673303160035799 7.379173644275904
As 9.431300405764858 10.358228174986412 6.988514094323369
As 7.038125187771569 9.780093326975855 7.3306293551085036
As 7.878046774682514 8.448893136191819 9.32595263588268
As 9.997090060693221 9.300910425388995 4.829047841393581
As 10.794862642979753 7.530823737793109 12.771148158042262
As 7.65137370758107 5.724987038382072 10.919788361444025
As 10.810308067749654 8.647494372004697 8.215485968407615
As 14.859624180373991 11.184835679517155 7.635522403753244
As 13.171743752628807 10.571608284111017 12.972814493828622
As 7.644818087221232 6.251782218691958 8.184678744147904
As 14.407834970779813 8.71034244065829 11.837197937847419
As 12.1271497333254 8.675792121883724 6.036643402047469
As 13.318450163453734 10.859571179942462 5.7201287639997895
As 6.749098950060057 7.657428098093028 6.064107992648371
As 13.249048813634689 6.654442669074281 12.641358983716131
As 10.031841448168384 6.091482645121165 10.939969853257212
As 8.97476970789254 7.069321905187822 5.207380680128055
As 10.047438113039428 6.38793834817978 7.409195742744712
As 12.945443170704548 7.341122119175673 10.373414601062127
As 11.562760971044233 15.47445437965344 11.977863568731031
