30
Energy = -137.33297057 eV
As 13.528543179651411 15.752280079523114 7.018249409665506
As 11.664729118934194 14.13798985167625 6.717290148918877
As 11.15453614508582 16.409926481966394 7.583957712759604
As 14.043778113752628 15.556244863334491 9.451479590966636
As 11.71666006247819 12.642233763882968 8.69836637598823
As 11.689833474701592 16.21086581023057 10.013307193107002
As 14.025322667293217 13.113778325680007 9.394332531118044
As 10.467253367848379 14.105258846263395 10.228691179897284
As 13.798927074614866 12.76222501401585 11.837271245964804
As 13.849050265828799 10.3159632117957 11.693782953549437
As 11.435488965276123 13.377770892785094 12.404004032369055
As 11.510083301424613 9.589497394276808 11.125502205666942
As 10.12544901553106 11.282563615391652 12.209233343677305
As 13.399784418395564 9.805118573493079 14.099651399048868
As 13.237362841256298 12.04746476768918 15.154851009434145
As 15.715767247790303 12.296512780777087 15.42129531036461
As 15.374651191323675 14.716874327466211 15.643232773375464
As 10.961119338521474 9.445646943779186 13.619213600325347
As 17.55671111155893 15.426691331623454 16.57220660724015
As 17.025518086353408 17.805518727409172 16.358866035836627
As 15.648617050204955 11.37807423152924 17.76475441640453
As 13.18774721243535 10.927273181471245 17.424082039701624
As 18.808402043135448 18.545191060818148 17.9393802903707
As 13.722028263937657 14.87150178473304 17.527907897754744
As 17.194682436720466 15.064239885242932 18.979532745818467
As 13.96787861466912 12.787388336705417 18.85681892665712
As 15.276185731766912 18.232423476633862 18.103582550598272
As 18.530556704340263 16.972286316465564 19.837235824661448
As 14.985497798450039 16.1036949064007 19.272515823535894
As 17.048470482250675 18.968136542471967 19.700040150753278
