38
Energy = -167.82115807 eV
As 14.454729251273253 17.972794110896118 20.945287765821757
As 14.471997064198991 15.335793337262155 18.63618547992418
As 15.665996158185626 18.953680884094506 0.13335202870139753
As 16.17496952889242 21.833183090560706 14.690257010126473
As 17.586348083184756 15.163159207403579 12.466656627336567
As 13.335606043827433 20.738203983531644 16.72135791577538
As 14.052725843861314 15.557982910763826 14.162504772793186
As 16.14750881603401 14.478639547523917 21.56073834007148
As 17.93169812716799 15.792551837959964 14.771904190250737
As 15.8882712435992 15.93801996738848 15.80431526964505
As 19.89677563068251 17.397503971805424 18.55672918862658
As 12.760683992179409 17.73810213816693 14.270414169946857
As 19.945445572805465 16.894166241100514 22.054209938466037
As 13.894745442219282 22.632354637026076 15.204715121061893
As 13.868799850258375 15.551606504507264 21.09499170909532
As 18.404042598602622 15.180736414024704 18.821470006010347
As 16.805535760324425 17.038935206948956 21.120078241159632
As 15.418142589757297 22.053493112855726 17.062674417145868
As 15.153562659928134 15.08812982261412 11.996349783742357
As 15.731973173115586 17.585069955954317 1.7581314864183804
As 15.751702599351777 19.462728169143098 14.078114472303236
As 21.3243236682492 16.097673975072297 20.13824172283356
As 15.799762373813738 17.438174733030994 18.878663389040167
As 18.882439667962494 18.49942998754148 20.474201493121168
As 19.40160306140464 14.656521021266359 21.056287481647132
As 17.750110536929498 19.444662315525566 12.388535068280225
As 17.95376103870968 17.325193425020363 11.173715799974877
As 20.473354892059934 12.003741467323435 19.340275375326215
As 14.311703444166282 18.55737218607908 16.013504398979325
As 19.55274839573544 13.344729598347534 17.465672960294807
As 13.683494052326763 19.533730272070127 12.74488308250541
As 16.23916193508034 13.706356732681918 19.28013480325351
As 21.03043733708675 10.238017822760687 17.65844590934072
As 16.24726501365921 20.58499017359896 10.947755357463835
As 21.948034971693616 13.558053540126531 18.080890533239515
As 14.475476009359502 18.985331260743923 10.452426452849691
As 22.393036083504832 11.667942116104813 16.48372366064309
As 15.691656120022254 16.853208867378477 10.247748449293942
