30
Energy = -133.37886564 eV
As 10.482464403031017 9.18988491178809 4.835439650526273
As 9.037680632506042 7.336747834266203 5.644770836140084
As 5.985790754829604 8.40845918140246 7.733057489128408
As 11.438486508112735 12.40026271155224 6.25561081923531
As 12.738651779696507 8.733049308005643 5.822183684369974
As 10.713657266116618 5.851370208978252 6.662775674832339
As 9.590302150088787 10.719839517378418 6.614968520485143
As 8.324034400240327 8.029949209832504 7.986739540211042
As 13.120037490328507 10.789694201041076 7.244593447429936
As 11.988518203196332 12.120105820219012 11.00677783331279
As 11.13986253094717 9.740659765439073 8.369641032918127
As 9.909663475469955 13.119306718607373 8.066190775057057
As 8.892706976833198 5.468776349314015 8.335227466421088
As 5.5072311795200255 8.870093514430362 10.071605921545197
As 12.129164253757285 7.483485708721915 7.957644663267746
As 7.720302463534526 8.336090851669272 11.096683707717078
As 8.26088403375862 11.989218332636508 10.54033004652812
As 10.482952777462764 5.940708319151024 10.06881186891535
As 11.036580961844779 14.173306327322559 9.987179270059901
As 10.328249114835842 10.201027128820698 10.828350481146119
As 12.012890416278776 8.882333045172533 12.365166043347648
As 8.733485669849165 14.437812306077348 11.010168791747732
As 8.834641160350245 6.171633108482153 11.845781098294053
As 6.0193028202633965 11.054824483936688 11.410888259136856
As 11.273838011988378 12.69337895016725 13.269266931360605
As 6.659064128839463 9.338582985247067 13.121758514495454
As 11.488880675542854 10.395830699828196 14.299671893501591
As 10.204190984533597 7.528654676710697 13.463296234705924
As 8.771228305401891 12.822473076812962 12.861674915758671
As 9.189607153626033 9.786791429772059 13.238095271188811
