35
Energy = -156.10191264 eV
As 15.910862744160234 9.19732935835544 10.420695039970468
As 12.927742871053859 6.784155769188387 10.108760843156375
As 13.912920603556561 8.802534848822054 9.024517601656997
As 8.69708303462949 7.368737202958094 9.079168605732365
As 15.778872835241792 7.675091898877935 12.350247258499039
As 13.588127132694897 6.854104232536967 12.486463898115439
As 7.033362266319894 8.28470708484576 10.71792761691623
As 10.702783024911994 7.808994481716711 10.566015175318471
As 14.48533878864455 12.279979833154735 9.109526115954296
As 9.118333227043513 9.710323029260215 8.293455276889196
As 12.305280715624574 12.974196487335758 8.19985852956256
As 13.847564891108634 10.564322115298864 10.80419670898617
As 13.013341392001749 15.283796557825838 8.899798277108205
As 10.255185047911194 10.349165214391634 10.5451832570976
As 6.78457975741112 10.186437781916371 9.051424439383974
As 8.567728775604273 9.533989666202016 12.233757286328279
As 15.002810702772795 14.525430663060467 10.166724665939173
As 14.609807491914715 10.577287435366205 15.163241510855713
As 13.15058099467996 8.64365062053509 15.414235896850064
As 12.009920765228157 9.0961474105358 13.196261531801095
As 9.996350507503703 7.566849442173094 12.916433814854605
As 7.95920515724196 12.021420761093996 10.277989082290077
As 11.429301755261774 14.024451165548967 10.356906528342105
As 8.177332577842543 13.305102786833853 8.15764188699503
As 12.954328058194282 10.509222267499041 16.98787282174484
As 13.012429134426538 12.376318114047454 13.86331477696541
As 14.314162550754311 16.031455922456374 12.170551993424835
As 11.576564008504393 12.368814667957288 15.913479595159526
As 10.802605379325742 11.347555931188703 13.855705616456968
As 11.886243156417306 16.246668854068172 12.259961431409533
As 9.560285520260203 15.135170994306009 9.107979204728295
As 6.425459197964064 13.7230677245398 11.288814270197292
As 6.240251393584534 14.737774999998729 9.018585000098074
As 12.99216667061762 15.147318705875216 14.03017274544217
As 7.751898674819756 15.739236775461963 10.743942501001566
