36
Energy = -161.11475044 eV
As 17.547262799077117 11.581720541862483 13.691603788254357
As 16.55001355394239 13.617294147176029 12.671521697952649
As 15.94149737679049 9.733875142827202 13.102862990427768
As 16.037856840928672 12.207783445531536 10.681893614790907
As 15.927506159237042 10.759650274558759 15.36843862208037
As 14.187274570783895 10.940326568382808 11.773710458195664
As 14.715970076501199 13.912124193851303 9.355116250083114
As 14.183361642718388 13.72515643295247 13.43498504098392
As 14.04460350778599 12.36464266336075 15.47678010141375
As 14.168125531588238 16.03580156313258 14.33443183638512
As 14.891162241522679 15.868137608881971 16.675217563615835
As 12.671573171339782 7.726367583085819 10.024430584750043
As 14.639985880510318 9.285211474270628 9.942232423788253
As 14.998623484741612 13.691274785609561 17.306971319981496
As 12.342134489745275 13.84142162923436 9.932321076118681
As 14.601703039647798 16.687964362049648 8.990806046236793
As 13.223205361671962 10.210388954079704 8.075044048832304
As 13.033257203619593 17.388771647507614 10.573544959935104
As 13.129961327349488 12.711427708867632 7.8522861925311584
As 11.08652569379889 9.473813027943743 9.211009547563025
As 11.695285995630238 15.670409055330854 14.801598794880281
As 12.165088485139618 7.45508880139575 12.421783190979292
As 10.760045508505282 10.958494368051035 11.171887637614741
As 12.203450131733868 16.08241949476094 8.683884326186229
As 11.534768919687796 9.71233677976974 13.189682812775914
As 10.632982807896372 17.82843201380048 14.256459255266925
As 10.843769497441862 16.296450091571586 12.559871862491175
As 10.080968065263907 6.255741665883057 11.846682026498387
As 8.333110850907826 7.6735599270577115 10.851602861604412
As 8.42806128210135 10.093123021587456 11.60667097193796
As 9.116076831416882 9.463671349037092 13.921748666710146
As 8.353731229750748 7.129142557549166 13.338342221278143
As 8.494315213584635 13.96331940920913 12.608913002412212
As 8.36518681563483 14.134873480957133 15.056767205185336
As 6.773406699591406 12.690385131475388 13.863718355189159
As 6.610404419496853 15.141655804482214 13.657435352154558
