37
Energy = -165.31459802 eV
As 14.726842864376792 19.047394458117733 19.622236155627576
As 11.145282342335074 13.78920356548219 18.50747295232561
As 17.16686130521288 10.634496573678097 17.307026027165875
As 19.86403676984633 11.34850232749362 14.639948662648012
As 19.18412860477196 11.47846310615834 18.458290323133557
As 19.214097840247835 16.03553938546071 21.708510200636933
As 15.97707979975949 21.72969610521777 12.45848466881638
As 17.70421733186133 18.703620555413814 12.500804380481805
As 15.23646862390281 15.844815884056718 17.439277369978683
As 14.330609802536515 18.829085369557802 10.334751712815407
As 16.079956273808207 20.911653559384273 16.01504527249425
As 19.954443880223465 18.205100346190044 20.784486508994796
As 20.197043298608264 12.76552363437531 16.613131248422768
As 20.242927088513408 14.929802050969062 19.6927796792347
As 16.270412592739525 17.41806919209527 10.87436573557588
As 15.645188359929914 19.613609408307955 13.814841981942841
As 18.480167261028257 20.627107962827683 15.46813347150602
As 11.398585064279771 16.24927027445539 18.369173001692218
As 16.45712587320126 19.378322585201282 9.257614340706196
As 17.38462633002903 19.18443035377453 20.925163037016
As 12.738480135748022 12.870759325123005 16.854593360593565
As 17.629601617879466 20.587962654495804 18.857963312172494
As 14.704033235806051 16.639509393532332 19.74839825181573
As 19.42204944527159 17.109547729101287 18.618854161205142
As 13.049403550266785 16.632296350123088 16.568992305902714
As 16.30486932380389 12.670304376337082 16.126754157408804
As 18.15775046906028 13.716963863481803 19.017685735321084
As 19.572350179832277 19.982132909814165 17.44417800419112
As 16.24109042244769 19.011588062347727 17.616553241948093
As 17.338692702973713 16.839527597997296 20.11249247709333
As 12.304538099073872 14.701695307227556 15.223500569910671
As 17.713517292233483 20.672659716083828 11.003898126294255
As 18.184717880442335 14.269237435265078 16.559184568808664
As 13.904897526419752 20.459422245935077 12.127851692007361
As 14.840477332661965 13.43259246282423 18.03099961354093
As 10.149723959600905 15.008711504605047 16.56652639553986
As 18.08989916809991 9.996839203413028 15.113716363188292
