32
Energy = -140.9194169 eV
As 11.94983288193573 7.311422551803465 13.920458808450963
As 12.425075996982434 12.447917484101307 10.307460530504112
As 16.23197515175845 13.268373823671405 16.154687800380728
As 9.787520088446565 15.199898202369443 10.73779542395436
As 18.569690005108026 17.386568709542512 12.65969101585251
As 11.93137739602785 16.323757733823758 9.683074052849577
As 17.990898207533334 14.971005634273629 15.646290159056221
As 12.882267002065666 9.634135428383338 13.667299398076803
As 15.37648126485816 11.446828258703105 14.671272084099066
As 12.148971575255873 12.73420596960584 12.779869254189082
As 16.144185074524877 11.352342750108672 12.322980765174458
As 12.878593202073851 8.507614348976555 15.884013564576971
As 7.576396573829663 9.697149735617757 13.61477170374326
As 13.110368867984517 18.1707412054136 10.545170663229149
As 9.612956185580146 10.646644170081286 14.58525355143014
As 16.11724046478191 16.52140899526651 14.905532284845604
As 14.358963065408235 14.798754877840581 15.455148779728042
As 8.633259196384454 12.611145402384066 11.40759238216603
As 16.978873305419675 9.70119944913691 13.97248075072894
As 10.699762736863034 15.825255989724736 18.788868938187335
As 13.567117319102797 14.491656654715941 9.467760245214528
As 15.117807937669985 14.75601586139584 11.408669658910489
As 13.366723323957844 14.876188292375357 13.166910146870041
As 14.928579672448539 17.217633402026436 11.800841423976888
As 17.01922422289024 18.42647141482551 11.324309364701083
As 10.039670132117175 14.01112248680144 12.916661667544147
As 9.388246814080587 10.19548197873086 12.161146816412096
As 11.142146014331153 15.717183762368297 16.70956369829521
As 10.409014944494384 8.402426535800577 15.511795104725001
As 10.168481899043849 13.121631046086517 9.482322019602096
As 15.096414192472464 9.104373654591472 12.48520707151064
As 17.466464372839134 15.23711951875672 13.261623608472169
