31
Energy = -136.23255136 eV
As 20.72280051455807 13.351712466852701 10.777657744011519
As 15.637173772301416 6.814868031645147 12.785957991108928
As 19.798880887096587 12.84943054170948 13.000647301813059
As 18.293421386997604 13.513772278218848 11.166748352760548
As 13.98465255205569 7.735990541802146 13.749617980873719
As 19.818563902612706 15.160854235105294 12.175611705569013
As 15.183144452035984 15.391392052532899 10.470075366050809
As 17.087423838148933 15.848152597114293 14.896921433004682
As 14.394662114820328 13.109645486492523 11.0859116654671
As 11.851692298130455 10.712813223439964 12.772634631684165
As 14.97896114245502 13.84039342329977 8.795853801696639
As 15.866162084535672 17.97723722378782 15.105622927521432
As 15.438676544762863 14.011824368347025 15.166626298398338
As 16.83375940918013 14.722612802722631 17.097640861778288
As 12.418445614418443 10.531681591364737 16.495385976224142
As 12.81764027926401 12.08095595172164 14.547768471450873
As 10.389327351104965 12.300064105184019 11.643703299187386
As 12.065247777401893 13.728199233962558 10.419039730166945
As 13.222264434241415 11.943222533004093 18.35673065326818
As 14.14955477418425 17.541707366409437 16.779143327000927
As 14.363585566519621 15.056571177803763 17.13522245695333
As 10.12263672824085 11.479007892671712 16.829804546586605
As 11.014319338088537 13.506004477803812 15.470114892517598
As 9.303934316417505 13.20655258101304 13.697893512782299
As 13.461761373476369 17.913166331382236 14.408476535245528
As 12.403010632591142 15.699033654653283 13.874943544995597
As 12.271242762555216 15.99649318307247 11.392441382128036
As 11.008901111672127 12.245671727053445 19.00326704423389
As 8.60655922936859 15.519451033306764 13.190490453247223
As 9.90848979492105 16.788036467719312 11.478508780577128
As 10.320193096176475 17.140200371927516 13.935268858274299
