37
Energy = -166.08767329 eV
As 9.171591014442564 10.223647107743627 14.377658119885119
As 11.611957141297294 13.445485164701724 11.728697102859947
As 10.91099570645325 15.057312617430341 9.908789261186552
As 9.326957349920097 13.108816943764669 12.662886356584345
As 8.68769264286776 15.02854989200173 11.070835649964227
As 14.234248791236684 12.584465206510586 9.706276971955667
As 10.154554683372398 8.717462023847638 16.108838403540886
As 12.807116368862099 11.300893333865165 11.269697539060935
As 7.128549741997557 8.829040076326311 14.625489925414037
As 10.997512417585972 8.680746168489762 13.730792784440544
As 10.16726959219243 11.979930032101711 7.999507575730399
As 13.96392600733893 12.482740347859828 7.229422343948638
As 10.378595418029818 14.427551669107624 7.575927777893713
As 15.425792538311043 10.83817278889312 8.459044466631566
As 7.347028804748855 13.28964600665001 9.902333861969007
As 8.647089685339314 11.39735676896644 10.913178799168243
As 6.376249401976307 10.275071426970813 11.304167813980298
As 11.619428937281294 9.853915761043314 9.598762289685254
As 8.138997395124933 13.348421441926968 7.544962948165814
As 11.718229347535933 7.580519788211588 10.76503369884199
As 6.44333771252466 8.016303770424905 12.402145554112682
As 13.534695225060824 9.12911079705474 8.147815547147303
As 9.926853781659236 6.440211514282399 13.608489195422942
As 8.432193236201362 6.920453158140744 15.533473650860955
As 7.239186468737492 9.52289414730685 9.037464814662739
As 12.983258906568595 10.457954138772136 6.096377224542324
As 9.554171061002132 8.879436300840947 7.180264366488751
As 10.52123278243785 10.797780883232832 5.817456432206328
As 5.972039613851233 10.610522834917314 7.132179726893659
As 9.375906989048996 7.394030669646974 9.95904434875066
As 8.195578861606878 6.273153648504978 11.860764860507246
As 7.327655561680137 8.973957795881278 5.8693928292154744
As 11.577534370144113 5.306727209627574 7.484355590056854
As 5.699054838711883 8.199979947330593 7.582483750020349
As 9.874352021332964 6.611726502280472 6.1703254395806715
As 9.270883274706021 5.456779465170704 8.3371528491125
As 13.058322049206234 6.35927239056655 9.098549869905817
