31
Energy = -134.86482245 eV
As 10.069542597093713 19.999214462780152 13.79506284324825
As 9.805412512398156 12.91910280297161 13.043524801481846
As 9.906378649337231 14.14172522054005 10.90551387300773
As 11.609351885896348 9.937081965174366 14.172473041963954
As 16.56406434188897 17.568015983000763 12.009977506665612
As 10.775660664357433 8.612406140778178 12.27791522176264
As 18.752455273384392 16.447141642342196 15.127513120761801
As 18.859394627333554 18.291604983479882 11.666707830474868
As 10.418809682814876 14.667057779671245 18.667780193532604
As 15.923984452247662 14.359375828360688 13.973545573454416
As 18.316559594292183 10.532634617184668 16.168897266055843
As 13.167728620202904 16.2927172526712 12.208590119328928
As 20.249485294531333 17.15866331080412 13.277345901217494
As 16.137237280044864 9.737483096314618 16.97803437823896
As 11.179707279013614 17.2775142933517 15.30224981043918
As 12.790848180436996 15.529119204734034 14.521608313796248
As 17.178635523474497 11.7191967146741 17.994679251919635
As 12.247052316144483 19.298267619681514 14.41627273321322
As 13.683677438726255 8.650799539507627 13.839037411825798
As 10.304467036204558 13.372600515761235 20.33843044529803
As 11.353259572205603 13.547866589222904 14.868939198399195
As 18.13752883403731 9.491263572442548 18.387298054128312
As 11.515305349098746 15.680748642722573 10.470866419120734
As 14.727870651633138 14.376543103076143 11.749767319429445
As 19.69904568621369 14.735504560236098 13.590289265000463
As 12.163822311484306 12.092367957193135 13.03491134995286
As 16.40579748230399 16.770710255354302 14.346137275506765
As 16.757887742528762 15.471591154752232 10.71613498371875
As 12.342359149737007 6.948317590164467 12.892199269374904
As 9.4578756698303 17.723409884563022 13.597528822418186
As 17.74236089446765 13.856575272730442 12.33955739211981
