31
Energy = -137.08482868 eV
As 20.61684758020415 12.049354711164062 12.524366677164068
As 18.75675722748388 11.783039827948153 14.113170762228222
As 13.936906978742467 11.041522776393197 7.393871254272186
As 18.29483047784621 12.07842397762782 11.71667624936623
As 19.155564982895758 13.95826980428793 13.042645516892636
As 14.82078741970209 12.263954042440934 9.157969506937121
As 16.935826512813026 17.13053827031692 15.639300738982127
As 15.411551039302216 12.542554437880508 15.145603358395247
As 13.984259677420141 10.52041749614496 15.645902545734103
As 12.863762226227859 14.406899692844624 9.301646568389591
As 15.842475798599914 18.84137393860675 14.24726401520513
As 15.298268932935942 11.623571193044201 17.48355545320422
As 12.804154609600522 10.845006600042295 9.543116291772076
As 11.80871339642537 10.45120696341242 16.80262382155046
As 11.043908603387994 12.681587627731183 9.209836004481128
As 9.891173823646005 11.564457854640809 15.7133701014199
As 16.736510755997372 16.761222192867297 13.227666745797398
As 14.644142031958006 13.997063745839265 17.012100262491675
As 11.626575035914438 11.65220744939786 19.006693552103503
As 12.382382727553436 15.899193904564624 7.645195822148219
As 10.308319561069375 12.339545765077805 11.560139605373914
As 9.369073188018508 12.33146854348747 18.050855300170998
As 12.40494368483312 13.05501721438669 12.665825852135962
As 12.66159013090063 15.316752353317398 11.92776661038361
As 12.336029252288045 14.786221187064948 16.558300584415033
As 14.727129174026167 16.693048247558128 14.642863374635876
As 11.11420239965156 14.003305305918206 18.569968976504533
As 11.091340486562267 13.551209216611452 14.764734246648151
As 10.356413621414807 16.22373707093234 12.037522621992798
As 8.829723412438053 14.31819122798796 11.76871545902828
As 9.307018650608228 15.191598878473942 14.042521597012396
