35
Energy = -153.58806782 eV
As 10.18297873152 14.067471455000712 10.681120049022232
As 15.50993243145608 16.016315365620738 10.348799512524954
As 11.959834458377388 10.248522939478798 13.595828059275606
As 12.117542767913484 11.169062246972878 9.896482429315618
As 8.307820925855735 11.687228194049629 7.912509601888096
As 8.311269701541162 14.153995235064945 12.366810662274533
As 14.88568936041152 13.979618760990155 11.563703316786453
As 13.429030524537465 15.638502306155624 13.58084958029038
As 12.483350639613501 8.765902097714028 17.200224840092655
As 15.72292131350982 9.238106592026561 11.78420589995855
As 10.387550592151628 13.43367426197949 13.583340135907237
As 14.866906383121401 11.060254334173747 13.23308118125901
As 15.821292937318375 10.297626537698022 9.510149217890566
As 12.442490350991259 12.27982427172448 15.408777660950056
As 8.648121106986718 16.637484074797392 12.47778967190941
As 15.67356880890132 16.460769256816885 14.164059069623706
As 10.398251370113927 16.55856244056318 10.667367123150223
As 10.044825262248464 10.206388238926198 8.825836622667007
As 10.02400508141866 12.368618776154742 15.81762009931261
As 14.029841903789013 7.709502867471012 15.479936147487049
As 13.403106196328345 14.782765829438445 15.851214380076598
As 17.250997820620896 11.122006060995982 12.481178780828156
As 13.740068453651165 10.932607916648044 17.02844377999888
As 11.891943605151063 9.078356385205675 11.290334127326703
As 13.77152451657226 10.54179293131775 8.23053576088531
As 8.10241172960557 17.254973677070748 10.094957433771228
As 9.593483382484834 11.07290482739719 13.555322823656047
As 8.540996170982599 13.797384931524066 8.879071880125757
As 6.945770322267512 15.512180586275452 8.855898356847987
As 15.78962821060044 14.517886970535663 15.654406244957286
As 15.33216108740576 9.86986382428076 15.396569798272479
As 16.65000451360611 12.479755123453021 10.465077286532726
As 9.505067026212961 9.390323442686507 11.103944209542329
As 11.675382483630642 8.194496121499828 14.952674830371555
As 16.889795761420558 15.307505487058261 12.18543626787405
