33
Energy = -145.81444442 eV
As 10.980626552199036 17.322290142203812 13.022935056509992
As 12.889689139104789 10.043305361080227 11.415942302401081
As 10.875198546274085 13.281079157221653 16.205288088502222
As 15.089140046703506 8.947772872845297 11.088002039230023
As 14.47274281499168 15.87319201224784 12.664646751069611
As 8.959414885505307 13.932373440675097 12.735190543801947
As 16.927277100927835 15.786930181305612 12.891664180180113
As 7.4851339237490695 15.678958277456438 13.55403075917441
As 14.432338653218768 14.429811900114009 15.877078325044101
As 14.173942175402892 11.022395315532702 17.665249927365235
As 9.172783725867289 12.309099212063733 14.70417990596409
As 15.738425894528481 9.250580228868127 13.488486979251123
As 16.58305609067747 15.621625026266035 15.368149061968015
As 10.514822661919057 16.47880598933941 10.723619075505555
As 15.682186024915461 17.55369626379745 14.104175297406176
As 13.122791914377567 7.700616908112132 12.096607144506654
As 15.844346370985223 13.659229157671799 9.931149026898916
As 13.633000439867088 8.339128448495718 14.482794301941546
As 12.609440700751087 11.659751128433445 15.789115988074718
As 10.924367236838552 11.3783099888863 13.14466990081335
As 8.620802109927622 17.648190718069277 13.629673922103537
As 16.392701225462403 10.975390844984624 16.571742780374308
As 14.099326478638847 12.766698459094144 14.07625598619392
As 9.488844833322716 10.407851080950136 11.327764206480902
As 14.51110713442856 17.355058753057964 10.651458015792464
As 11.0365300012633 9.595443491461488 9.833454945314438
As 12.528755833139435 16.742690496801785 9.365107187320056
As 15.585130940428952 13.038477581784635 17.659498499774333
As 11.51982502950772 9.650952149959455 14.874303757976321
As 11.224933081475447 14.91456495367478 12.559949292975869
As 16.254318378764548 11.597142965585547 14.147374059815602
As 17.721816574034786 14.963829555850708 10.155981783628281
As 15.774045378704422 15.919862235436948 8.964328646918739
