30
Energy = -133.75925885 eV
As 9.11186244782445 6.965136372966328 11.26601666532989
As 11.24821570135656 12.343814918650786 5.2848262660832175
As 6.803192504197978 6.559042997620789 11.970449340036422
As 11.254190999181718 9.075713521658614 5.44280328115518
As 11.501455381940419 10.134006555895132 9.22729394870322
As 13.110047845589827 10.75229371260814 5.920459575725148
As 11.87687933019386 13.752564426437713 7.242851599761728
As 10.212940915603342 10.613179957207668 13.00928240448755
As 10.16334314658382 5.603701224176158 13.096307048358186
As 8.369047251844497 5.53617115992064 14.86588386838176
As 8.052369592255515 5.992090742847435 9.100689271982443
As 11.107252314603764 7.119883465428655 7.034987421630711
As 7.499826550452424 13.224679532288004 7.342392485597264
As 13.115581441364318 11.788948351114694 8.25061347804523
As 6.438862603143281 7.797689257590353 9.768902862161823
As 9.700449293903677 12.450003439208967 9.974182083288778
As 6.6671079275187175 11.029460678658815 8.240467300550613
As 7.236180236006808 7.65764202273842 14.148176550999828
As 9.623030493136358 14.259807932498623 8.301558218986893
As 7.580735896505257 11.15078255917922 5.939389695447145
As 8.31723891817474 9.528296530919846 9.53825328620385
As 7.967096676863708 10.415749950401224 11.989386504156148
As 12.808133662586622 8.084968536810525 8.789175874674116
As 9.73894664704928 7.566481307088973 14.566000113521298
As 9.919613243035169 10.75839635716655 6.694483382496778
As 12.213262556020084 9.819058804126088 11.5939469162297
As 10.42325844610656 13.033306654402391 12.302164356903635
As 12.206148774284877 7.459793146116605 11.049066502865715
As 7.991739891307064 12.916009993429462 11.653767233746203
As 8.831428368273706 7.700764947751261 7.485661519398231
