36
Energy = -158.25661046 eV
As 14.962365439534297 13.897865093072555 13.642584170423394
As 19.374865763817112 15.785649475352852 14.43994283720273
As 15.70545451494246 12.799854805333393 17.04242252000164
As 18.99448939456407 16.013457442886015 12.018372827009186
As 17.503809944679006 17.449183783279505 14.851474130012997
As 9.911443148696595 17.916202317794447 10.65501049603696
As 9.739678872961298 16.117251601343337 12.349359417654476
As 19.104585360337204 12.349077450777031 12.738383338203379
As 15.954863382367865 15.283198235964374 17.42161592785533
As 18.366128185993308 13.846097134630519 11.153729339704313
As 14.55044949171191 7.767090658998692 17.63953872839899
As 17.09724167086681 17.676262478095637 12.363341500173
As 13.530206506095821 11.830210767707676 13.168755292868642
As 17.14412942134426 13.019669034650617 20.299417627321255
As 13.606546938335962 21.35798910973521 16.117793230936176
As 17.659001881789205 12.040080061455871 18.256712081528086
As 15.19709921915786 12.691303626819442 11.468007447892923
As 13.710602892423358 7.580498420943353 15.335950120209379
As 12.922486726955128 20.156225838424913 18.153698014885595
As 15.673724295469128 14.894715976657434 19.848827323773136
As 16.64579221610323 12.41298225469636 14.737960410945002
As 15.44422991281808 16.655500080392724 13.819788965378292
As 13.1621002040542 18.925652888740924 16.03803338617202
As 13.286322327608952 16.006156967737777 10.785502406497466
As 18.897381565713598 13.417671203660083 14.957685502871456
As 15.77731255876375 8.830081667688532 15.78996809277105
As 13.20133823539882 14.364269303290225 19.153653703151164
As 15.153612844848363 19.779355752428742 17.193604994484232
As 13.60930081830142 9.740454672961643 16.509988895390705
As 12.045601049974344 15.422215694687425 12.867838550063864
As 11.667138553784234 13.076942789534701 12.036713994342971
As 13.230409549944486 13.585438013051908 10.145085014687364
As 11.496658233092644 16.659081677928743 9.225386047902381
As 13.573447697393544 15.765748875347755 17.20850358014649
As 9.365782767252933 15.61568463402894 9.946167144646491
As 11.375650948287069 14.390100080446866 20.443156115232494
