38
Energy = -168.83007979 eV
As 13.225724453360842 13.896003099291415 11.540370737930804
As 8.533909150721204 14.099186616147332 5.737396510338718
As 10.95358612378378 13.488044419993626 6.262045633142414
As 13.573201803869132 13.085996362494747 9.187955721685976
As 10.295363377234015 15.32238445623156 9.111288414595027
As 11.599294874766782 12.177282101587998 12.353965121119536
As 10.261961378887868 11.386597504284547 5.133089172820638
As 7.8390589852597925 13.049017403253535 7.892503910032483
As 7.888694461679401 11.663395363488965 5.849359004346209
As 15.020585783382979 12.217925987524456 10.983462502978915
As 13.197869256189739 10.571137161010087 6.814408344993884
As 9.324716581997539 13.064479305135444 11.843602955407862
As 10.24154998056942 12.891875028069794 8.60216996229955
As 14.62266170555647 9.43558551901681 8.470616767818177
As 10.238938049692653 13.24711944202481 14.163089393769548
As 13.18712113401853 10.756997301043729 10.104630226514178
As 5.03704438764397 8.879484821570696 9.375993810119802
As 9.87839693940489 15.416504544254082 11.36422222311836
As 11.283263875191619 9.346260607851079 6.24497617314917
As 7.274085445568022 9.010169676612724 8.163563895732787
As 10.73163087350234 8.310760558551905 8.707644565743882
As 14.23594015915736 6.473707251103495 11.276882866883938
As 5.901876235653669 10.839479502069159 10.693361058249943
As 8.682316868668318 6.921085760858174 8.484502226589717
As 12.697999728336072 8.237759304600642 12.063096833243328
As 8.25734666305117 9.914826504986939 10.288125638729248
As 10.257750622259499 9.54276333716723 13.509149100716476
As 9.400734085885077 11.078055526365734 15.248173411099454
As 7.706390373760099 7.477793639655414 10.727388922161477
As 4.962049631100595 8.92107611564605 11.925827753651577
As 11.92638810257983 6.286010930994693 8.379823341984006
As 14.227459393872437 6.983677991659739 8.763156246601572
As 7.937620177603891 10.396768396133593 13.317122603313083
As 8.24354030222838 6.49983757622592 12.94949958415245
As 12.206546594849202 6.568499128867635 13.87968811852031
As 6.640415185500403 8.278295554380076 13.740874254910088
As 11.766919358116704 6.077431152489806 11.406772730807477
As 9.90511820302413 7.351795355284494 14.60527056865606
