38
Energy = -168.516639 eV
As 8.503107486146618 8.159373741361597 3.545521247243803
As 7.097435520146827 11.517548469870269 4.727414836866335
As 6.178036591201553 7.345203376507005 3.830725586543476
As 11.280637413220838 9.838397100410345 5.378842384080795
As 9.442547963045127 6.246882048969899 4.852415928054442
As 7.147710682008033 6.389649498714958 5.894134126072844
As 5.871138428556685 9.607030498303589 5.738353627236393
As 4.651045669840816 11.707323972972137 5.290819181839359
As 9.272678549058448 8.476561554501568 5.949595818089957
As 8.309555262406375 12.732567918085081 6.540685618905885
As 6.553916719750152 4.1144002540170765 6.800106683627485
As 2.705212226993417 7.872966710021694 7.00505638832137
As 12.884640448037112 8.725289686267724 7.027949938652881
As 12.186319214143456 5.117574316686594 7.570217410959375
As 10.620179881499695 11.761001536619162 6.892775893565457
As 8.505683757845249 4.935700466858987 8.202053013573058
As 10.420849475777155 3.415232285576785 7.847644476908756
As 8.690781273000557 10.96859759231351 8.259493930271814
As 4.942434328598998 7.493693847536942 8.061559716893598
As 11.828520081365156 9.62295843912997 10.401167843482218
As 2.7859752424616464 10.158161226801823 8.001354429627115
As 4.677367936417651 4.993228871278771 8.228455220769563
As 7.8051921976634455 4.1036133726495265 10.4793865850362
As 5.099535397614649 11.102800968326294 7.6613985374660105
As 11.227532613889732 11.809398923186945 11.415700445575192
As 12.86467200412312 6.0728109308531515 9.803097396904688
As 7.2643249748008065 6.516487725599145 10.613255660904416
As 9.11926723773622 12.540995687328586 10.168491372469788
As 12.839752631384009 10.63583297006561 8.559445443204336
As 8.788609311570632 9.214777835019987 11.375299256390559
As 11.240917963866435 7.301436728574038 8.35473017400001
As 2.9521905379299422 8.124174626220835 9.432453675550956
As 10.56376568155184 5.685298421161798 10.672383247643603
As 9.715916626766218 10.729611392824316 13.099872204952913
As 5.430446190857968 4.79778435934171 10.606328878586556
As 7.645379848382002 11.39951330165712 11.834681883416245
As 7.997354253815495 7.349692152689295 12.873614859648985
As 10.477835974050938 7.004894789219584 12.591984674188055
