32
Energy = -139.07796387 eV
As 11.734101632566611 14.913000982429855 15.895858407250296
As 11.04302886337475 12.152847287685145 11.598093712740578
As 10.887106904060843 17.28743777723449 13.111492630845149
As 12.386804198637714 10.669391333509196 10.180201854144286
As 8.88987360570548 9.239197162206105 10.971145284013177
As 9.000869490587837 7.271249150403823 12.31689683706476
As 8.938734863048087 17.233404700133832 14.594188062902727
As 18.068311108825476 15.537124942441396 14.705024234022032
As 12.30713184172547 13.053157384693332 9.502324359242209
As 10.447478148492616 12.8354324756235 7.951694003313268
As 14.257206074549945 9.536705394154163 11.431083476823506
As 17.078486073274025 15.894348711246437 16.96511718189613
As 9.02266816070991 13.721686619901691 14.337667154886777
As 9.330835677398841 15.354076366017525 16.206694792625274
As 13.92324768925026 10.253660186916768 13.750096758978456
As 13.077267339024086 15.434549191770847 17.770953299361107
As 17.699097753615177 17.832526458988955 15.481053114914953
As 12.707467718738812 15.709027440036678 13.66314176042098
As 11.107360361968654 12.547046731043961 15.153039145746014
As 9.681125362391471 10.678683598101996 7.717179765006779
As 14.355809725156659 17.027311273863113 15.005431807633737
As 17.156152635754577 13.307642912272485 7.721451997001792
As 12.696045710665667 8.292562660315408 12.8882835540307
As 10.787532785087464 9.088175883236437 9.164697775240796
As 12.785386794093075 12.498708514189198 13.314839779736666
As 17.54078423245831 8.922221364239302 13.479282495233383
As 18.519135508227922 7.780862011074182 14.974631658117156
As 16.38887410806552 16.994285617910432 13.532284142150036
As 9.126384439132687 15.621011787030017 12.630029392059349
As 16.01557744021546 13.173371325582059 9.503203470048335
As 10.268528245217965 9.159090140503974 13.05795671367958
As 14.911702310408128 14.936841384292602 16.169121164697533
