37
Energy = -160.02883647 eV
As 14.399712278981163 17.354876093751624 17.28588373658171
As 23.050428212271466 22.171858387629317 19.399438641497373
As 14.901551739044711 18.068848355402583 21.847971803193904
As 18.005321457079265 13.054427223800905 16.903047590557488
As 13.67396544456268 18.655193917403366 12.345420971797477
As 18.1838807162625 11.689775884224513 14.871020803812987
As 20.15381684508095 11.784338576452079 16.461033233888706
As 13.127150349206001 19.451378057782527 14.671970143406902
As 18.434564447258172 13.202201109722212 12.93889669762091
As 15.055122681571792 15.00362282857881 17.566510475073684
As 21.595311431682106 20.025015104501612 17.446233234235816
As 20.289989921386237 19.462493655604767 19.43339133448591
As 22.143982020873736 14.13668278834543 17.94040665161903
As 13.163624200556207 13.018274919304336 20.321674140174245
As 13.308064565041343 16.6416735097415 20.568646076954728
As 16.90494745088085 20.59066805087546 13.400614465908074
As 15.264637601756618 22.16575554540206 12.559527128836084
As 19.12407675830878 15.015629851543721 15.886890900866211
As 19.268364584137384 19.009077836019802 17.194541779009516
As 11.175112026151833 14.718599788966477 13.539767165416405
As 11.20201933948659 14.6034774858202 16.00083459657961
As 21.453624997420356 13.788112711286908 15.667572901545105
As 22.431538633636013 18.21254349998804 18.93286703218548
As 21.90098562782593 16.469990127563996 17.199401521072854
As 9.233146459713138 13.352733086228302 13.567706587512149
As 13.05622227064604 17.073909698032598 15.421726482516918
As 13.418104565165478 13.47227255175053 16.439648061440153
As 13.420952033943394 21.029989611123383 11.851792620638616
As 12.399736314856858 12.264253012975677 18.31317028015549
As 18.39300380900786 15.397970983563662 13.62345812491745
As 14.856686968964214 14.745778392836721 20.02923669899233
As 13.531073638747944 16.73838982534308 23.05016121475998
As 16.083770243181295 18.312809366527993 12.990420787409263
As 19.501701320726823 16.61306012433296 17.79637238931137
As 22.36207728366082 1.028536858013259 19.670770568133
As 15.616599803368059 19.374940142739327 15.19731738296289
As 9.914827291186201 12.500791283400378 15.654889566529242
