37
Energy = -159.3786156 eV
As 12.157238336208364 14.206109893290673 16.598774870238
As 23.017468433076303 19.264234496522498 10.23024688077931
As 15.868106235052387 17.224780503470843 12.800695422160938
As 15.6506892428775 14.314230038180504 17.359608151634667
As 13.041269835181499 13.342994147017984 19.95410759099294
As 22.515920325554433 20.38250217663741 12.244684891194936
As 15.622767057378372 14.763661842749437 12.384646863902972
As 12.742443475535861 12.366302032808052 22.271086860908273
As 18.90175956518355 16.77979460975887 17.06663577363885
As 20.442428961856717 16.671124536814734 9.373938384644907
As 13.440439692826649 14.859739335255515 14.508563351739356
As 20.403509373054543 19.29938550687999 12.272823045276008
As 21.67938692977774 13.443174006190977 16.396828381022438
As 14.41282458387708 19.454990923095412 16.989507877964325
As 20.588914640156574 19.093341194674696 9.830472182412933
As 16.849861569349034 16.409439579926953 18.388510274129338
As 15.477438582648443 13.117796127113623 20.181600954297295
As 17.45020233671297 17.99241157601579 11.046318090990864
As 13.682647151935132 15.723305102392523 17.982692003661768
As 10.161690542674124 0.2621771951857358 20.246768347946308
As 18.41893061587316 15.933530080785072 10.15973965275779
As 15.031233197939153 17.636428198142827 10.486072645918954
As 11.08317255665207 21.3175598957323 21.166221930823642
As 19.94380184838093 14.194305018212551 19.46680199437865
As 12.726538841428196 10.871649072091186 20.34872931922686
As 18.127855045716238 12.556096257302528 16.186423986534265
As 15.90922234695253 19.890076353499605 18.450009970338677
As 13.958193726978795 12.813076410694325 15.711567031996369
As 19.503791957056535 14.357075788514646 17.04683904239381
As 20.29758112015668 11.583610325481088 15.952847013668656
As 14.839132731156313 11.17642380130026 21.639904129214923
As 12.389212525039003 22.623963203384363 19.546072370417384
As 20.111723423749407 16.69398714849198 19.324994225671457
As 15.016086035268057 16.34795097340281 15.966621266670414
As 14.777589508160727 15.161753015773325 10.260138119328836
As 10.380771306861453 21.41541735271228 18.814205767587584
As 18.12530818631783 15.596896572692874 20.396714117868274
