32
Energy = -139.81100054 eV
As 16.489649376213162 9.941585534927903 10.202918376550928
As 14.531360993651624 6.170967726576123 15.70836360982567
As 17.589602624318154 10.952908413531054 12.036485574949175
As 12.4913931171354 7.451696803876414 16.359675118704494
As 17.659504688207047 11.694250662037225 8.595255581332257
As 12.710410880018587 8.904140513697547 14.29656026340054
As 15.457782149530763 11.836808231658223 11.521586587114918
As 15.518588566279965 12.562561042402978 8.09631502818266
As 15.144210331247809 8.423566775213926 14.80492044153965
As 14.742995478983923 8.065756133788886 17.246031173906946
As 16.631289055622624 13.591994943548602 9.910367868507988
As 12.73941520227111 11.072894451406581 15.454165414024978
As 11.571833576350953 12.170233467892977 13.81256145226582
As 14.17405187236759 14.396488088806697 15.15102649917638
As 11.695862652492439 14.352811363213846 14.982618315361643
As 14.315071123213281 15.32842210368212 17.50374712612551
As 19.632543374047643 17.524306790683227 14.012033470942121
As 14.973626264375591 16.144623920629293 13.574028201922154
As 11.08856077527323 15.647262607155458 12.980116188510168
As 18.137312760097405 18.961524513094208 14.664241759882769
As 13.102014007240507 16.735470671563178 12.037445904501759
As 15.092105183751363 18.224235284160105 14.89292785924149
As 11.446922445473593 18.099689680587776 13.308994232961753
As 17.399953032706723 20.467363621192433 12.620053099577767
As 15.689187563771014 17.368844989556912 17.209899169940055
As 15.29094914481919 19.864236866690458 12.592453361224736
As 12.068898973003774 18.59999416314042 17.461572999995397
As 12.010958948702582 16.17218828606146 17.872774652552238
As 12.756948820715794 19.13685869889641 15.139810940464686
As 12.763427569205998 16.216141000826482 20.223748138101964
As 14.326532205350926 19.138001749367156 18.29165528738681
As 14.190008298885157 17.992137129253585 20.468879762330904
