35
Energy = -154.72032996 eV
As 15.338381388275224 11.400600993927531 12.456709639927505
As 12.834163738247494 13.13215897453121 9.673280097669915
As 11.388534885958704 18.03276220212619 18.641265746881814
As 16.48643158830567 13.37889475727485 22.088619654881278
As 15.519444996160647 11.59597957021456 14.912276437207494
As 14.527827440297665 12.953799480023603 20.59533188183198
As 13.235101190592253 18.287036132140145 20.2706984531221
As 14.738161763453656 16.533566684257877 9.46343437052439
As 12.929790424274508 10.624755384755288 12.542560617485215
As 17.1806544354312 17.281899178785523 13.823356449102434
As 12.19700697399683 12.883334874405744 13.344762241105771
As 16.92719049716722 17.55619772276544 16.952211695793714
As 15.508878638616398 14.130578833083137 14.997057787529728
As 11.726784776372318 15.578702292782829 18.440183255611643
As 13.626975915790366 17.134294736769355 18.095759122201482
As 13.442948898006343 12.836105325845555 15.50731699615346
As 16.590402638224038 19.542768847482574 10.852748287073116
As 15.860222735988112 14.485127757906488 17.477395029676067
As 12.2488699615533 10.838424453601712 10.183757418090735
As 14.018677886761221 14.546812779845508 6.377805157295074
As 11.899326419474605 14.768948659382241 20.776035305783534
As 14.671338059188805 15.90497351010505 11.914247391563888
As 17.760084706470074 13.117150832027262 18.33603026223218
As 15.189613963758989 17.262253680260986 15.298529123964672
As 14.048353276767006 13.49004482988515 11.829682715414362
As 15.481521329028386 12.203899205788515 18.408510745084293
As 17.840838441807755 14.520164040540932 20.392294777751655
As 15.861142791791869 14.849052999828665 7.903016042657055
As 17.08609852821939 17.305269578193755 9.95475493762509
As 17.129123220000267 15.70645604130917 11.887834720804562
As 14.573114696428387 12.723516017760032 7.834857011505815
As 12.948976053866906 16.46436240833641 21.926913616208665
As 18.84475818067355 17.33240006233445 15.605616098563381
As 16.844793061344184 19.60372029551194 13.112990902361815
As 15.433857955828557 15.246674757765247 20.82477671742324
