34
Energy = -152.52337293 eV
As 16.74511022732379 11.543507722235251 8.452445964331769
As 16.292410571034424 13.797123449003967 7.5371566502953184
As 15.285412648220287 11.71922330194891 6.497585130062382
As 15.915477283977156 15.82623314526727 11.333411088104299
As 16.122836791698226 11.611593927857832 12.193589911196797
As 15.298689143632233 10.441491437946341 10.121056300938044
As 15.44952674663308 9.965971208517779 13.885556872665791
As 13.986089607170644 14.61860246107935 8.067922242784544
As 14.876410405650828 15.294009212940866 13.51040815169326
As 14.142710134778403 14.277253145163543 10.525696874677973
As 13.056913813954939 12.346979994097685 7.5392356222422166
As 13.546858959254099 16.387601432390266 11.707901854179209
As 14.920302371147084 11.787456512036833 15.322952612387214
As 14.214480461899855 12.840879628821678 13.198916850370958
As 12.987386208099021 11.351153255168747 9.82668002732681
As 11.739330653898753 9.327090310669217 8.906839265269035
As 10.781470189709006 7.960743744272126 10.687051410133344
As 9.911253769700972 10.933290278195962 8.38334045589701
As 12.381541267956601 10.458397236553981 15.502114800569409
As 10.377673164601347 11.00495326233167 12.391712336819328
As 12.605746758242367 9.823252345769067 13.05671115518748
As 12.536901105783112 8.0847972446367 16.13718335822189
As 9.75503345594257 12.4161055172858 10.369963403760114
As 9.873738621219525 12.673328827634167 14.257589523108773
As 8.922860091152707 9.065499158179179 11.715579953165506
As 8.038035553602901 10.629655697485566 9.932935213135572
As 11.368315457773857 7.791581343317084 13.857713861654167
As 9.095589093761582 14.62790665486432 12.993529469645447
As 7.8052283485809655 11.598452665975993 15.008134681382492
As 10.273321751759738 8.908196692480198 15.761290717005433
As 7.3361301811171735 15.516974860309055 14.455553270284458
As 6.457860030222019 13.501428679825727 15.753271182271984
As 6.765553036717108 14.341648398506965 12.316728040391562
As 5.937488931741757 12.331304085191237 13.59592858679972
