38
Energy = -170.58905533 eV
As 6.272308071922881 10.579978950075388 11.475298012463039
As 15.055834412247078 10.980441070939664 12.372647750373103
As 10.863110463808292 13.541439625166625 10.534280455493786
As 13.289257298999969 9.064688239692526 5.2947373211399755
As 15.960418834596654 16.214722655249382 10.580449895006634
As 12.648609121603927 7.267564387256994 14.584401824708747
As 14.839633392850272 8.3818842530177 14.106276101772266
As 11.196510378727051 9.048828156552727 15.533701949162216
As 11.538870770954869 15.619413780557196 11.707687512792202
As 16.284847809900192 13.763027817484227 10.573075092919527
As 14.926184678202459 16.210584325694434 12.845460047669599
As 9.3903665594236 9.045007350094075 9.777526792877868
As 10.832718397783365 10.606544001405034 13.641034018471204
As 11.674260104979366 7.574243632434341 6.477722932651263
As 12.150633113089677 7.297813811281789 12.141183460285879
As 17.115845059471372 15.128904920397227 12.476356436349832
As 12.981581649668474 8.0393809241979 8.596128846631053
As 14.038084895325477 12.880350240279505 11.126196236457032
As 7.782674910275847 15.90276094508973 9.598408709858449
As 7.726417235208873 12.416160167894466 9.118107884014519
As 11.915707120927864 11.263590110368526 7.624037879318565
As 7.717081466555784 15.376050865222133 11.983891163736377
As 9.663507348199694 7.569999978766896 11.812691560062083
As 14.597228041943339 10.796402499158726 14.816329200078659
As 14.150434326512281 8.789619648398787 11.64988654592741
As 12.275577835092312 11.280358758112598 15.569588559339762
As 9.752382157750397 14.146338906822765 12.651756554905797
As 14.101812136179493 10.016421754060948 7.5285724520215345
As 11.725075181716942 9.886836981344025 9.688687347894405
As 8.63139697464029 10.484905641041212 14.869241435807265
As 13.310450772740374 14.346438634870786 12.986119639672614
As 8.467423886604365 8.202590927481152 13.932492212800307
As 6.3227626102373256 14.003997825008604 10.478605316670151
As 9.409015049510286 14.223563895837138 8.681743364513435
As 8.660083491977868 11.077810494342977 11.037101241485821
As 6.138626633288493 8.720789270373004 13.108624672257823
As 6.321281599668424 11.088362658981206 13.89212193252181
As 10.95800321477537 9.81127977274389 5.802881945454101
