41
Energy = -182.8248386 eV
As 14.414932820702177 13.466801563190558 7.614643203220962
As 14.12450419696964 11.049215350348511 8.148780121057953
As 10.697572332056902 12.970455292643063 8.782276708107773
As 12.397331937715727 14.736341386848526 8.346439492654628
As 11.804739417062988 10.727453327037091 9.006307766217788
As 16.428807310265867 14.276309431665485 8.889856885038622
As 15.814507175100399 10.359510470860574 9.857773274522502
As 17.462543447263613 12.270786072736595 9.966450076891569
As 13.562072801630887 17.861551580702596 11.324469811941917
As 12.730584323881077 15.413301291827995 10.768936460617484
As 10.037810879439728 13.34651468359181 11.206900953013216
As 12.342874929319969 10.823377423204613 11.425106685819175
As 14.426749322448655 9.50906238448997 11.751310697396699
As 15.971601215357472 17.23539052502282 11.524390318275456
As 15.540888367706343 14.737981245654806 11.171229538485257
As 10.838753052775372 10.016291211704255 13.136443711409854
As 12.313940666167975 13.229128734432537 12.270966002518175
As 10.221862945388434 15.826245153193794 11.043123587339252
As 15.633524675196982 17.52771231123763 14.006628632924901
As 17.42938485700537 13.470003814128109 12.128979424645694
As 11.111588379731595 14.47921880791209 14.698308171123438
As 13.409020590297603 16.516195934415396 13.429394512823444
As 14.646927763572796 10.019424919232256 14.194894477065258
As 12.390686900621692 11.324422803232176 14.475710684242753
As 15.054131577663295 13.854386352004807 14.229517130735434
As 16.845986230536568 15.486957370490263 14.876154729673152
As 16.343874364835834 11.767200501114768 14.701373097899149
As 9.605112621672012 16.070493998178318 13.479479049741695
As 11.424008421397529 16.98924388532406 14.907443616330099
As 13.523212874841903 13.993387144840245 16.212639100779302
As 11.387987076539629 10.947494376827578 16.81712361007091
As 10.290927505700772 13.126202661469902 17.056058298680526
As 13.920587042477369 16.339112501047516 16.99471305550828
As 15.915768388225967 11.260519573281067 17.283699855255804
As 16.38119312422543 15.892457995579232 17.293252238509123
As 13.557267101538374 10.73259379112783 18.069517404859354
As 15.403502541679897 13.609662134418851 17.741575862705695
As 13.09182309228829 15.805826818481018 19.311764660137218
As 11.269776711127356 13.985925429709907 19.145344524582338
As 12.847205602727525 12.238633166040671 19.924576186106727
As 14.665139998213947 13.987921164121317 20.06716096444349
