41
Energy = -181.90969044 eV
As 7.623732894133908 7.555935782666877 3.7221337573250093
As 7.595760184451884 10.95972195563007 5.041740884838965
As 10.98158320601333 9.31742561078246 5.005840137630465
As 5.311858073594487 10.334499127554148 6.00747798882589
As 10.686957894516349 5.17434733727062 5.134767044187981
As 5.589094622370437 7.145341664423597 4.724547723025533
As 8.60979607851234 8.752781767041832 5.617886640983157
As 11.719962657403991 7.223833092084479 6.2253496687579855
As 10.709313171019986 10.454457779822391 7.238439315783988
As 7.233662386372268 11.633751176764868 8.973742008278885
As 14.073374451966192 7.755463281533542 7.00252275251488
As 10.422723059211206 7.256463705978905 8.350994938195823
As 9.416042073520382 12.361542833781929 6.238133763645629
As 3.522640379716797 7.6898679498501075 7.612557506672137
As 8.981979560188194 5.382039246961557 6.935302887776296
As 10.759527002140283 3.730041604179101 7.110751114002769
As 5.205778342244271 12.211592585743105 7.704943668065396
As 3.681254678530146 6.125541228885146 9.540324473426102
As 10.114398490835123 11.894689372965843 9.841370087450452
As 12.798395123109637 11.727551172097284 7.5427772554013455
As 5.885781378286414 8.109373741173627 6.997521144219821
As 8.794880209221693 13.478652913749094 8.408660531330202
As 11.763977744042542 5.278042907250302 8.994491154331763
As 12.405413815192949 12.72794203412739 9.595320359404763
As 14.079220728901104 6.299191571598348 8.989847529838322
As 13.012100917009606 8.506720281657945 9.055522754836224
As 3.6297195522331216 8.612553647047575 9.92789895398601
As 7.787940319916774 5.011715039218907 9.864255422166353
As 5.407934456606115 12.72082404649623 10.181227806805813
As 11.33803066888002 10.705725834356388 12.727708319268944
As 5.852803338516653 6.279186809570861 10.781464449263002
As 6.151242230775371 8.660407669300431 10.076704839112999
As 5.202418062535766 11.623344950018062 12.426995720515704
As 10.338667319215158 8.903925777973386 11.275180998730955
As 9.524228069194743 12.413756710436308 12.229644389350288
As 12.100598761956572 7.58123904281464 12.397734312793933
As 11.135585923313196 5.311023583473011 11.667117964683431
As 6.108113979010831 9.293214466597039 12.49484175322545
As 8.876918059868366 6.135438152290287 11.625266341389487
As 7.533523371406953 11.194418135044792 13.203104646133054
As 10.233906765011735 8.667254410731966 13.708726992769067
