46
Energy = -205.02567793 eV
As 9.126090389460373 4.945619231947193 10.518925606543062
As 6.91657319996511 10.620741839132997 9.324961104935202
As 7.447039770736374 9.590454022162055 13.858323046596334
As 14.54648248219433 7.912614749308377 7.215884854961646
As 13.638185320278964 14.732870396359742 10.269084472382527
As 6.804335282091099 4.353156800251434 11.223207534074435
As 10.50274654843097 13.015105206447732 6.240410571643492
As 4.451373226482132 8.399696640324875 8.525090119857898
As 10.970547144978452 5.554740849896391 7.142454254881993
As 7.516581005107236 13.048166935229338 9.313550311558787
As 6.670258183351376 7.40932680585057 9.032854628822127
As 12.537008693949703 8.113192941040687 8.638742148654794
As 13.40128447466964 11.213677015087365 13.08428249649915
As 13.264472662125725 11.112326106431944 5.074393761942502
As 13.178683484777336 12.426694328557904 15.203075298005134
As 11.3383568470408 10.696684974748173 6.687446796156304
As 10.310856373354074 7.884921294330281 15.053412979286326
As 11.254928402639855 14.827257786322953 9.564795877104638
As 9.901283536850077 9.936759914881007 13.70802602370351
As 6.670386918477454 8.052675470481178 12.025860245321988
As 10.194376580507782 9.617358846856957 4.751461614557982
As 11.653950092325593 10.886992428532922 3.1637241296603738
As 11.665237994624306 13.003040809164926 13.289734093397795
As 13.270036511767772 14.87443574945625 12.747039346188158
As 14.446659420943218 6.720084484421117 9.363458154474191
As 12.40741311899914 12.662275537134539 9.625223677777596
As 8.18282333388257 11.040340461861739 4.976059962514213
As 9.476575573446896 6.026053177697571 13.621728722266534
As 14.908690355738369 13.168229367113844 13.557962735821198
As 7.6098179087218485 13.397232159407903 11.76103203093792
As 5.1540638905104945 6.1821176146363594 7.531428259867059
As 7.297364586612337 9.31761710433929 6.222955960804247
As 14.660024683236598 9.17187014013536 9.327751796572086
As 5.002141900999123 11.069186216420633 10.899498627930189
As 6.599953037606387 5.881063182812979 13.197356189647325
As 5.423344174359481 13.582724113870382 10.5431583659348
As 11.009243572785648 8.902524752883554 11.70427765135758
As 12.4367807252884 14.027716268456738 7.530506408519387
As 5.081377485050093 5.8484491344889245 10.079242448188946
As 9.049678033034322 7.283578416951701 11.551221464501214
As 9.025911859310582 4.348664301515734 8.081966631302157
As 6.27615671564446 11.631168706877366 12.947414156971371
As 11.988359593764988 13.089820561304148 4.217738571524245
As 11.924583059445775 7.2220055137984085 13.26941909101743
As 5.398048466321449 10.451254960134568 7.316209516982254
As 8.87856539714963 6.2161646999724045 6.486300277388907
