44
Energy = -196.38811313 eV
As 7.422756452615211 12.441295617457525 13.166937095818437
As 10.312494254009863 15.937599783972788 10.184207160746865
As 4.5582798256144805 11.871392224170387 11.28740681057415
As 6.569081885997548 14.621850449259782 10.474576921424026
As 9.328789920968884 14.37323666867218 8.506897649954182
As 6.84708098741356 10.847837322841087 11.332683323505522
As 8.691765597902018 14.275664618214115 11.744977992145003
As 12.041683060774032 14.18663291309688 10.448245404617019
As 5.442798624310368 13.856123838597348 12.602255769914334
As 11.252539240037363 13.132703029403968 14.332915026627663
As 6.207570316179029 12.358295680425027 9.469794789966759
As 5.626333901543264 8.911037613018916 8.717204390916892
As 11.471391780898529 11.454962900835818 7.433193217461319
As 11.104915696498121 14.774130558717742 6.740938996183473
As 9.055370531901097 9.544057481191896 14.180121967959618
As 9.182155032554975 8.504958757601983 7.035731833482672
As 9.997131665748464 12.694014244237259 10.257269548252602
As 13.268961790902624 12.328101186681435 15.571488617020382
As 6.774357891270935 6.918180563189138 9.562268311528788
As 8.300041841097599 8.148415016763913 12.297555050171562
As 7.198890876803927 9.953028170921241 7.051323060450757
As 11.14819554817673 10.69840922154705 13.424164652531818
As 12.644763815713503 14.616166872362575 12.842315255498285
As 5.649689380110353 6.765068627420143 7.388089280083271
As 10.132760593464791 8.600343678241833 10.591905077422341
As 7.243291593118982 7.820730711771786 5.710501364412951
As 14.688993112022542 9.832191492452147 9.599029567937821
As 11.534060988385178 12.768140175558912 5.314223724444796
As 13.076277253180312 13.353515629574147 7.14468856720633
As 11.958840083584189 10.190231630702494 15.721552296145669
As 9.161413241782105 6.950247991650624 8.94423450744149
As 10.009444561856125 7.238599704365669 13.937110751939157
As 14.94895351376226 13.74443887002302 12.652502033093402
As 13.38147414181284 9.880358745845045 7.114180354164897
As 14.200965948671328 11.576407449969683 13.397540574044683
As 11.548069712251024 6.994020823166779 11.936382222870359
As 16.821646919424236 9.424026870368758 10.932222345814552
As 13.678607400519931 8.467927579288045 15.02079244102957
As 12.367420324296305 7.967411948987168 8.04400333449801
As 16.37318489496017 8.257035318648752 8.773847050144747
As 13.295151367470725 8.7122454806158 12.562845752824435
As 14.179032946562348 7.3737799269046755 9.621778271399286
As 15.781365007554008 8.01963562373159 12.688309961372504
As 15.730230088382466 9.823770599636232 14.448011287061131
