46
Energy = -200.7498304 eV
As 18.473204610504066 17.795239046036755 16.28959976225265
As 16.538452479597577 15.128794876841923 13.949253155563385
As 22.240462925947224 14.741573932439573 14.83651119448359
As 13.908673671105962 19.70991024536395 14.452884891946601
As 20.441152181041943 20.311333701291257 22.740183067229715
As 16.149278133501376 19.560726208778153 13.222999849039983
As 21.128336780517802 14.836024693026037 17.993719773679047
As 24.161947071287926 15.84977232162022 15.982774963534998
As 12.974790549590464 19.142689007145492 17.73222984805795
As 24.335384080438445 13.04451418929485 19.397802288122026
As 17.596060963493276 15.922323701924933 11.992177845739915
As 9.855113399336066 18.653927753942156 19.81472899425043
As 19.47396988095634 15.819940203088233 19.605321434450246
As 16.250926660708107 17.629869422153895 15.071722905616156
As 21.363790416406623 17.056936803473626 22.121929865968927
As 23.314139765262155 14.286749324439704 21.29508170790635
As 20.3670722848981 22.087492566847725 19.862653352016853
As 19.204225915384644 24.19994556548236 20.350243842269137
As 24.596253543946865 15.51148063848103 19.581034469984672
As 14.331512150139996 14.887561124008426 12.804485307763382
As 11.443479718938782 22.168952396346988 15.4718505821297
As 17.937166281682174 22.097196939284576 20.254705426636765
As 15.404770717687516 18.99259407850761 17.027678425454216
As 13.270504416811129 13.770908821746849 14.42592923657056
As 17.546485811040593 16.27219417147357 18.015535275422376
As 11.842338552754555 18.171775821436075 21.257824379254128
As 13.23125552401901 19.94591530273848 20.07531408779393
As 10.957572511214872 20.91407416081313 19.680534945258007
As 14.31266979903868 7.92706634690904 22.229537874064416
As 22.9223794537676 16.52104676514857 18.07797222199646
As 12.247042365844358 21.224271836173646 13.519301159181188
As 20.540516673967787 18.042462014419026 20.008101581466125
As 18.838073274577766 23.077345671902723 18.18691547509419
As 10.169045089070048 19.875439552280916 21.902594552633975
As 22.469899373942688 19.212143629787864 22.749608015743732
As 21.876852292111124 13.140008529753677 19.625262402450833
As 21.136085104403353 15.70545612996882 11.44635396908942
As 17.104092007749678 21.430269155591848 14.329080368163751
As 15.216897998240913 21.255640269424166 15.892649824286467
As 23.27554843596387 15.608169706732356 12.72712200928058
As 17.463078527778443 18.711061466798505 18.411056315903924
As 15.552446574396013 9.435503835613959 23.05604723894302
As 19.17257705502125 18.25717901611413 22.07673148679788
As 22.579256660658857 17.1427785253337 14.552537488160976
As 12.862618856230062 21.650146897944513 17.366556793979782
As 19.67381685000887 15.934702560533129 13.225367633445487
