47
Energy = -209.34963469 eV
As 10.883537126630195 9.088458913029672 7.207633200157793
As 9.819818760743026 12.814261888988227 7.029827843764682
As 12.434346145693992 10.534841780713515 6.025608945185047
As 8.917807755768223 10.570748144172354 7.677474627915552
As 12.27812378344474 12.565142902381588 7.26224775590362
As 12.199703897590854 9.063133183714996 9.33198673031316
As 12.435303373817423 11.579554307950941 9.58912319141493
As 14.334809304899432 14.922048355667176 10.197568190986166
As 9.029250222768727 14.671461108180493 8.635172515602862
As 16.29300391544129 12.18414431783528 9.718394456399327
As 16.870229406430877 14.625309028002553 10.30824733916738
As 9.106643004561912 10.689375327258212 10.133225749720072
As 10.430565329530054 8.689669092257805 11.038686451566837
As 17.448541448544596 10.598363421083715 11.365903356434009
As 15.179547622482357 9.589487229514376 12.011571196027363
As 10.653756315486552 12.328394764873334 11.048972379646713
As 13.670513448569857 16.937000704206934 11.696002752054055
As 11.36709411493995 17.3770488961854 11.034691897444423
As 6.8499757495800715 11.548866610019989 10.769048738926001
As 7.100456757967344 13.95307496221571 10.057539486424142
As 11.06585345234867 14.809390768522144 10.115269509975521
As 14.247553613381948 12.532629980672583 11.108043997877429
As 17.56297156529166 14.747903137776477 12.703855408843703
As 16.830239201255523 12.384856865672996 12.936989462053573
As 10.244961817849987 15.506174499447248 12.318270976266357
As 7.656843888635792 15.2956076291961 12.039755594044324
As 14.697766972653591 10.81623039964618 14.079517173274914
As 14.66415062186025 7.1455469353666565 13.158669794339382
As 13.988350859655638 16.720480735731357 14.215752027153943
As 6.989534952119322 11.501447990226499 13.195044067024762
As 7.433787254956582 13.731315016464597 13.917253625582404
As 11.594158993714357 10.072367876288812 12.821514620384125
As 15.125760212781037 14.571906273946945 13.610999244929316
As 11.855642632410703 15.596367638067138 15.03532024399633
As 16.81897410587094 11.509371315786074 15.246091590241305
As 12.184020552388311 13.561713990063064 13.648072879853542
As 9.914464363969444 12.948297830180142 14.597041140298147
As 15.385743395868154 6.99993768596537 15.425478827292402
As 12.385247173033376 7.851343322637342 13.993670162432345
As 9.665797501952332 10.440871305842483 14.4533970135636
As 10.168360515552497 13.017554635035706 17.13119641487641
As 13.921017151554542 8.94654400474424 15.563912109207823
As 15.69949615505858 13.70879916436687 15.925031667719487
As 12.27951170260039 14.377288957991036 17.29513888161215
As 13.411227312997516 12.681693092610889 15.913385660599639
As 10.714215445641823 10.568835117216581 16.942665138031234
As 13.123225804032915 10.557043596611015 17.40164066779971
