47
Energy = -210.69831431 eV
As 12.201587053456628 14.795891865560304 7.81980758236419
As 13.655941840913824 9.036961686292518 7.203459224508384
As 14.364459836239483 11.459459968660202 7.1953270884251825
As 10.41409743474678 11.351343786478374 7.98943566150842
As 12.548510934420685 12.428362214483364 8.643612798702328
As 15.25067843553759 7.66562423485817 8.633694766351287
As 12.573852590336955 14.895576569858694 10.25912324037123
As 11.84790950399884 8.23381677905826 8.770421606330611
As 16.917690163725414 9.413584190336922 9.275763604381927
As 9.7080701235698 15.162255397780061 7.906459092905578
As 10.259391384133869 9.775324111331392 9.932147572898668
As 8.976991072749675 13.07419271220169 9.065031152658866
As 15.16075152415441 15.244881984477349 9.971405808551951
As 15.485590210960746 11.397827446556784 9.418012183339263
As 13.466741209110012 7.192266597829549 10.359786723454976
As 12.024520785915161 17.218206034152647 11.124516586332339
As 17.50101234389393 12.801393155995777 9.457916371860543
As 17.254062494400834 9.674446449025256 11.77130049035104
As 9.545904124816877 16.06316996214386 10.254634091096257
As 14.73937132660735 17.31082630192369 11.187919596625129
As 18.551108256988144 11.751963623521434 11.226021884198834
As 10.166799654240613 13.88082242757942 11.107558291224988
As 8.011159471032668 12.955797798311766 13.244437158520556
As 11.537358402876439 10.926552799002135 11.765193799229333
As 14.984402938232689 10.663469609542595 12.346808717811312
As 15.820058823076662 15.400387843960948 12.348876455767908
As 14.231646200939188 8.285952118629973 12.448635687664298
As 7.979396223303436 9.511601347069064 13.650157562527731
As 6.6577778686566935 11.328089302152032 14.708910022272594
As 9.395209067847903 16.56568054161954 14.134303903135114
As 11.537135524391337 15.800127628586726 13.146693941548458
As 9.790289170018887 11.219006727502467 13.575172157727007
As 8.773105691057518 14.38482426446738 15.189458686371017
As 15.713979687761555 12.921021776073053 15.08266086813208
As 11.934376277984345 8.85226124515386 13.18053800388666
As 14.104388616393788 13.96567437589182 13.479643322689364
As 12.544717201453985 10.438573472640277 14.998714075820363
As 15.008990359349418 10.499358290035351 14.87734729380592
As 8.871590423665966 8.260885885794767 15.614060660394596
As 14.384306570773767 14.940904969214756 15.739239070885715
As 11.563652484166026 17.04967796328204 15.285725252967223
As 12.060064352457383 15.026216075846282 16.721189681842887
As 7.521649000487902 11.659260714991808 17.02133974386313
As 10.993055940067999 13.230281162414284 15.331142278916735
As 9.98495005346622 11.944529270928376 17.278837070147222
As 10.467785955754175 9.494250093648557 17.028569646822945
As 7.935262158143705 9.268767991412195 17.650340287083807
