46
Energy = -205.69245183 eV
As 20.62271582432362 18.548878389748953 15.505855877825816
As 21.154050378901367 16.222981608720797 16.41913710056158
As 17.574759322357917 14.675846339351619 16.67598803562969
As 17.006198499264023 15.813602409810084 18.80928042751062
As 17.521174984633774 19.9607051309288 17.076017075920696
As 15.663855965951937 16.837152649660627 15.7570507123382
As 13.48209134813558 13.550388776974977 15.256889073400034
As 20.310965902652207 12.282440104198512 15.57017975852678
As 20.482564633289563 16.463297545626872 13.00115910432015
As 18.0179866979632 18.122047248410777 18.667196840157462
As 14.676421239683132 15.891666225184279 17.876011046281008
As 19.92941683842111 14.191921220120262 17.19517989812806
As 21.454290306950835 14.42665992868474 12.571695096545998
As 20.422318047318033 18.06327463310073 17.961533398332964
As 15.051044357806811 20.276599497549384 17.022752201786318
As 18.576128041122992 19.736676375959096 14.826709137685116
As 14.448039987685355 12.437235054130882 17.258143133549794
As 16.9343902406648 12.51064694701424 17.688034225887183
As 18.256260911478716 10.99524818577132 16.13492284169824
As 14.184914860766725 16.65397860665092 13.778526145615245
As 15.001033841383595 15.088740253103566 12.004563764884956
As 10.810661824079228 11.51782208979341 14.85183807217472
As 9.032606212885232 18.82435517289098 14.469831974930418
As 11.25678265211643 18.027972886643838 13.636449204092818
As 10.995156063679643 18.52658150260163 16.004796108027296
As 11.779840780313329 9.861859714116449 16.47648736963306
As 17.859764540336016 12.490171918335452 12.144092949620592
As 18.123363338539896 16.148341599943436 13.675207291247837
As 11.922933030148329 20.299199444811215 14.4838864785944
As 8.829081022058155 11.362646753935946 16.354765634801222
As 15.551433374360286 13.541757929466655 13.845672970660305
As 17.48185940525698 14.982220464230009 11.594709832805027
As 14.470902824020198 20.554321896637745 14.576157886016997
As 15.1269592509365 18.792963933925932 12.923359506348389
As 14.32203957594832 10.05992204779675 16.626002647349157
As 14.951691043009273 9.954596981517854 14.223969775738805
As 13.748560027790663 11.961251766885697 13.3544329925785
As 17.388604719562235 10.573484149086738 13.880474052455163
As 11.04216127307839 12.136223800550827 17.204842866729297
As 13.905328081019423 18.077209283247026 16.95302424246279
As 17.646558677063794 18.467716951428248 12.849186526294773
As 20.13965749691387 12.379571161295763 13.059714504213103
As 9.5358825245412 14.78939117159644 14.266013181670726
As 9.24555627845663 15.387391312530903 16.616471605102777
As 7.895405529991165 16.5776417738378 14.879345124569657
As 7.809594544177364 13.59840348322996 15.635448626332872
