41
Energy = -182.9185117 eV
As 11.615053678583186 14.497184969568364 8.033317040855193
As 13.111184595708918 10.904478370912306 8.894158498666972
As 11.07151227132683 10.242005228136 7.559023049475566
As 10.092168329685709 12.541555822240737 7.145325249574636
As 14.44591674034343 12.75581451647653 8.233221374876466
As 8.154950938308843 12.578946081943302 8.69020896538384
As 9.865003155588223 16.217549267398216 8.047547753362515
As 14.583070931232392 8.766983678781783 9.430070663745363
As 9.019741405007636 14.748051125654873 9.725480204768845
As 11.300902457134875 14.05660347948891 10.52749729407821
As 15.367136044021079 12.410889210142063 10.489619792128847
As 16.368311209294124 10.017664128987766 10.528092873681825
As 13.144340211623287 11.760037716764685 11.407240871178933
As 10.835107804222384 8.349731731215376 11.541238473762954
As 9.555854510943949 11.503446965378313 10.41201363609946
As 9.677544852844273 9.244728270366176 9.45431191065193
As 14.10686599294604 16.972494326151892 11.431200362221109
As 13.245866171394685 9.084245548352552 11.477116085191444
As 16.10023861301521 16.646802144664115 12.82736961084217
As 8.287171521225764 15.47428923677725 12.069175528404239
As 8.317031767802613 11.277880819058087 12.595097279905191
As 14.183376712441563 17.983077180568067 13.7129657520376
As 11.849613836959161 12.61726329850164 15.200947610160762
As 16.18323099586641 9.76008099516444 13.124786300647235
As 10.609406530203348 16.360870770732593 11.81023575422826
As 14.540896828788645 7.855790199676596 13.184802795189968
As 14.33134475266617 14.877872638312594 12.801983418170444
As 10.625099792503416 10.357733639461648 13.115102466343785
As 9.577923391660333 13.49880088686104 12.90854155296585
As 16.381125612690592 10.323777854794361 16.572463278018464
As 15.572894587945807 12.444154428737983 15.782936016498622
As 14.359526953083861 11.4320487299766 13.797128727111575
As 13.293414421085968 15.921867151289563 14.85494137613055
As 9.90119088950444 14.220249419459343 15.278948992119282
As 10.905769481624073 16.324614764802313 14.334341264341308
As 13.261538589154778 9.304700302845065 14.838443406229064
As 13.503324004871295 12.965707166545771 17.115126535986185
As 10.665784576327345 8.953568427997894 15.183091088063916
As 10.742001129984114 10.932216265913596 16.7124377579852
As 14.393210082372782 9.072934650771506 17.06366763012732
As 12.871627416640958 10.758562377755265 18.10605554741609
