45
Energy = -198.39314061 eV
As 18.146336968719783 13.89927300417469 7.422595777511191
As 13.063314599435198 12.545637073880922 6.586330688426642
As 17.32524981703779 13.46514967587262 9.751672285389374
As 15.26207698149519 11.799549386707529 6.767362996207547
As 13.509546099986036 14.090190531005934 8.426787913017243
As 16.62218319261652 15.78741702005837 6.91956242578077
As 10.971597823403938 11.472188681381013 9.267235198590779
As 9.290541688512874 10.92367432347013 10.984020448303614
As 12.776016196832153 9.878916028418914 9.804616831177253
As 11.862381432175493 13.588103967756657 10.267976609900133
As 15.171351174861226 12.353992518459243 9.144449987927123
As 9.937527596768986 15.04818031000538 9.628949539348405
As 11.28313227183321 7.867002105508855 9.736479218449524
As 8.991592236320404 13.970492007684003 11.819980794061891
As 10.20592548180888 7.6801352916727055 11.957519894375434
As 12.872651439618156 9.96985792358245 12.291988687261359
As 18.15661616415831 11.138285527961244 9.88400811543737
As 10.487409945895442 9.967982571215957 12.967536671209798
As 12.892484947070153 16.275678652612076 12.48867608936329
As 13.770155827884357 12.110453709680955 13.303589835437139
As 11.926726064634133 18.539640002118773 12.067693720179319
As 18.671848645860983 16.31123884480845 7.7348730759466
As 8.167893305997193 16.199368813095788 12.939669430752208
As 13.976096404071658 7.617090415958718 15.170322409937825
As 17.180363660843934 10.368650346785982 11.84201207022717
As 6.763663439497328 13.027398108062076 12.675790684492062
As 11.631808381154897 12.471402421697245 15.477657198077237
As 8.942583329288489 8.630284096297897 9.987208402312575
As 10.176092007666567 14.142373235376528 14.368168897452327
As 10.579342062943395 16.473340006487522 11.64006936649729
As 13.988690895588931 7.826105103829058 12.850475616074203
As 7.925490878722348 13.04992877878878 14.914905979623212
As 16.25942798887792 12.406758012062587 12.82440479397242
As 6.38965684813989 14.872272003108064 14.241785490260046
As 11.858454107926734 17.557462835090234 14.335833829414529
As 15.41704296599877 11.008845107608797 14.748356611417824
As 10.826239500869779 8.458585837935072 17.284342604952375
As 12.53096026948749 9.510175292025245 15.795568246739306
As 9.601196855039246 16.492797675835593 14.974074915214148
As 13.265134298336298 14.133452014299147 16.422402726754058
As 10.344525587134994 10.029102902322645 18.913428326301894
As 15.103618357886933 12.38875452767573 16.820248348466023
As 11.677982288595782 11.890098459762623 17.98819686256115
As 13.7588293473648 10.517752744000786 17.758895517396315
As 12.298966521552137 14.10568800377055 18.66300076771541
