48
Energy = -206.58444282 eV
As 17.769866750167086 1.052735984440893 19.783650486786073
As 18.364009291427386 19.698258383687996 20.35641386924002
As 16.866369623731394 27.678845013972044 19.09897015730618
As 23.55002464309183 23.47536688067936 25.107694035810777
As 17.789567524750886 20.960030184130222 17.24867715516516
As 22.04313332169484 15.291352297902806 17.798953118923635
As 24.209645490299476 24.352361907683633 21.123960353709187
As 18.038659009637772 20.147177399867058 26.746194691424957
As 24.917749300042086 14.798266810713956 19.701152682645652
As 17.696432617567496 22.933094011966798 18.791799448696487
As 23.187622438998176 15.212564323185035 21.112680353284503
As 18.59866439277153 21.949731461515718 15.072461496862434
As 21.517790179090056 22.045582170568387 13.06477364306858
As 17.741265925141647 17.681656746540085 23.45548935952643
As 14.825302308697763 18.88410406925898 21.757849554581
As 19.8707961090397 21.869262937074208 18.311070530396478
As 27.501067113480712 24.22354115564383 21.10993293085921
As 22.290436732051113 9.56896364982921 16.252499963667965
As 23.43173918437266 24.340953890124727 14.471098864568066
As 20.020087802248323 15.112624527015756 16.360918196899895
As 14.848253639700701 22.66328311443516 16.06781366252363
As 20.061082303818072 23.493875035006536 16.376498411397623
As 22.152900537447692 12.042806319467498 16.52837774648787
As 13.958161490454366 16.789366309588345 22.70307103177378
As 22.824083954138306 13.481214837889468 19.38373755398475
As 23.57743439295738 23.087607736647577 12.483656286643214
As 22.684983233999194 24.314722528833908 23.082668136012373
As 25.98754095768016 25.908737904958045 21.79650264716269
As 21.602847656587397 22.77092768881502 26.13254274391775
As 17.53163441745466 17.764950446827207 27.214768562834365
As 19.539365232547866 18.81881621611468 28.17370297838811
As 16.65187658921762 23.41403578470106 14.568797312788314
As 16.966250908403747 17.78293305427662 21.07134378627248
As 13.49415560803668 22.472290851210406 14.127927706218387
As 19.08436841208283 13.441380155011805 19.41972427213296
As 19.751494412103856 22.99509556887868 24.65716286484457
As 20.425399765163487 23.8463300553653 22.614129038715777
As 15.45380415318183 22.09608692977988 12.869258901125196
As 19.84837204654251 15.783029471835452 18.761162215544157
As 15.67935887308112 16.67724753373788 24.459364919168987
As 15.873967259650632 19.158779859497304 24.095963262380224
As 21.005420529296128 10.724016670179846 14.77862159127279
As 18.536950367855333 13.140420217309778 17.002334808452737
As 22.12572583843027 22.464901619684756 15.400768279903984
As 20.172791795087196 11.664361817756802 18.058155734303913
As 16.688150517465676 21.268937120242605 20.341319960224197
As 17.303968456966654 19.45731639941999 0.5689502792355645
As 25.855210860836827 22.606634431210527 21.635124708470215
