46
Energy = -198.05693954 eV
As 18.802730987279052 14.046445458744115 14.470241851096247
As 19.791494461544378 16.118530892317402 21.29018456471447
As 23.710263985898397 2.7825543708842466 14.418896828059511
As 13.441368898011133 0.5444210182847167 15.58962500656105
As 22.0195213401876 19.37832862328285 23.234642967391824
As 14.591913243131595 14.480857987717817 18.20789451250286
As 21.797775379308003 18.28687786653598 11.68402534918531
As 21.746039133271307 18.549905525936946 19.830675697802118
As 13.09655027077554 21.94996876114414 16.019021909076827
As 19.68727902040648 19.170505089292366 10.95831358987466
As 20.887492197924754 16.65325690279035 13.552641458153937
As 18.812813180154567 11.117835266076607 18.96322023991175
As 23.132088403293405 0.7628409976731463 14.705216250136372
As 19.677627947558925 14.839329970942453 12.460820614622369
As 16.17890389398136 17.059976276216076 15.99918916697978
As 11.311703276673372 0.0621662096457038 16.523481670521836
As 19.023233160092385 18.29970267248004 13.50310293212912
As 18.55610868925071 17.701412956657663 16.045652520526694
As 12.113556849184736 18.471945640614088 16.57616046568825
As 21.937835475719062 17.21721245170771 21.888093808550074
As 19.784985924313705 16.863627325551615 24.79092015513718
As 19.621748804022353 19.112522349583273 23.75921193360281
As 18.253568295145634 13.349974586945999 20.048133333644266
As 21.763151960693623 20.540993304746028 21.051240939885254
As 10.47022807345862 13.614948850683076 14.459347284354982
As 16.216841580688374 13.183106355076585 16.77352452700131
As 13.396212261797057 19.697013720664224 15.121428541916497
As 13.574863031349253 14.561926346877122 15.936118200585808
As 20.75850942343619 13.440818842672178 20.08433445834494
As 12.364019099186594 16.570061388297713 15.003675224421986
As 10.984903241160291 22.730936696672153 16.72064244965906
As 21.020004522673613 11.873694796254233 18.116557415487684
As 15.874840657875538 14.823441218297326 14.898957609846343
As 10.12749593216518 15.710687927847797 15.546290798239637
As 16.28726898447486 16.35727576081537 18.35361597771838
As 17.986574424430103 14.573033800380902 17.868084319897513
As 24.0697633419126 22.1003508594226 21.883653908063767
As 18.264451503024198 17.809537821790393 1.5388832261016663
As 20.710038010311006 20.113944905066177 12.957908631019908
As 20.857642975712505 10.936757969598089 20.371567763212028
As 14.581684872389953 23.536782693044792 15.117790849426866
As 19.856838185409437 15.64853461936894 16.016130993230707
As 19.14043396589084 19.900593746303365 1.0962770649136953
As 8.427430400665902 12.757219884729492 15.041804705409227
As 0.24166970373217872 23.3108618991827 20.52365622257933
As 18.486772628450282 15.618227887331079 23.117966171329677
