43
Energy = -192.85687059 eV
As 11.969726420801097 10.734756989619942 8.16374352795097
As 12.678858615459042 8.37176215992824 8.218708839700225
As 12.598154185641937 14.06720319799746 8.207036939037243
As 14.495762356056268 14.980453065180965 6.908312595431945
As 8.734640468614913 12.305508365856449 8.978479895569135
As 10.531411311245744 7.347532197473834 9.036726392181924
As 15.526648536192038 16.878499728348142 8.2383899790646
As 16.522936139017137 13.648052864286514 7.545229637628188
As 7.539929605791652 13.118044653096199 11.047174436145644
As 10.574812862305293 11.05678233646636 10.203577146474489
As 12.0976279417912 15.899811951577778 9.848392748491344
As 7.397007027691994 10.168732266837388 9.12733354749827
As 12.35749137864032 15.094825933851533 12.190516011243224
As 13.942947603430346 7.687954387208465 10.302320353700024
As 9.229820959384458 8.975923518227448 10.440189152596037
As 14.341519728639291 16.838152332741473 10.423329421481036
As 11.756926964483608 6.792247990448322 11.151949214744018
As 12.603901627428757 12.52663694700196 12.38678913108056
As 17.168840437833673 15.29980435967284 9.359662579416403
As 15.76398144554482 11.623493724048144 8.568351787779743
As 13.601443728335678 12.185543971824096 9.496917445318976
As 6.559632148412696 10.882920959069436 11.33512157299715
As 12.517685892478923 9.115816703679245 11.703663375013038
As 16.482517970350074 12.891838789788828 14.209845415944224
As 14.868311411923216 11.474434188544835 12.88383159942834
As 8.71013719672093 8.532783704795081 14.190494321327593
As 15.300006988004597 14.58232859369628 10.877247490607905
As 12.912239582859655 13.5000568581262 14.78875630316181
As 9.4143424198341 12.617226799248325 12.713449035205375
As 10.004759001594469 15.041571939182163 13.065437120497526
As 16.431635543916457 15.086265931061419 13.052655696071488
As 12.692762462037564 8.465718359810783 14.108229372432845
As 7.141887193935986 10.331525091904789 14.839882201544523
As 10.745634133032631 10.011177612731636 14.340215971851517
As 14.340841924916436 10.175028218269398 14.953149789771611
As 8.213055631246554 8.980318718710498 16.63502454664405
As 11.0045835740334 14.994872794863689 15.397519956920325
As 10.646523042269713 9.517722927032642 16.76730855614609
As 7.946038688594021 12.6965520571727 14.719553269205885
As 15.078974658688526 14.729760995486776 15.12032973416181
As 13.357954027807228 11.924414280843568 16.608351970996956
As 9.481815058746939 13.406864093299788 16.57500453896251
As 11.074778988722 11.799584325442957 17.632304263029596
