41
Energy = -182.43445687 eV
As 11.113860116255553 15.385967760799353 8.148737818976159
As 12.45305686514483 14.455430753030006 6.328252550053602
As 14.087317010531134 16.044023027224082 6.812553709266697
As 13.13085478260711 16.60470487025648 9.058793063943751
As 10.831730273201693 9.721864699545435 8.475157042660403
As 13.98552738441086 11.674372369602086 7.76945119379574
As 10.229405780667516 13.447466955552468 9.405379027983805
As 15.430089926826152 13.561594892850572 8.435762979330478
As 8.671287399659574 10.102233086421792 9.65842010833736
As 15.91091415924829 11.3009750751168 9.316653480241518
As 11.81134018898766 7.649808692925187 9.56419655531764
As 12.105106483971376 11.67408347521521 9.436558618278877
As 14.692522586393894 15.076256791792673 10.261158904042096
As 9.636809996554678 14.649627016957371 11.476422967247956
As 8.30843554703286 7.824616270480787 10.692716331867699
As 13.943999683554896 8.671792343491655 10.477657337944345
As 14.284697417333813 17.428727228170448 12.750539616027538
As 10.497285131097259 6.931144443335529 11.510233327617936
As 15.164631816339076 11.649658525647991 11.799959527533664
As 9.473600024268864 10.618112961122522 11.974298433098175
As 13.264714332944877 14.14419245677709 12.137837792679868
As 12.933077945975288 10.655665237351863 11.54256855979346
As 14.045294907218636 7.876176100111789 12.818334443502344
As 11.490019455591732 8.416052717215576 13.429024471297254
As 11.653977082213512 16.08373100872867 12.228499271229245
As 8.82851732425615 12.801517775011465 12.996889357405976
As 14.784823904011787 15.24163645825231 13.780839922806154
As 13.244870321691508 18.76139926980219 14.305501353097288
As 7.433839907507614 9.297941809808957 12.55316962143734
As 12.160479460546703 10.728344232345858 14.742774882800186
As 9.147290972241429 6.528220526925964 15.622309975265862
As 15.565902193815546 9.777529150531874 13.48513483108112
As 11.452613732422552 7.237959469960054 15.729979045924832
As 8.989031110980248 8.557834764024312 14.365964389027114
As 10.258258464772629 12.406365170095743 15.033379543918954
As 12.301476667347034 17.303686765515224 16.002141568295286
As 13.164836297464493 14.995805354534914 15.635814786816834
As 14.504203808973253 11.277783669087771 15.094870165022279
As 11.011044898900918 15.673575944291489 14.601484696166613
As 11.279984283523975 9.634353499896672 16.803022246074086
As 9.023860155030379 10.428357181708643 16.038146284309974
