45
Energy = -200.24979528 eV
As 12.603939559417674 15.324809217556199 8.159248318571679
As 14.441554040363338 9.877608606570313 7.7804524040795435
As 10.461185657537056 15.111496750196435 9.335346076316101
As 8.952980639872532 10.526397068458882 9.671032571053603
As 15.046621907587076 12.289544728610124 7.968562701780494
As 12.05528966964988 9.707152230706479 8.472463987676349
As 14.521658373681905 15.83245606229613 9.756258500546156
As 10.310363146580476 17.135866422274297 10.759144914529164
As 16.228424107116602 12.656518722582568 10.16731040364751
As 10.220644264955048 11.73213230962738 11.364176740325984
As 15.775605619874923 8.81664645781789 9.53388965151728
As 12.123062387811464 7.27038436024274 8.906826031692145
As 13.496096909047981 17.52740597517564 11.116670600022776
As 14.15704111706383 13.733565054468714 11.138940121859235
As 8.426486220670125 16.07575773181948 12.084197731167178
As 8.289060636267891 8.766458179057416 11.223350894025637
As 10.708855004306972 15.203655973456401 12.295819417420617
As 12.87342522522165 12.990506071260016 9.038721626447392
As 14.228392067344481 6.944652994266195 10.165762029258131
As 16.28813080340826 10.475191739657715 11.392452297418997
As 12.009455166267784 9.91408588107715 10.99606528929411
As 10.6678464567668 7.865119757092249 11.170006114455099
As 8.619557688119734 10.61978670310412 12.88368618940978
As 14.442201629575365 11.107301634514718 12.97154298169737
As 14.861899764556187 17.360669597752597 13.056148194390387
As 13.570443843095687 8.12764118780236 12.318952487294816
As 11.672202837418682 7.0027934073509766 13.180773725713802
As 9.851194595373398 16.919341762187702 13.975260015046901
As 9.77486871201304 9.958651978686362 15.056314479866886
As 15.512145012386517 10.06789618600261 14.96452658052178
As 16.352994127927953 15.513620740698244 13.302607567757994
As 13.419293565174918 17.39395567278906 15.121090610103481
As 16.133045448001457 12.395706395153976 14.258609684897802
As 12.839774127205178 14.951316946207454 14.70914974075441
As 11.747507635144984 11.560098293303762 14.967930542557736
As 14.785702252578703 13.817763181433591 15.798393289716559
As 9.146720915624414 13.266211027630566 14.590912973445178
As 13.47021589753922 10.29449003670056 16.35939850260291
As 9.14624874831895 15.384972000062659 15.848901407762337
As 15.259954777961196 17.420292709596062 16.638968519443246
As 8.610653043336507 11.808566578035373 16.33906326940885
As 16.593350717239797 15.639905035954015 15.785652428926987
As 11.469109597599058 15.038531340509651 16.802771633774235
As 13.840612972027682 12.326550882847322 17.69194884737431
As 11.325536199543514 12.57787749598376 17.21205099300378
