46
Energy = -206.73689851 eV
As 4.9212283949391855 12.054658486383326 13.32050992432607
As 14.79205679034536 9.706838283828544 8.243094628735024
As 8.102992135188998 6.589764713999863 7.4434407644393215
As 5.417036596256944 8.966889301992373 11.399304245289184
As 7.142278414731877 12.086461074350865 6.26365886818559
As 7.883470919572305 9.230013616491346 11.61169803658785
As 10.561650484595662 15.028412858476926 9.79216144089694
As 12.408161743650043 7.349697852858357 13.583381779811116
As 11.428934314463767 5.768087397133468 9.25083709417424
As 8.076009141514756 6.707892553325482 11.75121270910906
As 8.284952965939441 14.717170153260417 8.728070312700563
As 4.483596822196407 11.204645497801891 10.983422404699228
As 15.151971027611742 10.320224779247416 12.100505249509379
As 7.994809012120876 12.227935389687774 8.646573561763313
As 11.813560380641398 4.978362005296948 7.080713508884709
As 13.39883222597527 7.379750712731074 11.325764186615423
As 7.330522619388029 14.721332015890656 11.059731919545703
As 12.831761107541723 8.058965960895403 8.384455477933765
As 13.212524747953909 12.64551784048407 10.978124893657254
As 11.176144442895886 10.366426254901848 7.187803751328496
As 11.840146258262324 9.599175419707807 13.771897917049209
As 8.52403246275515 12.664449669038314 11.829152975676985
As 12.72777948764113 10.224035782316284 11.565056657913086
As 13.091446757399611 11.578450700335782 6.162765808849323
As 10.183196929131064 6.509292391101826 5.993259732223456
As 7.63424901836864 8.832596691574828 8.41392996745681
As 4.864084878197037 11.524182556857607 7.141013970078944
As 11.957550622219067 8.276522972922882 6.008472472983765
As 6.099673026471185 5.860335221473546 10.454389008400081
As 7.128844069638318 13.102018380541075 13.824162011412898
As 15.792623245101836 7.949425105848869 11.645900895663841
As 7.6803021457654586 9.071492897963717 14.121513073833635
As 8.444426200289804 5.451853941869884 9.641308359989301
As 12.10337159996559 13.599756942301633 7.225554447298977
As 11.246785114304068 12.666985315062892 9.396650212240377
As 5.527799105029013 10.093077778984743 14.798778511466574
As 6.417638433598868 9.719321038684212 6.398697649197733
As 10.793677472747012 12.244653678103477 5.563788402737175
As 13.6358738975809 5.106125306313516 10.295142483169668
As 15.21076033677809 11.538578632880965 9.908216052253643
As 5.433278877714314 7.89876501222368 9.146408109863616
As 5.607831303490134 12.651730398940023 9.267609309671037
As 9.608779421605828 14.877216878281898 12.111563403975008
As 14.603209205136777 6.281728254117356 8.279562428848475
As 7.748744134084856 11.203434944534845 15.335755331748295
As 16.31300679041457 7.997352420194835 9.196591129019907
