49
Energy = -213.74005194 eV
As 18.352868659770714 11.462021193633477 14.124103585520968
As 18.351334149126288 14.630505739194087 16.245342058951046
As 13.869656879487193 16.394089244009194 21.885712928868024
As 13.949549260106178 13.912789512963577 21.537001163052356
As 13.100590684165454 14.589010344917071 19.289577764206552
As 11.024606177123836 21.29780109208832 20.358914985538057
As 12.942618443781928 21.555065785516977 14.732101777354375
As 11.874445675723749 20.836334829168454 11.595785614522335
As 23.619702197316897 12.717112337943325 15.332678492639783
As 19.623065201473594 16.862955471768544 13.516369104050742
As 21.56337054473289 21.463206528198032 23.823673856442827
As 22.303705136023005 18.618564796214635 22.08820726609085
As 20.08737303394429 12.893845036437673 16.356810045766107
As 21.430859582609695 13.429602931947928 18.38112195587251
As 13.972845011662198 22.701276495025706 17.98613078415975
As 24.36443610388499 18.17893528403686 13.150189167083953
As 21.283865386167815 16.631473750688183 24.626639726828017
As 13.234060057686587 19.546369928126662 13.198889460395831
As 22.90184482006506 20.327416668549635 0.16255204057047487
As 20.962801381919306 18.760521543274105 0.4370853371653946
As 12.513101499613002 23.260097207881746 20.818430128378132
As 11.545819900048047 22.869041400024727 18.529261686242673
As 21.445116838499196 13.533605241932879 14.39400324936921
As 11.060750235679317 18.56827515915627 14.0651289620618
As 19.168558282280216 1.8070854921240413 15.907668999622514
As 23.093377836044976 11.785194681748605 17.61741575714639
As 22.761971083120567 16.405699152157972 12.445274442529948
As 21.702321131464664 16.03838530058834 14.696953889941023
As 23.079179976049584 15.298642978209937 18.217841373755803
As 16.642540239807225 11.026755980862838 15.626868822870366
As 17.58726625894896 13.859799517161944 14.02860120164881
As 12.535242575667963 18.265396842631684 19.01899751285845
As 13.047181294087626 19.954461471552982 20.745231116760447
As 14.566841951396992 21.867679307500325 20.215685423293763
As 23.350792825947572 16.9834608237771 23.306561633169675
As 14.650552534803383 20.87195156676895 16.456582842019632
As 24.594050931207917 14.767916676239029 16.33707879850917
As 14.436987327322703 16.723113716328303 19.453589968393743
As 11.805966504752304 15.084716811551395 21.37130085135529
As 20.168158797871367 18.612713140620457 23.444385182874704
As 23.962313539852783 17.769038551388437 15.333482988900018
As 9.888408133283331 20.015834137961843 12.445927530880434
As 11.246354346957553 20.201376961401195 15.993322933584016
As 13.21926448589118 18.852046944927512 16.712748329848047
As 24.783544784491433 13.485708992212311 18.500165774723296
As 20.827978476150463 17.719514285088806 11.741298513914009
As 21.358619438142377 22.216480330202426 0.6333999318499549
As 16.141589760024008 13.416901261843359 16.019677631282157
As 20.41837295601284 3.090354788083395 17.040834234986104
