49
Energy = -219.15478909 eV
As 12.143013670223853 9.692550905070009 6.974205939917889
As 11.735893313975374 13.40970216112842 7.664174724628008
As 9.813582777898237 12.343628271564127 8.784204674046853
As 13.544463235155161 11.544522673771507 7.822286992821928
As 9.994743040980982 9.951816061935846 8.164650454521691
As 13.519628084051634 11.545800247751227 10.286368577010427
As 15.920314447430604 10.526274724029099 7.386376092585554
As 14.971145739776045 13.508833567507981 9.628054771025644
As 12.498519834222286 14.72001157452772 9.607489168914825
As 6.842438452384454 13.553929080822627 10.095853485411244
As 13.25308013540489 7.709831740214769 7.974147052350993
As 10.998664650361546 13.49768254325522 11.219286281619409
As 15.419948112426484 10.025139300960312 10.805522604261006
As 16.883481731691553 11.502104160134405 9.406513054055159
As 15.494589714845448 8.518998169689247 8.783963197314348
As 10.087974052842167 8.578397472337015 10.286269896343082
As 6.1472644542625225 11.623047070107468 11.105800185575056
As 7.310301726068996 15.209192707470198 11.836709676768596
As 9.754269777643788 15.685327259408538 11.62093161637687
As 12.025317067142954 7.056646757000286 10.065548192478936
As 13.087318567357139 17.28575336323377 12.580064032103412
As 12.482870743104312 13.08732365648204 13.255383428108376
As 14.989093038078884 14.148165909364893 12.060620908928483
As 6.8405966919391155 14.047340330089195 13.985461597225285
As 15.4246644895612 11.835327870115503 14.620189660099378
As 15.456960911447617 16.65531574912547 12.074711192030781
As 17.025546556562936 13.2067558078388 13.191526828945609
As 9.973156749852409 16.19335007643928 14.035216606991469
As 15.18616656591779 9.374731822393917 14.298498269534775
As 13.158965682198028 18.81563967854734 14.420788076486966
As 12.17052842642795 9.082727528683536 11.520866514743563
As 10.200571664638534 12.33140832332902 14.469735306288872
As 6.756811018424595 11.623440531994582 13.5064391432668
As 12.359138541905157 15.444123432682456 14.142367676821484
As 9.040864318757711 11.025741501436213 12.679559245016288
As 12.751176263121542 10.077149486410212 14.769046825182633
As 16.576984285792317 16.957206234059488 14.292214918726513
As 15.803341562349962 14.674099068424201 14.863482001789922
As 11.565895778181373 8.11961294092289 13.763968129248743
As 8.932677107188495 14.296115860383939 15.292464417127754
As 16.901738566675956 11.6992757329014 16.608768377831616
As 14.805727951459144 17.79641159698284 15.84963334578003
As 14.177615944086497 9.232597610735677 16.595174341384322
As 10.011313220310154 10.601629676269619 16.148647756968632
As 14.81460864059051 11.333317358464118 17.860887895099836
As 13.220788702450452 15.905018261412067 16.488290259723033
As 9.289743862324864 9.104121346613361 14.333529869944543
As 16.617201372476814 14.159847419222901 17.161932207743412
As 14.216083660179143 13.87980027890535 17.80895943097888
