40
Energy = -178.83769607 eV
As 6.328779245454882 13.619253262773508 11.186635566798174
As 7.667769181953597 15.587518113120492 10.285976551194855
As 6.112958424680126 13.100548286523814 13.575518161935943
As 7.602167898391818 9.84334387533868 13.793566959684492
As 9.42135475764615 8.755313523145121 15.406827182846987
As 8.250439780397691 13.792728098320849 14.424894088398753
As 8.122279458794193 11.825284209217374 15.976766411679717
As 10.465113381480217 10.951478471279708 15.967819902534233
As 11.251726772286933 17.409023688770795 10.681582965792828
As 9.513267877146955 16.03210027538644 11.888408842599116
As 11.958175218072544 16.079543813266827 8.662317809090604
As 15.071964550519638 7.577745363753636 13.807705458338116
As 11.17406093697729 7.839460854395906 13.855893400726094
As 15.703032115772956 7.561005318333863 11.348454445331765
As 16.59451231620512 11.348484273771207 12.03912308882994
As 17.06241513150644 9.48888423181734 10.457086283550867
As 14.245503597256645 9.458308482552109 16.366314837948625
As 16.29564435677912 9.006283119500733 15.354236116636406
As 10.64871594999761 9.33326435059817 11.944633701103287
As 8.35122210949971 8.520655683576745 11.722143549779137
As 7.551046167938005 10.098898829090537 9.964008262410195
As 11.686957529728565 7.847255343806534 10.228989317493836
As 11.23875165331307 9.187642497109401 8.20726828176686
As 9.19500261085111 10.204961210012728 8.116447833735542
As 15.199126771133251 9.67611315512281 8.773689300575622
As 8.642245407064706 13.837388070633681 8.777174413956136
As 11.083540474091672 13.850602533115055 9.280040829414315
As 14.19981162842 11.918509008370917 9.221103282792319
As 15.893211909201842 13.646620045497475 8.760723782368727
As 17.251293855914525 13.486671061339498 10.88572609057507
As 12.415988744804384 16.144084078098572 12.509316544923365
As 14.723265178020096 16.19454314981296 11.561104652700415
As 15.516054753440798 14.074437992245576 12.595360503996716
As 13.83648826143112 14.764105972599548 9.822114732799841
As 14.19850541672266 11.987430679038182 11.760397455739904
As 13.829426525355627 9.076143754102162 10.765392119963202
As 11.073645020071888 14.084220007216667 11.791198360849597
As 13.265473543240619 9.264960872752791 14.13022672812354
As 8.391690832804555 12.338327663900541 10.777390719387427
As 9.4084653648736 11.627951168597665 13.76751609053409
