48
Energy = -214.48655451 eV
As 11.972469093584284 11.600007619154441 6.164147491419288
As 13.51803118157241 11.99828744835082 7.977365831670677
As 7.9927845580505466 14.3174202253642 7.515404692865981
As 13.038546918894742 16.440858594626313 8.47751847379482
As 14.244807960363651 14.471365517557016 7.614036392363315
As 10.50241936196891 13.402137773213546 7.552226245083819
As 11.190435585409148 11.238649494100802 8.495637878341714
As 9.244252114773477 16.41758270674818 8.025061226756812
As 7.569118842344046 9.618656410797714 12.081956260460382
As 17.10081959863283 10.540757670421184 9.407154690181988
As 11.044919820120894 15.16054432735521 9.329692283477891
As 14.088546491113823 10.407885127034984 11.631370805701232
As 16.38720571866302 14.515028120683777 8.878662075262339
As 16.02185324836256 8.936744675918513 11.003924283390774
As 18.557928201877484 11.975603440971584 10.774558465694167
As 9.157947698169691 8.162948595752406 13.360620220114644
As 7.354656419780841 15.640543743147042 9.456107141601656
As 12.55365588700513 8.740023736058303 12.727517283897129
As 16.16123562850087 12.598763873772283 10.457336889199846
As 7.212944752048962 9.227029759642043 14.506643153126804
As 13.966528457290211 17.163509536860662 10.646312071765124
As 16.152276000389495 16.01858152168842 10.868301458723762
As 9.432077484975704 11.280512501383678 11.797925989187702
As 9.013454888698995 15.12891581170116 11.290508832232481
As 16.319414920018886 12.973905772683295 13.982956837132624
As 14.904657813892467 14.566578870689229 12.541481368043806
As 8.257327101535468 13.283731965162826 12.759622171885017
As 10.542563093466326 10.223728988358383 13.785795165828354
As 9.07302103110227 16.53734648833699 13.241506637547946
As 17.448890552433614 9.036599078393198 13.005585789632885
As 12.025641425286388 14.003898969356937 13.363663710196683
As 12.392607717116174 16.452346392495045 12.599048354002628
As 8.533274782652459 11.069511252845151 15.524946960480145
As 14.37950412585477 11.427799639435477 13.856637828594826
As 18.497887980994722 11.123586360825477 13.075165093948078
As 9.707886077918992 14.476777914763153 14.419655733751815
As 14.451613150475131 16.46994943163352 14.062467018576958
As 13.347094670452753 8.326180680915376 14.975154159964625
As 15.51102852620128 9.628394753133229 15.107328785506935
As 11.415009302899833 12.626643848049873 16.627548304193017
As 9.524280951063963 9.740040633909913 17.324303257724864
As 13.114808033992793 14.817884782062967 15.48138761033725
As 9.913423585352572 11.947374314491553 18.502470915568473
As 11.858865774819089 10.077280462276711 16.29936410355809
As 15.240559962419523 13.601832188354535 16.20997223093931
As 15.389852994511475 11.263029554591702 17.15831245889649
As 12.346722059191304 12.283344893901027 18.91524157115904
As 13.444120361719566 10.15884643899384 18.259365704178826
