49
Energy = -219.21791417 eV
As 11.442922554866234 11.661097665979911 7.568429254798637
As 15.147497435985551 14.141637649073415 8.777581537921009
As 12.889388697769279 15.268207698957537 8.396099252329819
As 9.269855223413062 14.269826952752416 9.407261790053584
As 13.684382962115484 10.481171970303288 7.917298109544351
As 10.51018518449262 10.323302006051392 9.433679232234446
As 11.635821149459666 13.374500006018462 9.439914690082402
As 11.017297331212406 7.961046665618526 8.994532667090043
As 13.411612409335188 8.48045481475048 9.46453368778128
As 8.086062845808785 10.325017439224787 9.927483704177698
As 8.836269521664995 12.475451029846976 11.077873497365774
As 18.09637518192505 13.234079277989194 10.311430260041346
As 12.928368499907494 17.152336262671547 10.052190725986065
As 15.953690148013676 14.172609203169827 11.182846835685874
As 10.01385427206081 15.406684215764608 11.539651257261726
As 11.185297447297764 10.833406622859558 12.024376016218001
As 13.223318026317376 9.33461959257777 11.798052407574978
As 14.51077645824791 11.921750213008744 9.802358497129593
As 16.182789314621512 16.65369681094469 11.560921044999818
As 16.96128546661164 9.657436614857817 11.400957716273323
As 10.662900929706067 17.76732439255436 10.78940446530654
As 10.083625894959901 7.2547383480977885 11.215690915608494
As 11.971870615478228 14.148169091624036 12.408807223031836
As 16.91855241996969 11.192470650282655 9.466176808204903
As 18.89657580287904 12.500867617621012 12.530083054646218
As 17.181915457524468 10.98382584090997 13.477042858921788
As 8.093978985878632 15.45651472632008 13.087075468481784
As 11.474221738431543 9.328554815560969 14.389470713482659
As 9.05454845451959 9.366529486745833 12.054780765138245
As 13.747930156918551 16.155152702825692 12.283634775686027
As 19.20187756682458 10.046447504171123 12.39039873593936
As 8.812139711177176 12.240508841898802 14.233647363276702
As 12.061169367753457 7.378883155471262 12.782694774730428
As 7.056440552266254 13.27924390877816 12.643238904090506
As 16.431926538450963 16.839253185979015 14.004737364128346
As 11.164956771424825 18.96273354011206 12.802080124466281
As 14.794307891615578 15.075103645992568 14.454708607065006
As 9.402970960207949 8.81108272592758 15.798028216442841
As 9.206097498479128 14.370194140020882 15.425288387435064
As 11.655786744855595 14.223640238023188 14.867769521992749
As 13.15253003847878 18.030845114029283 13.785805060235408
As 14.594147864336124 9.62951502721229 17.19924046745372
As 8.069376612441692 10.955558372165957 16.249721485923324
As 12.795575936256677 8.176916026533615 16.337626504323826
As 12.939476471258763 16.24057359779289 15.607835759101103
As 11.519988322232752 11.291542343393386 16.673089850903096
As 9.550354561757631 12.481052430303611 17.518724954937834
As 10.965670293502845 9.128379206766112 17.727369219674614
As 13.64412551167696 11.64813641285219 17.810445267209804
