42
Energy = -183.53323185 eV
As 16.709744263212457 19.09548595187939 16.399258900834493
As 13.375062367120924 11.966015416805968 19.940434605560768
As 0.1530969668816518 21.342433067661506 12.119657794568793
As 18.688476523376067 16.97631225413239 13.158104712244374
As 13.208490880819358 15.99301666346301 10.384154613056703
As 17.942403961504592 13.349811374149294 9.021636605085074
As 11.218998959382699 17.04175124611326 9.820729392602287
As 10.26653678428564 18.12956157626668 11.696730533145983
As 14.912664639131846 15.348481087986904 20.994395811664145
As 21.705308209347987 20.88128041027141 9.946897846081999
As 14.89343946112684 17.56780327216005 17.17008104328575
As 16.25501498737977 14.670677920965845 19.035939613118938
As 12.003411597858188 20.422983679642325 16.84900008015241
As 12.427061387186665 10.578323206187381 18.29346350694612
As 12.808380376296228 11.526495941433959 22.187274358697447
As 20.366160344385126 14.210302978813479 21.777748926409707
As 12.803142120150149 18.763058873664548 20.40673093835647
As 18.782089660492318 17.939540502150823 15.623808669815812
As 16.768060290278626 14.68624303630231 11.016332328523415
As 20.08661945767529 16.302591833142536 20.4276210555048
As 15.388978735105011 16.332564228601644 13.900716036740977
As 19.831106016075996 13.026985628208147 10.582008468470951
As 14.787558632746421 18.54396478849589 14.892246875099678
As 18.096562412015352 13.980491688972311 0.40927320840119963
As 13.578440917909905 19.37257246324359 18.260491033516107
As 11.447077734169614 8.96613192661495 19.63141526206078
As 19.982113069300816 18.90191096509355 12.304824687548411
As 13.19450633276189 16.34189301602582 12.711522054976005
As 16.348893067820633 13.32615373729764 21.138132630763035
As 11.584567592068627 17.825852082371288 13.582367787930009
As 18.136101730267516 16.712147941285497 18.94612826214372
As 19.311061595036733 16.17349749311434 0.4344524317587871
As 21.473738605224455 20.016379358529026 13.721812623419488
As 19.512938320005006 16.198273781774603 17.114904129849645
As 10.355174229988613 20.9446229847419 18.382504087919582
As 16.57166996681866 17.3671905172668 11.984235955016418
As 20.08603350380086 19.215705195813506 9.990497710486586
As 19.058012945184004 15.395618272231106 11.049727252200846
As 11.690352800177765 9.521569792561136 21.928433576531507
As 13.689447219187073 14.27442561161636 19.137163379228735
As 10.810024043563878 19.929728375452612 20.486686379117664
As 17.6096614614311 12.098186047915547 11.03691127209364
