45
Energy = -198.95427261 eV
As 10.878432063301831 13.64384814848424 7.359155225406833
As 11.813691481682342 9.66468653100517 8.200970428699984
As 14.80604562401876 12.39480055526283 6.802488260923783
As 10.189562933715766 11.296814975375582 7.901946885707872
As 13.914626204597214 10.055313859626434 7.01737295069717
As 13.294975110454864 14.070580777435163 7.863463246934376
As 10.766608998914306 14.140650356010672 9.812421923266605
As 11.328919968625074 7.271912411786395 11.23883094549297
As 6.84512347662005 10.917527468655072 8.355970404387355
As 13.551608767660724 12.696057303075053 9.952188808404921
As 15.82914423289089 9.702344807660038 8.6084997803901
As 6.249887747934059 12.931268408761287 9.28597620274276
As 13.556567158086263 16.51166810902621 12.047563094267959
As 9.965258367857787 16.293483399063543 10.219106752683347
As 15.883000021533205 12.179447162668984 9.105517643705733
As 7.946621345376466 9.69066769883443 10.212864071168735
As 15.236405168795594 11.295456944441176 12.04503309637017
As 12.954981289476313 7.432865647149993 13.107974098975232
As 9.28522807339084 11.783433134512837 10.62398740103669
As 15.148180898372319 8.193961750394145 10.482516765824972
As 16.377984249048946 13.478521493265031 12.361201196003242
As 10.236340186821472 16.96162478693983 14.294419262548002
As 13.832333600126285 17.19754415797075 14.391469908485506
As 12.89094206458895 9.160125531399792 11.27225847184293
As 11.152675506292816 15.650267698258535 12.291070943168274
As 16.74162536558715 9.35236319125485 12.070054186985546
As 13.886193933408933 15.702359166010018 16.146554132320567
As 10.846122543113337 11.16194337814819 12.543582605590094
As 6.400477432953404 10.561052906773558 12.010910795837056
As 7.216068062737825 12.87404503598762 11.60587000813714
As 9.853037706120114 8.868181837432633 12.844540630181957
As 13.902037455398716 14.016123196521985 12.174586477442482
As 11.311808483403933 8.252965970273761 14.827655130846942
As 9.408782352063913 13.860112881082355 13.805760546270497
As 15.196588179435482 9.922730035019205 14.077802776074783
As 8.167207772023472 15.649191467572257 14.953090113750415
As 16.405870324722354 13.588693544831662 14.854822651925815
As 12.544341809566355 10.394596292613285 15.168515151710375
As 10.410096921505327 15.038482317255538 15.805712110737286
As 7.641800123173862 9.8890595928928 14.072910625802331
As 9.431667825023647 11.46368550234606 14.689999304241155
As 13.270076653172573 10.173547464956876 17.37487195175159
As 16.675064836698855 11.240357373249799 15.645792705524272
As 13.961441837543937 13.393416741666424 15.2682660416595
As 14.859424583855352 12.047097728739939 17.269313025767158
