41
Energy = -183.6112298 eV
As 10.055165850893001 11.861610064780969 6.945025287040986
As 11.245614573415843 14.118424421260038 7.130343204949074
As 11.753168926481894 10.074320982264682 7.589356263265193
As 13.726208790827076 11.609376075985384 7.589696307823096
As 12.619912272757924 13.296583183099338 9.099808467304442
As 9.313150897461146 12.153587237770806 9.315630106295961
As 7.662313224035111 13.894496495799874 8.795686289405285
As 11.528715418818992 10.2789864184851 10.075098793336114
As 9.51408866966283 15.579238391369262 8.3098785320217
As 9.74934585884576 8.808553149838719 10.998415483844973
As 7.85581172266125 10.343061928527348 10.198148785452869
As 14.734251633542813 14.607198567406858 9.663400679228838
As 15.20581567458674 10.567753145463323 9.308337906879743
As 16.972663411721456 9.61094371668916 12.690773275179305
As 7.469277567690184 11.862641561909282 12.180802499220809
As 10.662062098289816 15.521254932216426 10.559667664625316
As 6.550962147970183 13.939948429760754 11.12214645392543
As 14.751409681016971 12.394154192514423 10.952371754336745
As 9.563364121858003 13.345020428949528 12.00753501915182
As 10.965695347758468 9.573722319045727 13.137759538200454
As 16.677610748594148 12.129510180500311 12.515102133086517
As 12.49874928839134 17.160915590406137 11.4948537401802
As 13.318311016972878 14.82678876843281 11.761309013642991
As 11.492564253320372 12.686211324148692 13.501154912722027
As 13.712639476877088 9.791531297509055 11.21516515498878
As 9.223879465055562 16.85121845940364 12.101010842207824
As 7.925266375545101 14.907762301653419 13.014406794229519
As 15.340587360474649 7.939302187268019 11.713432067993914
As 9.766071994115448 11.205940618300232 14.622595390855455
As 13.893873289559787 10.726497053249316 14.40276408581439
As 15.390641539762973 12.732928549026918 14.609704973598658
As 11.24632495653861 16.984171581277053 13.639711428637728
As 14.37269128491648 14.99471378154707 14.042562060884785
As 11.962542494573121 14.814758029546358 14.79913810006168
As 10.653342829376088 7.904612881870226 14.973644470240384
As 15.032211814831527 7.255992150598887 14.100986222526316
As 15.922246021611723 9.395005140046841 15.052530547257632
As 10.735277941759394 9.84838590798425 16.534243631483037
As 13.115649683621452 10.445997419333422 16.790179093323637
As 12.866032611623607 6.789782665413463 15.367321270027595
As 13.947150973787878 8.159761780950767 17.070965066353786
