45
Energy = -199.48830315 eV
As 13.887567482009484 11.675159663395297 7.224787298134885
As 11.29098180865826 14.801893168255457 7.680142486485253
As 16.28283084199388 11.474117695994089 8.026257721856995
As 13.253119106072269 13.668697220195943 8.716101053473151
As 15.086870868922922 15.254142300461085 7.915338665255309
As 13.314097549357859 9.721536989510168 8.782626774997478
As 9.575553568891188 13.51948264809893 8.96669585778137
As 9.817854078062522 9.751740482044504 10.528298112058861
As 11.978402472313116 11.002513712118672 10.499169663809809
As 16.33249335769406 13.645668599353456 9.301102378624902
As 15.136121918207275 10.828938153256843 10.110553424231616
As 11.113921612284555 16.13869734157891 9.823367227190648
As 8.36621792438098 15.551885790668527 9.404414863993992
As 11.810318015026407 14.351023804740594 11.405852119467816
As 15.287939674884734 16.911107421975327 9.769639970010608
As 8.50634457835007 11.051774316992788 12.186046052466866
As 13.08230258991921 17.551653281167752 10.868381784626884
As 10.258319469826386 7.502615795599783 11.615118862091611
As 12.73071901995749 9.818329040442814 12.60250903825993
As 14.860827746315557 13.427251219771042 11.404950612918123
As 16.916225267137616 10.143730437046157 11.716418903717885
As 18.10273651743138 14.384933125208386 10.874160784171355
As 17.04633982657158 12.590107995621294 12.422819896435096
As 9.400603133239118 13.523906269258172 12.03685089202389
As 16.082848502747726 15.617654567799319 11.794585461878324
As 7.510853218626087 14.964314010003818 11.535379201397035
As 9.63547818755557 7.596218823416773 14.004546211567424
As 12.738576482867964 7.507998183989174 11.713629295549612
As 11.621042259899504 7.64213087753817 15.421418782239042
As 12.782446621790045 16.10469228206217 12.809688170972118
As 13.327467299477293 13.167577413372697 14.244651954017234
As 15.131743489385395 9.69874195022848 13.454595966183655
As 8.286832391145904 9.674160767583011 14.276863294159234
As 7.639365158403646 15.156363254952007 15.129714638338411
As 15.124488771243103 11.639619272304031 15.080425384482792
As 13.300124119237301 14.416611866397655 16.3492052220443
As 9.588778204861752 13.819161225382476 14.55823650094843
As 13.366734549994403 7.003804450994853 14.059023378652835
As 7.492773261136143 12.712147375246579 15.278636727793618
As 11.537553326009753 11.492340209215891 15.473804795193482
As 13.591847510164788 12.603598645084364 18.08243448029287
As 9.505682407284414 10.122024502522109 16.441630535558346
As 11.246711895710243 13.21055995005048 17.267342033169072
As 13.558926320552484 10.543831692926611 16.69539458787118
As 8.490641434197768 12.015166045971739 17.446812773406513
