45
Energy = -199.53008922 eV
As 8.13185482056202 14.715748794256202 7.093282619226734
As 6.906377358133414 13.032208203887903 8.386324308782
As 12.103608110520883 11.016634852784023 7.609860045493354
As 10.428756479469609 13.186379313672802 7.2318631119589
As 8.039413813089647 14.855729137331146 9.555232535098401
As 14.0648253238188 14.92717452027848 7.784806309449344
As 11.634211677012969 15.01880639371305 8.433803669128574
As 13.926034357823774 12.406957592625087 8.535159150843192
As 9.220091950170282 12.643776822274065 9.372846207268756
As 11.844248653488323 10.289567488278982 9.9624220359281
As 15.200166776316275 10.805593821725685 10.770810780695449
As 17.22006703603907 11.050587171650987 12.4320861230794
As 14.115098044276131 15.155905128463038 10.277851774006262
As 12.934137236756007 17.296685753588026 10.764983053327844
As 13.766527631246253 8.761528494664294 10.276787207414987
As 12.321811090201978 13.240891470998172 10.22999632386984
As 12.341379104067032 16.138930396110815 12.913419907707627
As 16.26798644056566 14.84033913103081 11.581827757534162
As 15.792266809960177 12.960274306232884 13.273495010539161
As 13.17559708339546 8.031943492635778 12.620086822233477
As 16.339568292833036 9.078960680789635 13.626983908020629
As 9.384229253614858 9.891010429531029 12.174341878875836
As 10.291364379015839 17.41260073195554 13.70092548605972
As 16.037880170849792 16.58151890735643 13.3602057371646
As 14.029297635434377 17.981589377310524 12.870879935841629
As 13.682640742297352 11.810474619098214 12.441844529966916
As 13.956200044480635 9.867269913005146 14.065702618575983
As 8.757601932021348 15.611489930287995 14.48252846950319
As 8.18721583997611 11.1184337581725 13.985520943304675
As 10.72318716758161 8.045739919385472 13.275605828370237
As 10.231342166383438 12.096205749057255 12.805312186434309
As 17.033594671717836 12.42892758445321 16.24888107308842
As 16.52863534417036 8.845100178260342 16.12642884166547
As 14.568362261635274 15.481392683268316 15.087202811610764
As 10.223462551895416 16.75638414276283 16.1026015892177
As 15.926640762191825 15.147321940259955 16.984126019313283
As 10.943013990675517 14.582177224239164 15.153549490544112
As 18.161952034653286 10.367801496344038 17.184193855882956
As 10.38989655585232 11.11090713800321 15.100603065352699
As 11.268392777254466 8.887305769151913 15.481426381200317
As 15.091690781894808 10.919430101547258 16.67168335579926
As 13.27670323691306 12.978800902439838 16.239524024460685
As 16.539813323619263 11.769042784115348 18.564135948660184
As 10.822715603870307 12.774151633377944 16.93153712999531
As 14.14383345827871 14.053994895649138 18.201004913532557
