44
Energy = -197.11562642 eV
As 9.51653351871275 9.643223417727603 3.372885775946709
As 6.733800330186603 8.046995465663002 4.645374232279729
As 7.810555133950588 12.207378850035782 4.964556910266745
As 10.548794339991266 7.384248294666487 3.5715799604010634
As 11.51241931159305 10.873674837964629 4.178119899161156
As 8.588112336352825 6.372271816058721 4.805018005270075
As 10.235867970252023 12.698661035471172 5.411351579057929
As 8.340267205479364 9.778624975119184 5.564532677834074
As 5.917936883609315 11.472223950166525 7.689282386889603
As 13.436262052370596 11.06165655622487 7.090376629906592
As 5.681313916183961 6.674718248865044 6.496063122061021
As 11.541753171576758 9.605774596533896 6.287483645776287
As 11.288106814740827 5.84169756833078 6.946271075498798
As 7.5317337171230605 5.2679530551162275 7.523419377842814
As 11.994709604819906 12.857172343725315 8.254056438522317
As 7.778288077085936 13.099366853821154 7.319069931347499
As 12.395591842415556 7.454121587949842 5.3481309221222455
As 9.160792058704311 7.111555195894867 7.117240625865579
As 5.1717219831690775 7.866857028512759 8.651646985099312
As 9.867595832637035 11.61047488724728 7.662408589484285
As 13.754277505347444 9.80517813210276 9.256338969706984
As 6.8625721918321645 9.651579249283827 9.086725939542324
As 11.485688682497507 8.82143379613281 9.508318147654666
As 12.263864651995869 6.492273512790671 9.168756128250427
As 13.047922366786269 11.95552254824935 10.362487524470065
As 6.489922893846543 5.968063119519282 9.716572988655125
As 5.224849883721595 11.333825794637871 10.04748175901006
As 8.482946548594256 7.127150615199436 10.714671217802854
As 10.43565080874028 5.434382838568977 10.495337044382595
As 8.820982003245973 13.569860143501653 11.679056724734416
As 6.3552167999935625 8.400978886360294 12.543514548396733
As 12.115388575745916 8.764645957143982 11.923642738944542
As 8.54781901935492 5.7988635144229415 12.825309293708646
As 7.31553119871634 11.696416105288462 11.36219909813385
As 11.126719599081804 11.133600748047325 11.75170155136688
As 10.98246982056175 6.5443765993778555 12.710687454315892
As 9.077703494104554 10.443616827660291 13.970203287807989
As 11.706334422573958 12.538993985442032 13.794880673384396
As 6.490480585575463 10.577312163666331 13.447494188420317
As 7.170721105326568 7.121177186225861 14.491821300283396
As 9.281814664123456 13.158249505765477 13.960412638441868
As 11.474605264406296 10.43406946098559 15.181981196180336
As 9.389213758576489 8.21903497447725 14.967411519425962
As 9.327857560666155 10.363453276425876 16.416834802713424
