49
Energy = -217.90148452 eV
As 16.846825606496953 15.527761100128904 8.018083358861043
As 10.999444870894116 16.011498693933365 8.546718459365044
As 16.707163348395692 9.830689140225875 10.957096844476704
As 17.853838430356657 15.401172443800933 10.224311201981175
As 15.996473973203745 13.888929101219755 9.432719647097054
As 7.566713906117534 10.895490919700798 9.584068366000794
As 9.82665872597328 11.724662321169294 9.066779360787674
As 16.252840970188497 17.2292142859311 10.861233675506982
As 13.256119597216886 16.134869770841025 8.91784187926124
As 14.454232260823854 8.91330174926854 11.502738987982525
As 11.07123153191153 9.777655346807665 10.015338321358621
As 9.306890375246201 16.083049350372033 10.333025362853242
As 19.864781485546143 11.033717504365757 13.182917119766868
As 6.894741327527005 13.264209199852177 9.78877122369723
As 18.785866062977853 12.810567933031363 11.625125388344541
As 16.43918769822243 12.082140283177582 12.179654398987317
As 9.074177382273389 13.566003547181863 10.740274017037652
As 7.727534817849411 10.188060214275554 12.008332425338045
As 10.824345893113305 17.01444700163693 12.112279989123545
As 13.063878452246877 10.90833386934038 10.926544433337234
As 9.545343946749977 8.528740901511629 11.640544151905965
As 16.369856554510097 17.152845268160064 13.43058240975561
As 17.560609025793177 10.164783155532458 13.283814582324876
As 14.353227387419109 15.647964084718746 11.112003141590058
As 19.580829319435598 12.615736522181985 15.073217637045797
As 11.54683104169649 14.718564963306278 12.776311855417516
As 18.753312210576965 14.481181030733882 13.540872310278024
As 13.675540448320644 10.455690755487192 13.305513492619552
As 9.60096467850283 11.45707043302415 13.111011785244813
As 9.885432999752073 9.110234043203343 14.03295060054091
As 9.133613748225521 14.777980280760232 13.490830914268836
As 9.439702579472995 17.16138768119161 14.251284765411938
As 16.56159655236492 9.813296103378454 15.632544998753454
As 16.381699776498838 14.770143705477045 14.005647844540702
As 13.924641027416248 17.318969929393422 13.0823619372003
As 12.30450365218463 8.835922800956668 14.613265768225778
As 8.392514611539521 12.810974983393697 14.866998147291692
As 12.974839026561002 15.56635752393604 14.6337881044946
As 17.77752849172306 11.759702375482341 16.580704057373122
As 15.64711602804974 12.088748824069816 15.32653348033832
As 11.43213661824752 17.18281471633208 15.740624435389877
As 10.216627720942506 13.291505751656368 16.56705468039495
As 11.49462569659754 10.448115838565027 16.37883386892576
As 12.215202191256008 12.613592701978778 15.27726960776504
As 10.301298339335133 15.653044302560597 17.41744587394512
As 13.046034365740303 11.069597637175617 18.275533761885278
As 11.032003248658112 12.55675958923999 18.941804673345537
As 13.922502856640675 13.06914571581682 17.040258045251583
As 12.205662419968652 14.6820978852762 18.63528188807169
