48
Energy = -214.5085597 eV
As 12.38561913009416 13.3845521234618 7.150784126264787
As 14.55678377563599 12.468312778517504 6.32080486386992
As 15.821920190898451 13.905558981417784 7.646411391856594
As 13.845463462263423 15.342416690524601 7.8905002555057795
As 12.18721482716617 11.513396697924925 8.859750253616014
As 14.254188148807707 10.04901240123641 8.971241314545376
As 16.129303903699743 11.555283089771422 9.661069999342741
As 13.75645563682267 15.92436375483876 10.375480600789166
As 11.336065308433652 16.545939415827263 10.358919878563755
As 10.412955218537258 14.172671795099324 10.207451191425257
As 12.712062636241315 13.230488011125896 10.507164413900979
As 17.08202173645066 10.514911082407352 11.713967559889747
As 14.612098000696164 18.33002309021007 10.802886985407834
As 15.722199850406906 12.539255767821704 11.952668904584883
As 16.656129136113815 17.76875376081498 11.997897172709692
As 9.572493068345315 14.676699109776257 12.527866216275566
As 13.58329612832284 8.612721346992483 10.942031023962251
As 15.64395340786169 8.539837558116911 12.343546604886146
As 11.693154512748713 16.00579071706637 12.81177273945639
As 11.828084904262273 9.797818534750506 12.33866085076733
As 13.20763578352307 18.56606766528226 12.837482900061385
As 13.200347251997865 11.849975994010743 12.55376659960806
As 12.481159115674535 12.906358230223008 14.701702554742957
As 9.95625139010499 13.103033509303566 14.388915127161418
As 16.907508155321512 14.80026067862697 14.763959447740936
As 15.16821023186793 17.588046645812494 13.853380835689538
As 10.720640047866198 17.08228236798756 14.86117621210167
As 14.66616742216903 9.853260143611116 14.223758798207019
As 15.60811693022487 12.771638247329976 14.96262280617957
As 15.897752558663385 18.25082150852627 16.202687303914004
As 11.96707908714249 10.83044136194135 16.02717222520212
As 12.918706548485135 16.211147031345877 15.699614175220143
As 9.494402776174088 15.101531192481593 15.844089842124408
As 12.472303728527125 8.832039985672349 14.550472433583005
As 13.461409113752511 18.3979505235689 16.75637032526566
As 17.413672714728712 11.360163169849452 15.929478753105201
As 11.564933907179444 14.864630369655368 17.41544701794289
As 18.03526197475561 14.72514151038407 17.01824517540321
As 15.83625153473733 9.45686380826158 16.40681985753616
As 15.788696974844777 15.832745650359188 16.900772076882333
As 14.685595240279142 13.062303075290306 17.431155269305844
As 13.967163309979124 10.655745546375345 17.618556568853595
As 17.079088688873945 12.620951048458263 18.060688415003412
As 13.45786993103761 17.820369656664834 19.20710444790448
As 11.985625644216029 14.376107127825398 20.252273632463435
As 15.32449187406452 16.260573200361698 19.54255003060478
As 11.331563044036463 16.52949329449068 19.260356759391158
As 14.33854294539229 14.140161658025558 20.076414970608663
