47
Energy = -209.63711134 eV
As 12.83091339479961 10.842905427292402 5.480424477059157
As 11.266846881622007 12.63958506282409 4.868913540930568
As 10.997996587367162 11.445854163457621 7.003466190857662
As 11.491619607688802 14.738622491649352 9.599803028496138
As 12.884673994413248 12.987412319488604 6.693934506249863
As 14.181293121182499 11.908359538499864 10.158702174699018
As 13.587043642394018 15.368733725639679 10.793872546276923
As 9.818739402023207 16.379795022374672 10.25278474983032
As 15.925047487641875 8.336109448235295 11.35352864742994
As 14.87265431557412 9.602370538378185 9.443032065614101
As 12.382928265018903 9.258294170815951 9.844077655811164
As 10.594535111421063 18.168849483439775 11.835387856882786
As 15.275842652153635 14.161659316673598 9.356881992035097
As 9.07141550188982 14.367787946178517 11.790053145495111
As 16.308191705474346 10.04179908096198 13.128516453876673
As 12.821971323541558 13.928936016020494 12.750472756793053
As 14.67288554234412 12.11972564768087 12.581057709231134
As 14.046971185772636 18.642519270178937 13.832196026224283
As 13.72030630739864 8.023567020133658 12.390895718674429
As 14.322466945166129 17.770502770227434 16.14882542152953
As 11.88446285362533 7.01324431636574 11.085147775316521
As 17.238353816073175 14.379743654677881 10.686122195958452
As 12.26210946371181 16.92254364307771 13.25378273684583
As 10.988250231188324 12.732678002144747 11.499159042178778
As 7.975602402298732 13.516107252374509 14.081924923275476
As 16.173071989611618 14.264076594510819 12.843003692218222
As 8.998382509152027 17.649412106758348 13.692629095113693
As 10.57762301278349 8.378113350001476 12.746498268167153
As 13.188101441740208 15.478510128062151 15.93706838753357
As 12.343109789096195 10.151952944302673 12.177482044833345
As 13.837839810863 7.080804602433917 14.660078284503067
As 12.557594366661661 19.476863734024093 15.628683667407653
As 9.77939465562024 15.221002352269352 13.976089771537431
As 9.658517894680694 11.779782904707295 13.849114394872815
As 15.072744277532212 12.381984291898837 15.562991036174887
As 10.943590115190252 17.560943816183848 15.354734319007148
As 11.62968205464654 15.383469611512355 17.88445922533529
As 17.548998384134066 12.094354829332794 15.655979667249396
As 18.219761242044072 13.480281601797287 13.939534373721868
As 11.55522070080969 7.984307079598171 15.087116848184516
As 14.802637403412586 14.13968578709149 17.342918122457395
As 15.650308661764734 8.73884136778418 15.175651867687977
As 11.721030431647963 12.390565042603058 15.1586565919311
As 10.800935211063834 13.102684836120005 17.37997895482907
As 14.459426396706652 10.267626497847338 16.75041645640419
As 11.982152218392995 10.145125730030315 16.330663883827388
As 12.874921460051315 13.350071231730299 18.751453478822985
