46
Energy = -204.30952061 eV
As 8.644822684887774 11.361276505932898 4.2175171182770805
As 6.364862260358703 5.868400711423374 3.956866260136745
As 5.948721740049253 11.99555220495365 4.108084979655407
As 9.770903177271396 8.190769788586657 3.4837436546567178
As 5.500692925602344 9.793905133925714 4.46741620410442
As 11.12909833752405 11.33600880518351 5.302684367161652
As 8.14437498131891 9.068558366911448 5.204610275588103
As 8.433771775030543 12.945254805127247 6.118578136775824
As 9.870697117288648 5.800942798064379 4.308430446347336
As 12.015544161368727 6.392049477565462 5.407823094179563
As 4.646982481277408 5.006203000637309 5.52559620182243
As 12.410732842038747 5.437739283727574 7.513566318326279
As 6.820782250122247 3.7968002647533505 5.1926012618148905
As 6.084633589308766 12.570041305102116 6.8574863624015086
As 10.392228031256622 4.250471652607822 8.04195038860512
As 10.709377060929878 8.952450267353935 5.670981782161912
As 3.7574647884578085 9.872332824583383 6.58548913628949
As 6.042448638104804 10.185700783993266 7.585724264901835
As 10.737436967018324 13.568509430408888 8.632880913660768
As 9.893540303289148 11.493038644133351 7.498926586409222
As 7.91289653327328 5.925629646116878 5.916438495461835
As 2.9658468428194364 7.6945788083259945 6.943313194146052
As 12.42565417749257 10.20305522777344 9.334326936458083
As 4.373892945591244 4.6184665885175455 9.124875089839461
As 14.37932847121282 8.618308279643852 9.795561230291124
As 6.0907893094027905 8.975541511552361 12.958240790536452
As 5.0246827142880255 6.473091121153344 7.531778807864942
As 12.181200726508632 7.370893338883564 9.82571765885848
As 10.031809353246139 11.28467298862442 10.868591128795918
As 7.160682091702965 9.712081972467695 10.85492929201224
As 12.176252224852634 12.494908614954097 10.431986787904725
As 5.434914841180482 5.987023124000016 10.928723591510712
As 8.496225273679572 5.729703514426428 11.79466774702241
As 6.565869229748371 13.278368786036893 9.38035331243616
As 12.720829899545556 9.126794099048476 11.537694156813693
As 6.8512304819005605 4.63979631382827 9.429571929828084
As 8.900613785092814 13.488022942594956 10.37239431379673
As 5.384605890030706 11.161823927876075 9.872121508006387
As 12.325879193342354 5.386577870056143 11.383751600493287
As 10.52178765158595 4.046121061614286 10.357534594008005
As 6.6060687444848245 3.9699772813871643 11.819352264952617
As 9.68747860059875 8.271625257753074 12.217870936408797
As 7.874090986284238 7.37057385280947 13.656611619041943
As 9.90548810749375 10.571195039722912 13.30440681884321
As 7.468976455044427 11.061321522356067 12.9443767254941
As 10.652315215045743 6.0923671114547195 13.172377573852819
