48
Energy = -215.35812945 eV
As 12.405509337129814 14.038085405638908 6.91051332443566
As 12.058682330783482 11.557400445422203 7.398452035326985
As 9.51413801165746 11.239452037118554 7.153644962228194
As 8.913751752166672 9.183039160615099 8.504119502916861
As 15.46850842658243 11.426568734048317 7.825814269164704
As 8.839338885525336 13.249902942120297 8.431681725058262
As 10.194530055335994 15.097794534501222 7.399915456589867
As 11.30159382838601 9.241195013586873 9.309222891093386
As 13.675438047283253 14.260174006286473 9.053279805875079
As 16.08784589656717 13.70756569843418 8.323627438025
As 6.731162524633571 14.442666398348385 8.809923330790463
As 14.270703180320279 10.024324899079879 9.44136611047748
As 8.3082636192304 9.820883986883615 10.84340602832843
As 10.601212221045298 10.848623530411933 11.190986057642787
As 12.706609524197656 12.021248914934167 9.781513898423842
As 10.285441255373133 16.331552283055622 9.520396825698697
As 9.057916367662418 13.125076805467717 10.875365038413532
As 17.035469392833907 16.07155042662601 11.198723887346517
As 11.285727603577746 14.503210654284628 10.866733903012163
As 11.354042429081963 7.300779331477931 10.84742380393247
As 18.590962331177725 14.18220662138417 11.57539304301799
As 9.044063702449273 7.6163322572831005 11.823104068570224
As 16.275780215461893 13.733278565943833 10.814954024959915
As 14.929872482555355 9.238966694885997 11.780446589081368
As 14.834804179838933 11.539136205761297 12.729672156189752
As 12.916404873506067 7.97586228267756 12.676690994176836
As 18.247759616789406 13.444141901026695 13.947412255872115
As 7.993694133290188 15.581648073506367 10.458684542060574
As 15.740990374022546 16.494382384444286 13.308325483974032
As 14.072130278755639 14.652637468871792 13.023166184826383
As 11.92102679953224 15.962348908920069 12.879951472353987
As 9.323147181799623 12.411541217374477 13.91348816585585
As 17.041489393312116 11.271081411691114 13.863842292840355
As 8.341103313688743 11.528491766507157 16.081100938343212
As 9.351084865895354 8.737774807319434 14.017592663400281
As 16.7851448002961 15.08958436881088 15.073397784540475
As 8.645264558991535 14.755171720632253 14.605959795158284
As 11.781728808451684 6.2076285316055495 16.032906068490423
As 11.642836692485007 9.637200963431596 14.044369927466713
As 14.994947473675543 11.50347337205054 15.226923679272645
As 11.028623783463887 15.262281205783252 15.090637466531884
As 11.504016534180137 12.805653757392795 15.117591727864045
As 9.421459518704026 6.72248735494902 15.46039626693203
As 14.548336655478085 13.992794242235329 15.415146326368605
As 8.278917950361402 13.895124535225678 16.935562755112183
As 10.296613524454353 12.489437552858549 17.304953658699947
As 12.432172356130707 8.593147027508419 16.20038171867086
As 10.47033996991616 7.735690649615138 17.462438712626213
