47
Energy = -210.73236104 eV
As 11.34783799006453 10.246786522810336 5.186839435712456
As 9.619625401482038 12.06237980017496 5.173903134564639
As 13.736075809085628 11.037936559320178 5.390850655711383
As 7.708479469616278 10.502057029271556 5.6393552111641005
As 8.072876863435072 8.152285843011589 6.602938195294222
As 7.479284338160028 13.897376267421441 7.40826342897383
As 13.870837754118952 9.123356461642647 6.925198775762567
As 10.649034165190454 15.483599500816103 6.747213734281929
As 11.679186053241727 6.449237454897954 7.596609396494105
As 6.388903763255806 11.654985771299176 7.464998033003101
As 6.098575621060834 13.335290931123692 11.51614899678792
As 6.387731673901435 8.559974605104882 8.45212027058259
As 11.694439115119444 10.078950087920768 7.640566117252249
As 9.868019053173676 13.265780392676472 7.378690663905409
As 13.388929138306832 11.997665803407664 7.853176365577774
As 9.805976823015062 7.943841114985672 8.401844937533697
As 14.681088243086226 10.4311542668138 9.336738040521697
As 13.512266646422544 6.8452323217388615 9.264238324078399
As 7.18812547576833 14.802441210618575 9.746296885686355
As 10.138096724735451 16.65140006900572 8.684435758856305
As 7.5554406441723465 10.552737912174775 9.351798720101588
As 9.684102662830782 5.438524271233861 8.680341443230867
As 12.778834997693352 8.997128220419613 10.352777912711646
As 9.544134933964017 15.07653963414274 10.507096674148354
As 5.505475888578727 11.040350729498785 10.707281194878343
As 13.48776821482932 5.743890259546452 11.582088324155231
As 10.594266344012537 12.915785079246112 9.968712443771635
As 6.35131253015738 7.477469170211249 10.817440950590916
As 14.243410463024393 8.05522184259329 12.189414729390588
As 7.978357205361958 8.773755367563274 12.18693494205116
As 14.343699440439961 12.620511916994452 10.95390801540585
As 12.84809593183163 13.922926112618649 9.538714436209341
As 7.507832748281221 12.439201402281336 13.397356187014367
As 9.917184313183238 6.423344556368794 10.938578157044107
As 12.605117510688116 11.451823437234841 12.261835726528977
As 11.238826549821784 4.974881121150894 12.427238607274367
As 7.704934150647105 5.463921751995879 11.517066463660798
As 9.610417729199774 11.441903502246696 12.490585370357605
As 6.173623171737626 10.299555771650837 13.036279445501178
As 11.195555312334276 13.170784502481965 13.40914227688833
As 9.635265249175685 10.28312027846078 14.770633322541341
As 13.618306465777055 10.940622271262761 14.49027246293328
As 7.83092271165378 6.720842364502298 13.689596426793198
As 10.16087074595279 6.089433276723791 14.431702883435525
As 11.490365831466896 11.763082838183289 15.549980418485735
As 13.412050364944882 8.462943063767199 14.496984224333914
As 11.03325893019065 8.302788495576364 15.210633043009699
