42
Energy = -188.59473585 eV
As 8.981738829260754 11.100470006918993 6.869536300116311
As 11.335869765232935 11.623564578639934 6.206239705235754
As 11.645288824771365 14.060911694362145 6.614958994974562
As 13.152258806203985 10.932609658663221 7.807555781979058
As 9.387438677299443 14.935068192841127 6.535137645218434
As 13.305242675606431 8.435940041109212 8.177774603561687
As 7.844493280828065 13.247053238358282 6.674512436836467
As 9.080056928402131 8.695878063247795 9.579713025990355
As 11.149590060204979 7.393262707792522 8.980190310959241
As 12.765049323933754 16.408883275625644 9.401273210445577
As 11.789231618835334 14.117748930465142 9.173526699830779
As 15.40812372626547 14.184619276945545 10.553838146966383
As 14.448558418598122 16.342965800489576 11.264907417644087
As 10.384120355774654 15.981663153877816 9.979165155380736
As 12.482361786600551 10.773348540793116 10.211963836629797
As 7.430477165011494 11.924533406281382 10.6984913265839
As 14.485155802912875 9.294906015516876 10.227901008545421
As 9.750260137570619 9.240352432591582 11.874162557324645
As 9.467365100823478 11.163751982435368 9.309592776212888
As 12.684880191237058 9.60669073761392 13.411088900764868
As 16.569040476052724 13.53127925017428 12.654620865958082
As 13.424861289371316 15.95926229477922 13.489952736620541
As 7.345203214149047 9.924321614524084 12.242538166670311
As 11.926260309869273 6.433947853864803 11.1646399499476
As 10.021479816057132 6.925886923897286 12.773437221608729
As 13.348608168295728 12.923781827533015 11.310287921866605
As 10.035746663955976 11.275075440258266 14.543967159814397
As 15.476434437196323 14.954265555121896 14.464127661972821
As 9.942804986397263 15.333915780036483 12.347415150558678
As 7.584447388503455 10.806610489423463 14.579330859414874
As 11.940827012804046 13.96131722513272 13.35699627510576
As 9.325827098321932 12.899982661512878 12.066433182225039
As 14.826595137396941 11.687539756087348 13.006045084911557
As 13.79681902744892 7.776927228475839 12.093328602632576
As 10.914524249182511 8.306526966928232 14.664009095507836
As 8.349191083005472 13.151719712789257 14.333534935866567
As 12.374098832408805 13.563388758367351 16.000623035796856
As 14.606913015928079 12.746154641718379 15.289906651170739
As 14.271186452297142 9.118890807265114 15.324423235548876
As 11.09313952481784 11.561337412939352 16.83207160168479
As 12.628853375692302 7.527849052056276 16.330896699465146
As 12.896378177300072 9.842598224370908 17.25668527627507
