48
Energy = -215.46239641 eV
As 12.676935702565844 15.724010952509078 9.333184606456951
As 9.02911058776106 9.02092435473878 10.498709985163602
As 8.931257633304334 11.465997694975933 10.24341357466449
As 11.340514217857214 12.029185044425466 9.92181453672108
As 10.764089137331421 14.423005543404368 10.268326456625426
As 8.87554618730485 14.796867007954491 8.708435683329382
As 11.953369071101113 17.981627197009054 10.078317389072296
As 13.471346715518111 16.623262647754785 11.52213733901217
As 18.83707404109753 13.866407258549328 11.803573212191942
As 7.720634893742397 9.207090248684363 12.404987404527883
As 8.326460598306856 17.13892266037743 9.301839867035415
As 8.706225493411939 11.445608104242247 12.728980502397357
As 9.763531952400967 17.717677659629324 11.264715101835675
As 10.147838110680794 15.549985418122166 12.426620078370792
As 12.088152355613635 11.269681043001855 12.264295398321373
As 15.253411351740159 18.03424632510081 10.485334231110057
As 14.16660958390346 10.181108456433105 11.397141025637117
As 16.623039552055587 14.629593726130956 10.935901061660546
As 17.92480935879947 11.739402226610071 12.778674295466756
As 14.252130473529135 12.379605499290715 12.613777713777514
As 6.951948118711592 15.254897600640705 10.176792761792871
As 6.829374227758396 13.023481006567565 13.208236641165762
As 18.61948891391697 15.001896375922753 14.046892956973132
As 19.56973779424799 11.55564965632004 14.62744765200453
As 17.49174957070057 12.884257493689466 14.944804460512167
As 7.689080865133689 15.260580988779331 12.550941999176214
As 17.43528164711923 16.995571104325 11.092135911904139
As 15.10927109004663 19.675383967016945 12.435430257692198
As 15.999786190265382 18.468563846526713 14.402947706833746
As 16.514603094136447 16.00659021351092 13.116876752756353
As 14.032264376046268 11.50877699125925 14.924915733183463
As 14.79578300705426 8.874941256497737 13.43501286672256
As 18.31622381720813 9.34135017704617 14.816906928228422
As 14.45902092486643 6.452135418416489 12.923053238109409
As 16.56629906190162 9.849622179959429 16.48082550814662
As 16.556126860819923 7.555492931500623 12.266281113433015
As 10.741942656691265 13.211878317654259 14.376997186689266
As 17.45313822168974 19.750304305219082 13.129110762890043
As 12.811555018607583 13.460834337636818 15.840844619573698
As 10.419187626646565 10.94949442425429 15.363004188102945
As 16.236798258724157 7.3799877691647 16.502861731599825
As 18.45024563584566 8.364852086607348 17.120838958892342
As 7.22324688192477 13.409976464978087 15.675783385142722
As 16.53828684329024 6.152752137737382 14.298578725700908
As 9.396413646358754 14.619969832313307 15.898248787025633
As 11.686498258054506 11.84272548164267 17.360399766787744
As 9.56468651746065 13.144205489978745 17.93084007102363
As 8.284706505781516 11.374451724925535 16.667642513593623
