46
Energy = -205.984848 eV
As 5.906615585112802 7.522704010781036 4.200332666803161
As 10.395502288914285 9.042157057425108 4.88572315030514
As 6.729807672641836 9.844237093701048 4.5793364653345225
As 10.743642949363121 6.842751609470575 5.9881797982065255
As 4.848587765702857 8.934455120887755 5.891705690605063
As 12.196736982608327 10.62667873575006 5.631445904385796
As 7.660409805764366 6.259361117300789 5.400323469174721
As 8.965240436822153 12.051135073341158 6.044749441986697
As 5.339718980666033 12.135141091967172 7.994008563852249
As 10.908394784988673 11.700022297695751 7.538886934531503
As 6.630294573457342 6.149006685088025 7.503813297537669
As 7.435720060866534 13.399386026651214 7.524379776640912
As 13.803488409810605 9.327376288197103 7.052815166809049
As 8.450599617339096 9.620003900066855 6.392004240616145
As 12.344563396012243 9.332115224657457 9.072377040581513
As 13.194115295729127 6.923507325559058 6.6360530287516655
As 11.59162670055055 14.05964208791242 7.761843084815112
As 10.140750058355017 7.266663185968588 8.398437303469592
As 5.286573128615333 8.202561293474886 8.424571023216439
As 12.792331259519354 13.484276369592097 9.703814747573976
As 8.59514735473077 5.297607126354152 8.738098386283173
As 14.589844953383484 11.230069258230401 11.824982021870449
As 12.415951722682564 11.24732517077541 10.655405160752242
As 13.82438654601285 7.591533259662988 10.092684004457025
As 6.662773787332405 10.21005417092123 9.048808379008545
As 8.000238066568594 13.614476642354262 9.957632836914382
As 5.477426255089532 13.834938403992002 9.938023737026072
As 12.336824688370143 5.997574828012798 8.838086151938718
As 5.1881301119871255 10.514178667536624 10.99728269302517
As 8.475781242700984 8.564974304021597 11.047422278238946
As 8.12834030758984 6.078070167704024 11.07489453658013
As 5.482016307633192 8.53021469210611 12.559771101107021
As 10.803227206567104 9.148454595159201 11.679122148323088
As 6.569663148741752 12.47755032456243 11.679887472320308
As 5.755391063548292 6.805593632180862 10.72745562185751
As 13.769758507307888 13.080907284704095 13.262150830821467
As 13.156763850756661 14.822636303954166 11.603236514827898
As 14.430534023001682 9.437762353728948 13.551775462494138
As 11.12871957969838 7.248217055899652 13.185318228616982
As 13.56761279136737 7.270210783303714 12.593626416364643
As 9.868281774717314 11.138036770432548 12.868864052750325
As 7.809043662119637 8.065284160180264 13.402461625539194
As 11.627814546643052 12.15382859253937 14.304868810457995
As 10.93777103710133 8.459550902524626 15.333516523368393
As 12.756276023779993 10.18927766027219 15.284355346129743
As 8.914755047881432 9.905684653550038 14.762662223882518
