40
Energy = -178.26171885 eV
As 11.03105108878739 14.736137560696639 8.294887134704164
As 10.383428430410286 11.114122990519256 8.168847903853298
As 12.39307425018164 12.638270185650832 8.544926337678225
As 16.065259037529106 11.866132503085634 10.199395179384785
As 11.259408916571434 8.92771220857905 9.033147580352077
As 12.795464802272443 16.343108180320808 9.042395072060215
As 9.472111644239636 11.677433583963458 10.415551642187877
As 10.233544157013357 14.936845269804627 10.657404674745628
As 16.810060573373235 8.395536301560332 10.52357493641299
As 7.985993564511297 13.727291372846592 10.689900828609948
As 16.235576743566106 14.075295044957558 11.202197320417051
As 10.80909710882019 17.3749353618073 10.123402894452788
As 14.057983302184272 11.208230200526831 11.408711015829235
As 11.568028618967398 9.494585569458017 11.562671882281695
As 12.286100474949409 12.892050588368217 11.034188632571823
As 13.761362118150616 14.935627178212192 10.999524750168906
As 9.608355313606292 8.170079059588454 10.797399162726526
As 7.812486428174786 9.895892805129657 10.733276804651728
As 18.320352319516665 8.925064916855348 12.315951000029369
As 10.841892156469338 14.855238814627073 14.720130045056473
As 11.703699463114166 18.075891717853448 12.357598042062751
As 16.748103239486333 11.001046498549018 13.005054241630074
As 7.418837330930517 10.850514662613673 13.066885600250073
As 13.747232322189694 16.75087223877054 12.747862825616371
As 8.818859977969927 12.931864349175802 12.964171886013546
As 16.769557150582 7.960227785619076 14.035271906300665
As 12.941001094404792 7.703254249870794 12.65032107466343
As 15.177739526136369 8.762777296849311 12.273016014003069
As 16.27030320098404 13.43412886522468 13.622462581315538
As 7.838007203939256 13.696712032431822 15.128815833812718
As 16.69259810086755 10.064803857312533 15.362373429943938
As 10.03679373590477 17.05003047901519 13.877725721990814
As 13.232710771635157 15.602982784899396 14.864589558223388
As 8.939163421402295 9.87708920716539 14.774073870256512
As 14.01444448292909 12.403220936089978 13.668520955154449
As 11.112966784719521 10.845047273410493 14.056856454520426
As 8.14148890832356 11.728028836356609 16.288499373892474
As 12.543892083149023 8.963928593269872 14.881821968738787
As 14.240882564163558 10.684169968150886 15.51860356253055
As 11.416505922946016 16.95923700588661 15.92340863597897
