42
Energy = -187.08534221 eV
As 8.96191073366953 13.31483735381956 8.170903207216835
As 11.484111902927879 10.970900612142549 8.099096234437516
As 14.86219358875401 12.327654932152345 7.598389476702021
As 9.97280295494523 15.517069908799304 6.855732042163576
As 12.570660026363823 12.82465357172946 6.754053690880624
As 8.756450729327591 11.446215945635377 10.242244866543045
As 13.863949636880664 10.054024649849344 8.05681087393873
As 8.998066353165015 16.837959010783067 8.776806403125201
As 7.275230759954038 15.003689281431814 8.971612880162679
As 11.18442992862109 11.649289682586819 10.557420199894501
As 14.382512465838735 10.427232960781579 10.502687819957856
As 10.885741633127521 13.95650885517571 9.55667210758109
As 14.915470317421478 12.843969656590435 10.12411261438033
As 10.143588497947734 15.913044840557054 10.862400460223734
As 12.204035841008336 15.108401780106547 7.741672726785051
As 7.484555471661346 12.826511120305 11.873319773241112
As 7.793308161639468 15.224244637337426 11.393306406192869
As 13.52761392507012 9.999458192415986 13.255344105192806
As 13.32443525935897 7.512025497988781 12.978237036274349
As 16.730961654045327 11.15274668928456 10.392654757726756
As 15.169880957933875 12.966633622228002 13.347943167076371
As 15.468905465445124 7.4833661242196 12.137416900608121
As 11.948000547629464 13.524519432009845 13.37876005900722
As 8.212916205822193 12.693923217970358 14.316035814988957
As 17.102784882267894 11.522407035513426 12.896613735473583
As 9.813800022910117 14.615385594363937 14.019294167133218
As 15.874229604718359 9.429696436015854 13.691421159242745
As 12.594044741495695 15.86752568370435 14.310855523215984
As 16.413496547526567 14.524317941992233 14.743623178423547
As 9.927199870567488 10.992350149679297 13.959759342007903
As 18.04078758696147 11.280877866720704 16.376227737897555
As 13.153692054553995 12.798525234072617 15.420846480491994
As 10.867292792828822 15.637231280995604 16.092075561356047
As 16.37928980385449 9.642390795215325 16.579764198431278
As 14.590743852977175 15.858615182318404 15.848265609070937
As 12.750604853245116 10.368202679429677 15.746586662269168
As 17.130498436079556 13.43916401236098 16.95151970822323
As 10.392595692012362 10.942302885368894 16.248378011085258
As 11.646866638335952 13.635762716752398 17.32880519935442
As 15.24489222105195 12.789493315019484 18.322852422028166
As 13.774545900126927 14.802995607635419 18.01505619564384
As 14.413296306897927 10.506268833910656 17.73681631131989
