47
Energy = -210.89408608 eV
As 7.203199313164188 13.044643803754699 7.247421437692272
As 13.502028369141446 14.267868580121908 7.456429722547937
As 8.21527105629325 14.567722832780372 8.954324064729052
As 14.954537465164636 12.244198923057638 7.6007765584721705
As 14.94842647143594 16.23473746753787 6.986492635799918
As 5.248531149046146 12.627145364054753 8.770492796976999
As 10.647619541360115 12.103730552067152 7.884308755922113
As 8.406044262912873 10.938342773122722 7.609690829438309
As 16.794636023760727 13.148691380268303 8.998926956078666
As 6.276190292058497 14.157381640435545 10.496333915856306
As 11.85957658067145 10.172484668803756 8.800822318957207
As 13.634552321044362 11.661911649054977 9.62438156014181
As 15.659094951631387 14.71646211780434 10.544322993862643
As 15.826718621734345 11.246796562463329 12.346896114324288
As 13.838610086925149 17.221291454906158 8.987683669708883
As 13.261213273288382 14.841386337920156 9.85973208419951
As 8.549939044697368 10.989598537381701 10.077949270598527
As 9.832016212207451 13.109111817893826 10.08193823413571
As 6.282788746262818 11.708453387396625 10.815674167058512
As 12.024130574866785 9.000544942156324 11.88487026176137
As 15.121531903712773 9.828880008757572 10.438011874597002
As 16.247996847790848 16.62206854291765 9.056535142048597
As 17.26703628883313 11.05082615161893 10.313210231190023
As 10.743178595591553 6.896597112549056 11.92020495947203
As 15.22157584045134 15.442881511738308 14.468202697641232
As 16.96528367579462 9.212028634621676 13.246568485997868
As 12.981845132220892 8.472690793796097 14.199257534942978
As 9.616603485257809 8.827786815015267 12.45870695563384
As 9.03323046486149 12.050612462929035 14.038996867203734
As 12.890012306173501 15.924449874659793 13.62063088350039
As 15.165583851056757 7.509904709045175 13.54800448717631
As 13.09756202178211 18.179471667212333 14.691352680153326
As 14.004146231665793 14.184490789169882 16.410599449457496
As 8.016202975752137 10.960104639901859 16.005552760168815
As 15.124330896189536 17.3588863204256 15.90878382647741
As 10.171548702421758 10.090086993800872 15.092373731767404
As 17.392042962288894 9.432717853233475 15.711880044423998
As 15.914309239897305 7.395637057936485 15.949817094855613
As 13.778260542351045 10.645439394205056 15.119425052711938
As 8.944124322529074 13.256851632982135 16.203764246248873
As 13.07947694344305 16.17530392373106 17.54366499128703
As 11.502675979592723 16.473505267654883 15.6290218387688
As 15.218067619769766 9.598476096312146 16.863054736934725
As 11.930498204669892 10.687493375460052 16.796242536775978
As 11.41071935673128 13.11447112248322 16.72314329123476
As 14.290538172739746 12.85325769976865 18.41020000618784
As 12.189643999041992 14.035725675368555 18.88647616515659
