45
Energy = -200.66382559 eV
As 10.06498051875369 16.727370218474963 7.506773343569146
As 9.604741407637112 18.010046680633604 9.58469926085579
As 11.93680375412105 12.705102622151795 8.449679320682604
As 11.02744202980179 14.93853633541236 9.08426714867252
As 11.816828847999924 18.193368417097215 8.49057133591031
As 13.137481170634263 16.024988536222033 8.60718302346257
As 13.616266644925735 12.935058184408389 10.3468312496508
As 14.778372545765045 9.204513372616232 9.922112470523167
As 15.551133830907391 13.924037822279715 9.128539765644344
As 9.526073180975512 16.224476291489776 11.4175895427454
As 17.506432994715198 12.626215415021345 10.072747334866667
As 10.046149175813133 11.72679930801111 9.804488673178934
As 16.3626780146767 10.694601273984516 11.090376797052413
As 14.267255428207378 7.952989850472914 12.044097349398731
As 10.648994923582618 9.451052398100185 10.722055889101759
As 15.041889686306906 11.49565000869847 13.24236060503494
As 12.980921803686552 10.046469739863737 11.559495655126632
As 14.254769675192803 15.31057858421174 10.752181096356686
As 18.040267085745548 9.372586646547088 12.14250984597792
As 9.399256414092134 17.755158295305066 13.39128475184762
As 15.697154752320346 9.089087682055446 13.782480285199837
As 18.360048970649075 13.425914941266031 12.254239020817243
As 8.840036329705015 13.777974959550845 13.48379457750485
As 11.52666962586132 16.672417586071234 12.768197544676843
As 10.588793363376444 12.547923248543668 12.165062509529665
As 9.194335677462725 10.530363971079257 12.516375474452234
As 14.665963038429771 16.291714941603555 16.4509369777655
As 10.127780837130642 15.681488095190744 14.58195714775568
As 17.073775473619254 12.573874269817944 14.23810002086391
As 11.998140519830763 9.582593899378688 14.237178128547953
As 19.02791385106255 11.273397574507017 13.377169643058254
As 18.202333500421208 16.25968724988327 17.26599422285465
As 9.6346107873535 10.141697405209245 14.965539945854664
As 9.456571239925314 13.331062090389242 17.366464339724192
As 16.76789853214912 16.990834475584826 15.351429445681916
As 13.412181455926218 11.202478344177704 15.428252859861017
As 13.863974769352676 8.846288285309182 15.76380205169027
As 17.47327045229161 14.018593856501115 17.79523097868416
As 10.285650924507273 12.559809233745217 15.219199848058205
As 11.875101918976664 13.604316566004696 17.71611427303804
As 16.266125168040173 17.782310754943843 17.62043251995119
As 15.105294473827055 13.997490424834975 17.264334707289095
As 12.4794907712472 12.951452354255691 20.04398692622913
As 12.187973481379434 15.339406335543659 19.499538765381423
As 14.475430171657353 14.403480673594364 19.679602545913273
