43
Energy = -193.22910534 eV
As 17.391777014827444 18.230726283147884 9.205950018028322
As 16.258139741261026 19.442536938315904 11.112444500453543
As 15.490858244934719 17.687756447421606 12.631027491846746
As 17.17151155071315 15.834556916453982 9.695799883537692
As 16.977977015918725 15.809370837863911 12.13380727689323
As 15.234301873341165 16.97328781759705 8.748575345180274
As 14.118985473569143 18.151864628767786 10.661702358938543
As 11.683851791905111 14.53279479525784 16.181302261846685
As 15.336749091813259 12.811061736309792 9.480421995061999
As 15.32207607868959 14.078558320383594 12.890373866745659
As 12.805238105314576 15.21321775505288 9.962614072678425
As 13.653659515773594 13.241335895124415 11.227494404945467
As 16.973097046153107 12.21374499824216 12.559909156752568
As 14.695476197106291 12.130290759375253 15.374984745384845
As 12.227967117172135 14.07719780020828 7.817160123178379
As 9.800148490307503 15.2892289595061 14.714632185204863
As 13.83754398469595 12.135807427353443 7.6197804351923795
As 11.653254796697674 16.14326375363486 13.255032889757118
As 16.27498812739941 10.783039714657882 10.58072684615671
As 10.5716758213618 15.754837451066914 10.985366608333834
As 11.435955228458402 13.676135108204447 13.826296768014808
As 8.1271664248024 8.007513384898752 14.188799056648378
As 8.496531676281327 8.39000304883716 16.681876981477277
As 10.684360586643042 9.35934959322023 16.131286676230236
As 10.34726226441034 8.836621884412397 13.091793498580444
As 12.216285278187508 7.221530804852227 12.959083428926977
As 7.5174443478999 10.44558456327494 14.102856573103873
As 7.0729149295081415 10.46940669247752 16.587348729261052
As 11.65382595447407 10.756237032337609 17.935683082852922
As 11.132303378569446 8.009307606178327 10.860284722119173
As 9.86315603599211 11.270794248420614 14.670245934814686
As 9.386827898917293 11.96943972473293 10.16626286425963
As 12.195131472566898 10.324570167945524 10.770572638422559
As 14.33600951096176 8.674731668026745 13.345974362261593
As 13.768000773705001 10.198319990217898 16.652004798377302
As 10.490272943737645 12.256443024042484 8.015162422679316
As 10.47139900916937 12.993250788341564 17.802191723359886
As 12.153877962531363 10.368431799641954 8.275574479901048
As 8.536963592703103 12.515731610794909 16.319840978590207
As 14.400594349908785 9.163658528746346 10.911631103352562
As 9.27893832529173 13.745951232354836 11.627217315047629
As 12.998447243847663 10.590760205779343 14.300739164738326
As 16.44256011573051 10.707254439773742 14.42367261411853
