47
Energy = -201.53651099 eV
As 20.73949941996119 1.5730190230924996 14.601176721278245
As 20.448946400476405 18.048122562226304 21.289331924950712
As 18.447324025829584 1.2374486228166217 14.640246403016263
As 18.38765129222073 24.512070662816345 14.132310505910597
As 14.654373714219581 24.663851135938355 13.106651766874645
As 24.873886355877918 12.451526200404492 13.39478926167978
As 16.8755615060165 14.26988733526522 10.813683804945654
As 12.34051325007822 21.408456809679546 17.35286723385764
As 21.893431431463547 25.116075448859092 14.155239597318072
As 22.420698585532293 12.846179413184641 22.900258638804726
As 23.618560494697203 15.713382728168451 15.142414388977993
As 24.241487602301873 16.809005761354985 12.851149189723476
As 24.801305058103004 12.7377489748276 25.230896789343657
As 25.198117414168284 13.924694253190722 15.201165965047482
As 10.395011494495042 24.486033294533797 25.46688416034321
As 20.408607177786223 23.35828503436648 13.874246086308121
As 20.640364997052256 18.318527137996426 12.815977729589669
As 22.709522206525033 18.132234901329273 20.32254296837731
As 13.195426601125652 24.02252344862499 14.808665096359013
As 14.502658279464352 14.312532422033277 10.16972096961528
As 15.570350933726703 19.340374806021433 20.02647948125146
As 15.076043454528346 21.705126772808015 19.53962151602042
As 19.994452746936567 13.275387385443839 23.174300412458685
As 11.852963835822122 17.51020156379769 24.712303481788407
As 23.392042322981464 14.481612211813545 24.446184319716117
As 12.606165366574054 21.95837580746615 19.82075318875576
As 10.873976003177523 22.961718076451792 1.2938017863494888
As 16.29872443661935 23.181537838628763 14.102893724438891
As 14.20355495308563 17.89179330897643 18.58577492174937
As 15.110348927090362 23.626493172361336 16.266759751078784
As 23.15066353757674 11.188002008171827 24.57498231529086
As 19.311338765734458 11.088188854933252 23.103484643388857
As 10.77029652329413 16.68455050180187 0.7743051564996608
As 15.25227600251444 12.858144699472998 12.003264368503194
As 11.680091592388848 19.690984859379387 20.328648720099455
As 22.431650246440416 15.137523024056176 13.043532728791378
As 21.663225191625816 15.962934739822247 20.826552125462978
As 22.40069713896053 17.43480913102812 22.661199356734905
As 23.043597174148942 12.987041962419951 12.086707421209418
As 15.214335889130496 15.295823267563344 12.306335986284948
As 16.17441833542587 9.572451780954305 23.5678610065778
As 13.626619804130621 18.278661677337663 21.05325107508681
As 16.92147162087413 11.667026299651232 23.2659220959271
As 14.82043827336915 21.273482734598243 17.075093703479382
As 12.007892101985641 18.97340188253343 17.965644664342587
As 20.183492745121416 16.04953979935869 12.810525584218182
As 22.939386791340624 18.810755645522562 12.834226939323724
