49
Energy = -218.90423109 eV
As 15.317694171442907 11.763691700401443 10.052315141478754
As 12.269242250064751 10.088497780190288 8.18493583249059
As 14.3405359466869 11.448914775256291 7.771185003118494
As 13.175067216554794 13.633979231586455 8.038218440287897
As 9.662500117526637 15.211286300293612 9.035998810104473
As 10.197477879920198 11.057842635346402 8.900428237704661
As 16.749568481068923 13.661078209989755 9.417046910518856
As 14.880709761605894 15.278754771476244 8.969865623647149
As 17.292817403305154 10.319227738678865 10.512230618248715
As 9.852520371267874 18.52157419402714 11.460090742663827
As 13.68132900950029 9.446627968796724 11.051269510020768
As 9.727461860395763 16.03451777843814 11.4331041415832
As 10.182680033906127 13.135841340788238 10.384709789935686
As 11.50977529673225 16.685749817260504 9.84109331648958
As 15.945691829339985 8.372202190185261 11.337283574293965
As 12.639034614253736 13.121387169729779 10.42519222395372
As 11.894433045534248 9.20094878499452 14.462372170874803
As 17.49888881178247 11.577741699490089 12.671603516663623
As 11.816417948293717 7.80898082796306 10.732654405242167
As 10.15592887804265 9.618665597686457 11.187763679026872
As 17.858863124890366 13.888522690792305 11.677952319461925
As 15.001254783174621 11.73571215993202 13.152712542247643
As 13.383302038866756 15.411571834920114 11.001167325686199
As 14.528354215188061 17.59048605157432 14.722834737721488
As 11.570352109919082 17.935618546396782 13.191650501514209
As 14.808356874215713 9.232361271475371 13.363399298266366
As 8.982579076434613 8.057135267533063 12.926309954483624
As 11.442890998964794 11.02454638603294 12.82120532769278
As 9.369141580566275 11.6510091623942 14.119078477030955
As 9.826443618713611 17.181847289307914 14.77929409695397
As 16.043256662070494 14.693705696910602 13.200034835111142
As 10.908857158055257 19.409730232441092 15.098653895945564
As 17.545106210470024 14.55932900923224 15.196297592269262
As 11.273301562992756 7.146757432438213 13.12512076464182
As 12.892278845288008 11.452847705794523 16.794565476557285
As 14.581618920778562 18.487174124528075 16.99977378619141
As 9.436112371467802 9.301347485314375 15.050968634175177
As 16.87359515157636 16.775298491643287 14.279347415812415
As 15.150531838230716 11.687887224008831 15.740431189052014
As 11.192713539985478 13.038969502270666 15.13984987105342
As 13.370359017220453 15.391049893040623 15.176626977678517
As 14.307583433788839 15.143058105283522 17.484918123231775
As 16.176240797268708 13.580733942541514 17.05118895377779
As 11.464272648617793 16.330633161852873 16.46403393919522
As 15.96682864135153 9.637170158887628 16.95368607558048
As 12.744650747390203 13.366159546019427 18.369351958553903
As 12.267605345894694 18.795743744539077 17.185948011920953
As 14.435155168632308 10.180930174345344 18.546622658760125
As 10.575214332381396 14.091748937589816 17.284209312704274
