46
Energy = -206.06545523 eV
As 8.321255641936952 8.05251468631608 3.8580624163488095
As 9.657873252275284 9.928586012225596 4.2015358974890695
As 9.778777568026804 6.453203166991433 5.118480914919645
As 6.9580597755636475 12.739529556262278 5.411806547177712
As 11.417380247027511 8.378659060925647 4.980556348353977
As 4.954183326242289 6.388659516652588 5.492661813920476
As 5.396596499637377 8.691613054965718 4.722838695673098
As 6.9871656936920115 5.29333122496405 6.475868152659659
As 8.702639427873734 6.902015818624143 7.372181564776994
As 8.687662406723001 11.546595050926975 6.766507801955791
As 12.39973111070404 13.67887912292725 7.241961886455933
As 11.634135297831628 8.957676153597225 7.398906063789624
As 6.29239207370664 9.270834460329706 6.979370063021715
As 12.797353144372963 6.7638009587427765 7.540920238971465
As 7.010237331005875 13.084002733119496 7.84550096821625
As 9.720617120839785 4.775829315814992 8.344954045726382
As 5.291824672340844 11.585210565841022 6.855887470322461
As 5.759644145822372 4.765783340744512 8.574340562888205
As 11.184411599989451 14.248346665720078 9.348949525285855
As 10.486764067663104 15.224667081372868 7.159175915102599
As 10.419164681753493 13.126470146886655 5.8307248054908465
As 3.9981984295389585 8.294988950893664 6.770656049621713
As 14.071759617349276 8.805113456085573 7.13416369971432
As 10.05333768011235 12.086134313234135 9.860844763713338
As 7.817458034996512 3.8026835432491577 9.682944948308107
As 12.307083540481749 8.651976900310325 10.728556574314545
As 4.658543895646414 8.824925027919928 10.335582725660744
As 10.978178994615782 5.115064837954512 10.486586989165593
As 13.083136884963007 6.403653103538518 10.00550050536833
As 14.340808557247703 9.818223019556587 9.946727347747887
As 6.991619745863176 9.685836094352942 10.557673968503329
As 9.41105383385374 6.810169615965605 11.433602435207206
As 5.803045546792825 6.063220489259964 11.88861264304789
As 13.747639805642487 11.505466356533624 11.725684835136803
As 9.702433111509635 10.187299784240524 12.390184895165257
As 6.255673126931041 6.931084582043305 9.666346863521346
As 8.271814974334847 13.328571544667891 11.172950570198221
As 6.342492183932568 11.827695089632517 11.686333062949126
As 14.143849068859092 9.138713936730102 12.345029383781585
As 10.257982746360161 6.7207666619073745 13.824810596171673
As 7.993410758075235 4.858677545757338 12.009439939623704
As 5.92280162075458 8.518390955966783 12.508877522792153
As 8.231220902251339 12.008598284035148 13.306675480540433
As 10.421425345876818 9.114750615382665 14.530121659123088
As 11.32574700739965 12.068059978093077 12.035876964912614
As 8.323599976110497 7.88591209326764 14.757208351694628
