46
Energy = -205.32762419 eV
As 7.1325486792993145 5.300941079855956 11.00372861836996
As 11.692294382416627 10.125038363253474 10.587525915168365
As 13.54565595538984 11.421715180403908 9.446815221193745
As 11.133833362004191 5.247075603293971 7.324727507903724
As 8.018313159938431 10.507346113835215 10.887036920956938
As 13.471603782941335 10.494926614543612 7.078820149347134
As 8.37802102400664 7.578404222831716 14.229410354539757
As 5.920752532479879 13.425112802878827 8.86810130045117
As 8.73494931935995 8.154703143155439 6.021142175870219
As 4.244175577377499 6.834652285168236 10.343313901301132
As 8.989079502651261 3.1274105374272496 9.494669654843397
As 5.276045155478888 6.6509534529125975 7.144032779965324
As 12.07224353004778 13.487213765549948 9.520990873145275
As 6.775238377062782 4.64596261098625 7.241110888256001
As 9.591298971542425 14.515551959324926 6.530569499554345
As 11.027540289189599 10.102118773389783 4.499244332731294
As 10.795016792710003 12.620552855043547 7.548761029818206
As 8.684041156961914 12.745822300014021 11.712424048006977
As 6.4183564348637105 3.466305255139372 9.383235099775472
As 6.871732913120107 10.841452577339052 6.938670018026845
As 11.11092493024319 7.2405507438923635 5.7987830641077736
As 11.459776166978559 6.266486424457432 9.562996422877216
As 8.176481278041386 12.4113442214459 9.294975562860923
As 12.936440478704752 12.808896296245258 6.300937656210971
As 10.02097686283025 14.127995901406354 4.31755745323232
As 11.09108400405979 9.58058044555443 6.947614096664436
As 11.538643938634134 4.146146172278596 10.55986060958961
As 6.28352405145744 7.745035534445639 9.146153428997282
As 12.28086111448281 8.1985464334575 13.909826567622531
As 10.639434940216056 4.675386288338102 12.836908341778088
As 5.710044306890114 10.291404298819732 11.93854469286606
As 4.48923446899044 9.293577354520533 9.950995479611375
As 11.842297070803246 12.433664875723863 4.104056485103446
As 6.1591929352906565 13.19698222118672 6.396621296173601
As 5.275141944615078 6.210968524034773 12.520342524804226
As 11.197455327756243 12.377073055795275 11.600924891462322
As 6.302292292083985 9.821973401916894 4.711527145632331
As 8.697121361912082 9.321384997984273 3.877688938860393
As 6.530998291157529 7.33412360064203 5.08017138412815
As 9.4794046311684 6.78600959680898 12.101153182072856
As 4.637864570011191 11.673343855251446 7.6206773478411405
As 10.12443464118811 9.002261326751611 13.110429911179704
As 8.56491006760698 3.4491636221077866 11.995215576867183
As 8.927618889051407 5.462487780749927 8.51870837315391
As 13.405389018686227 9.275516898270382 12.2139957883816
As 6.864945252531804 8.095070365802483 12.298237222930087
