43
Energy = -190.78223461 eV
As 15.785532824444198 13.355687955301597 9.432643527756852
As 16.067839646975447 11.758099153876644 7.506834709399222
As 14.170593029207115 9.949438532046452 11.154210312538984
As 16.169833270671354 10.841905601403736 12.372155955240226
As 14.4592180837617 15.552094857250681 13.010537265204308
As 13.136171360911018 14.999901894230325 15.080442814099454
As 12.756013438214355 11.53782283573543 14.148697518263493
As 13.031365286433322 11.077390030208141 8.242288873098213
As 13.475249854544 14.71103621482123 6.460979810112088
As 15.011291171043952 13.06306969759131 11.822437572288722
As 13.09128172159623 12.786192175257879 16.28117242577912
As 14.828660377737178 9.575913891487252 7.499220597172537
As 13.99679488323794 12.26799525436976 6.218200844799084
As 17.38161685507491 12.689398584494565 11.208098893801127
As 12.371289365924858 16.152544965862397 12.10345846921964
As 13.508230936889372 15.592819151072884 8.845351058412385
As 13.663532965469965 8.056116570889698 12.749753239813314
As 14.872647397118627 8.18028510466745 9.562834603918798
As 12.469375824021958 7.50454847257826 9.141036330389943
As 7.729657085249097 11.219055787397227 11.395325187961115
As 6.533178054440962 9.521656744428407 9.998257138965654
As 9.403882327076497 10.23790212418512 16.1215694461959
As 7.8636182011392455 14.072875509605579 16.03817723991378
As 6.4184282038487535 13.170045356636011 12.16728837955953
As 9.973710067668916 15.391925406463628 15.459562320476397
As 10.622579501525182 10.284227720949183 13.942704597870803
As 10.209514883133794 10.645386716491148 9.646918377475297
As 11.057724315677154 14.472798091707594 6.982315792878656
As 7.168100479321249 12.533658613340233 14.276655457414067
As 9.076263502458676 12.376391714952655 17.38134235233266
As 8.673289663882972 8.319517319104689 10.513188630694211
As 7.914381367470322 11.318481040014506 8.910010936235215
As 11.427233404014297 14.429282233023462 9.51494129927674
As 11.560959380304618 8.163689181444903 11.391996212260327
As 10.486875669463666 5.9515993572411325 12.024730925162919
As 8.26875558057402 6.937460925509302 12.564145935781323
As 8.614827349019242 5.794022134979527 10.404572069113803
As 12.694689007172423 9.151465122007098 14.806980582005393
As 11.304649736092573 14.415275511022143 13.586628060469994
As 11.232986261809817 16.56687832600857 8.33412580159122
As 11.265366037407691 9.365256052391565 7.79093160042929
As 7.340715869262511 10.2572503371486 14.829889693787786
As 11.070779195466082 13.91034116756003 17.236090577598034
