43
Energy = -191.39605605 eV
As 8.803376795921071 10.593436797396002 16.469086343063346
As 7.544123317180765 12.089195603237588 14.923546221022054
As 7.662722173421404 14.41149639913212 15.718399373247847
As 10.645374017702851 7.195852386181264 14.730751230140656
As 12.04782853421564 8.63495177203364 16.25824283863075
As 10.387237239518576 12.051321473593795 17.598521574010064
As 9.016619388680414 8.770950464713355 13.724274342878523
As 14.148719127966004 9.057273408318084 14.948044913539158
As 8.494077700353566 7.555411796230813 11.683885309701676
As 10.098829688874014 14.086049756195608 16.183259697224045
As 11.20064768963395 10.88799821621239 15.557970608078458
As 9.199540408873785 13.638027141273882 13.886463369755159
As 14.034501857674911 11.301642181560455 16.047091435794645
As 10.923161597817202 9.872682650949372 12.295970169260166
As 12.178908225614688 6.8363728610075425 12.753815880605693
As 8.609098908435728 14.454660064630916 10.547869788777898
As 10.746885222741277 7.7654097511331095 10.854360397147786
As 9.296907104806813 12.123536740174849 9.942866782267624
As 13.237833079785435 9.059456525456191 12.647341500535004
As 11.046374479626321 16.156331864728497 12.649462990571468
As 12.739987525171875 14.91168990944339 14.280507268871073
As 15.94104565321429 15.83440211410113 10.799732557612462
As 13.742350474979617 16.894070762931797 10.348174957747014
As 12.943963982655866 17.85397138552651 12.48902862608502
As 15.640924739399356 12.317945718205056 7.591195982575743
As 16.89536082083837 12.351506698323506 9.756851150391142
As 16.400033995994388 16.048969539887203 13.25525218165297
As 13.609894530637513 13.377558068470497 8.558511709090252
As 16.65950733694258 10.091210369936556 10.65408595942836
As 12.090998976399753 12.303869906943588 6.888721186722715
As 14.304028085666465 16.844607067509116 14.346241486439535
As 15.160759457362728 13.493409588973744 11.219667314573226
As 11.985969144682025 15.039968715208898 10.635248436254567
As 16.447089845221967 13.519932008059966 13.38118373322953
As 13.275011250412993 11.44190802745141 10.109110704517807
As 14.74660960269668 9.999794180240611 7.254967074160212
As 10.189272078583423 15.408753821256607 8.926413810567613
As 12.371146771866302 10.141573740904857 8.11674035732106
As 9.904686169967007 13.192240687265903 7.789147119712591
As 15.623891495731101 8.712377145028649 9.165323935372392
As 11.331534935209307 12.375457278244866 11.362507820220557
As 11.762788290837078 15.810208710787258 16.315803610420197
As 14.773992188539223 13.356130612994402 15.197972162636967
