43
Energy = -191.50489915 eV
As 13.364569499677977 10.990082433652377 7.663089183435282
As 12.10162635144387 13.105687621627041 8.59745077377688
As 9.749735796902243 14.534293605279084 9.80443103339433
As 13.742839537066786 15.022589934907472 8.17991896000915
As 11.635739777668528 9.434427853087623 8.587025327138365
As 14.37528690088126 10.642965118964446 9.863416732635267
As 7.758361193018768 12.360875818502857 9.78309241915215
As 8.522521079383901 10.132992059310475 10.47989897626935
As 16.617428175463107 11.715604149060196 9.477456633041083
As 13.405274723317476 8.254400041524185 9.909184406642776
As 15.361766012461302 13.866329288749519 9.768538546410673
As 13.147862636739104 13.00360356783748 10.884163938209836
As 13.130491307308647 15.598808731384443 10.54945355037605
As 9.122665820790342 14.687848688909035 12.200313282803094
As 10.905385675786462 16.77536245176702 10.156712708176034
As 10.95020930617736 10.847180643154346 10.629920236512298
As 7.837354069931652 9.862764424350951 12.850053713640449
As 15.18403195062656 16.334679201333813 11.977714552170726
As 17.23215067622628 12.175065170811747 11.854270917144387
As 17.200878553730828 14.683226661254754 12.02717647608814
As 12.49361523283686 9.378927073932616 11.990606828792183
As 6.805924807053001 13.416786931106216 11.701416696492473
As 9.983188089793877 17.117816230610497 12.38794974403037
As 17.878001521363366 15.005340600043803 14.443404891193902
As 11.1279735096668 13.671263380513603 13.511188063865324
As 6.663640121384623 11.860881299988904 13.516511711286899
As 13.89778887271026 16.554334967186914 14.097352948675772
As 15.206055663013556 12.294366922206954 13.561237535768521
As 18.744470549862964 12.796152816709688 15.229853134700981
As 11.4219560750575 16.108318770281024 14.170142205926
As 14.098353344484842 14.240473173286311 15.121297389434382
As 10.106481439626823 10.587139481341953 13.68921460741817
As 11.012426968360188 8.241281576543313 13.688458736785165
As 16.159863584987868 14.963425375674907 16.292874846130445
As 13.094794800352183 11.124744397342331 14.56262804535471
As 10.225004260545557 13.525990960683753 15.857254117387937
As 16.797428777549484 11.269948450926167 15.168365053074128
As 12.851870782475835 8.742473069068712 15.325064852798054
As 12.406689508049139 13.80108125225218 17.101126857164974
As 9.654525332563704 11.07423019807367 16.081444681495693
As 13.449748875255581 11.56641986646441 17.009370782553983
As 17.012715678026694 12.76659153803849 17.1068519334645
As 11.59925550542766 9.901176547307044 17.181054314230956
