45
Energy = -200.09562339 eV
As 13.26480871527619 13.187090648043913 7.398191017020497
As 8.637246313155739 9.84173454033909 9.815508729369963
As 9.226633845212923 10.418857431636221 6.086726937178781
As 7.7515746908889955 11.327936682959812 7.874193261897175
As 10.389111210285444 15.734871181427806 8.242975798912106
As 9.685294485936499 12.641673133319058 7.054654141131903
As 11.574405222150679 11.918864135006153 8.812451859934177
As 12.20411318557549 7.883926773143743 8.966673542132817
As 12.632307294660055 15.120772849446766 8.90321785558048
As 15.522148813404188 12.918885626420824 8.476644300203764
As 10.524530263254974 9.648212628096468 8.169433921783982
As 15.851803763106025 10.434919490669232 8.904580499212924
As 9.606789309292376 11.749635457075303 11.203214666078035
As 13.439984553519635 10.008694048886689 9.497698928063846
As 8.082784991689191 13.523033979783515 10.39399593268118
As 9.786544973444984 15.399032597942341 10.64147057408655
As 16.874675371072122 12.459160373988814 11.94396471642478
As 14.843089535842445 13.360410399410137 10.820810724166295
As 15.25854558813847 15.76601254768537 11.305468599831176
As 7.814310899491735 8.612042704457084 13.183595345344195
As 11.101884637564392 7.888094412904829 11.113709901910468
As 16.087382194960515 10.144386994464458 11.407125084415158
As 12.867922683210193 16.406085271277764 11.970213920350878
As 9.060965077860022 16.589545476574273 12.684797269418217
As 15.809351955389152 15.285986701923106 13.7364828638744
As 10.06074528015783 9.534324656540335 13.60797724184799
As 13.589342633683366 10.289009482441438 11.96931877553548
As 11.846127501012402 14.166291882100172 11.35361413824213
As 15.162900263881323 12.820566809247845 13.731907470031883
As 7.9250908881409785 12.781971675953393 12.775894396350326
As 9.766294566564294 14.44823579578895 13.45771671329084
As 13.617069272354522 16.33404739794725 14.412238747569228
As 12.332714460344826 11.26878333757735 15.35701753852954
As 11.611746362730965 7.71199161520217 14.43127270095769
As 6.931278143010374 10.505139573970933 14.288634585670737
As 16.400440721419315 10.106436546173887 15.392634132750702
As 13.179449402022206 7.827371442100883 12.451112857304642
As 12.642667430803934 14.08701778614925 14.822589463015397
As 8.918669687012912 10.2250131276953 15.703803126796274
As 15.984442913450568 12.461448378887301 16.045177235631066
As 13.615113270082032 12.843994412922099 16.837289043289214
As 14.821572558706881 8.453102670910404 15.46976331234609
As 10.378605966916076 12.067209356678807 16.70126195275873
As 10.392071092712158 14.457598649170713 15.880677058418145
As 12.589051173138142 9.00418247818612 16.365902281186873
