42
Energy = -188.84811625 eV
As 9.760380207929073 11.805709262023429 9.177958032107684
As 15.10747466016316 12.103237031456967 8.729719555706504
As 11.855092405857425 10.807560675364655 8.3420507008969
As 11.574926098142969 8.471197336141783 9.22259828930426
As 12.341851273522856 15.264922405747159 10.148101466076973
As 14.696505833741199 14.475295912146064 9.430456505664843
As 10.223153637010556 14.265540659105737 9.19265588015988
As 9.385811354112668 10.930670597689366 11.45009129955848
As 9.615231227980415 8.578588968971875 10.76093847159503
As 17.13589593328054 12.120053608011933 10.129446174316415
As 13.310135934578783 11.371641034187197 10.291753808293883
As 9.537824002018018 16.861867565611877 11.77289745542715
As 15.011251889063299 14.149995613199607 11.883337465093623
As 13.658742363275026 8.912825895503754 10.54689344688266
As 12.484284317157272 14.282625864046745 12.432455457833855
As 11.143016318940097 10.700891375195528 13.282749564670354
As 7.368998579762878 15.689849542066028 11.826941103785863
As 15.957918622002012 11.805930865352076 12.204899033850992
As 18.75150208495007 14.272499701721454 12.284466076941634
As 16.906490299879973 15.813945819641082 11.634695067360253
As 9.50461489120422 14.378573837084971 11.58215887900563
As 18.060010070238526 12.199175899727576 13.460203048591335
As 10.235563045676079 17.083257950879155 14.13707771175572
As 12.648764158482354 16.329661253191677 13.849368656191201
As 12.036376696748025 11.488422023241775 16.688227082154086
As 10.576951686333235 8.219094452111852 13.076215137925313
As 15.954461020742558 15.310478712491337 15.018694251366592
As 12.883596801123883 9.011356589198481 12.90315656928396
As 13.631055545103735 12.789313423476182 15.249636101223675
As 7.260593092096102 14.6887682710018 14.073717336336298
As 19.2692465786929 15.862185605602942 14.214877648881096
As 17.13032160758466 17.146296506485005 13.77948314715306
As 15.470636526283489 12.24428868828371 16.84415886381675
As 9.103437960343257 15.24564229456011 15.29369758626429
As 12.606254207591565 14.970824660574321 15.99725956111872
As 17.84907460980459 12.529355414269864 15.937418776707704
As 14.581754593326815 16.142291991490783 16.91539178265297
As 12.808725825510253 11.256639611722443 19.075197090241968
As 18.070196700962935 14.971875793760638 16.227304166910166
As 11.202498451463624 13.03165582298502 18.464632536233392
As 15.401094984954645 14.241312149914062 18.317503938027908
As 13.346150967664245 13.632546380063719 19.607382337931963
