45
Energy = -199.19036951 eV
As 13.312394763011353 15.094907505109703 7.6612683007625435
As 11.777466795705744 7.4761146026998375 9.155933895682026
As 11.293169905248 13.612381267538462 8.055467372365277
As 8.962900614910449 8.046510791108611 6.217397279053171
As 14.460226768636746 12.89408870486423 8.29557447993543
As 9.65956946763707 15.083092486424382 9.21506513000787
As 13.351659603038508 15.515448038453787 10.129734153898438
As 13.621603960037206 9.116944296180415 9.746286339484438
As 16.66322471742358 12.90290146211009 9.613745436715655
As 7.315413966302994 8.343204038404608 7.772841637777128
As 12.700815289528848 13.07022475816494 10.076371429167336
As 11.149867113342898 16.597881216833798 10.525758819818538
As 10.543304853484821 9.641655881474371 9.298161263103243
As 11.16414479320281 8.778768090912502 7.071055384537823
As 8.72083086602006 14.306708368766905 11.690072368691334
As 15.703509734189657 8.674009064182684 11.12968530002774
As 16.528536773239118 14.339178721810276 11.727575663082067
As 9.159002860181953 11.8465767119052 12.250089026193447
As 15.385925283469073 11.190793457724633 10.883728303876834
As 8.528429563577257 8.346674166570198 9.902657408901419
As 7.313359288436296 11.963794641962915 14.074473536419273
As 7.289416810594689 14.41345167802301 14.334838513886181
As 16.252878446401667 16.72720513930031 11.299434532857537
As 11.414350984061086 11.872420807640532 13.917482061075066
As 12.259711160437279 10.0153641483435 11.775475443422863
As 17.954342919147088 14.904030795232273 14.035664770443184
As 11.086146589886438 14.869523136092873 12.327396280568939
As 8.923355110449808 8.523219807389433 13.304798749160073
As 11.227620376767812 7.819116465412999 12.50095250420097
As 16.58494197328361 16.95876727577926 13.59950821190604
As 14.368356773803978 9.514815492856124 13.135562672437931
As 7.600083483097797 9.905803271482496 11.632319849845398
As 14.369504524174772 13.520419023482868 12.819336536834559
As 15.878349712695956 11.567284064571798 13.334693332492261
As 8.38133838056562 11.114633412118598 16.242149840547647
As 10.170768051260803 9.952604070161744 14.92104793843711
As 9.552957548281531 14.005778991173962 14.9777943935125
As 14.769224190458196 15.061159462711386 14.754450915758671
As 11.794282906627922 7.715727162758784 14.93176982725764
As 16.67174363473511 13.882840483320669 15.723885242254372
As 10.96784077361838 15.973303218183055 14.64960230964082
As 12.66319209773868 14.83577334394733 16.14392433844707
As 14.042773535567976 8.267605524460052 15.209381869911956
As 9.850103103519857 12.909672705485386 17.19276014987333
As 12.174248168991886 12.390510483660751 16.305715422518904
