49
Energy = -219.52663317 eV
As 12.850140437721175 9.439301402323927 8.87619051172246
As 15.246373545579248 15.530713232544413 9.800303941561538
As 10.33443738082947 12.370353254539076 9.026753299392958
As 10.398793628584396 9.88401435514356 8.902193089454865
As 13.622811352471293 11.806868764232622 8.691390038769061
As 12.78662257127131 14.92895622691055 9.340795594411006
As 9.648028010006046 8.81699423777316 11.043578588506403
As 10.954074062186715 16.42312277560956 10.346111901480029
As 8.09987892936078 12.754443995627284 10.123308548686747
As 13.442032978044391 9.308970410154979 11.307726696042147
As 15.858109249698934 16.444340324458928 12.020581793962279
As 16.743786585215496 13.511816088776726 9.545425484938578
As 15.34338720034883 11.678678006703725 10.52950952395698
As 11.653262216172497 7.802557039226831 12.199938707051263
As 7.324446184023775 10.733363047422415 11.231237015483133
As 12.26180817890221 12.786122275007681 10.572467362000506
As 15.4190430941142 7.976899747109358 10.698046840537696
As 8.260808253625163 14.534108795840401 11.836335307172725
As 12.299289531961605 18.246577995078166 11.405596523823602
As 10.715649264375834 15.098308586408237 12.454820657208073
As 10.877826426301267 10.1064605956814 12.78871842907652
As 18.512387213713374 15.9617519405049 11.97337786758105
As 16.741543070697624 9.71362673837505 9.962178019619765
As 18.36144023325143 13.53639092613199 11.49710496387196
As 15.835671731780565 14.897549999320507 13.988844535194053
As 11.034817113082688 18.82718475419302 13.527259749061466
As 13.312248359702105 16.507402449444772 12.843944669902593
As 16.779811197566882 12.738179811546573 13.22817927251884
As 9.5650963103238 16.851491593390346 13.82463080951633
As 10.187161901287263 12.63094929261299 14.472235874778628
As 13.737614169598668 10.486614994851315 14.526507878488081
As 17.902265106776433 16.1855790832662 14.389034162016952
As 7.8244694598752895 13.422985672832757 14.002161783639938
As 9.467739798552143 10.179632577688915 14.871364169112057
As 6.90333774215438 11.215081556480387 13.459726099370586
As 13.189760536190182 18.1897354477213 14.649120265147415
As 12.932404148788791 14.574597149446928 15.592272383063742
As 13.131928332728371 8.183582087115521 15.34491172671114
As 15.11621440177073 9.412093197746145 16.300074868236553
As 18.487804594766633 12.328919536476558 15.010706783122771
As 19.03505958524629 14.578382861637685 15.872269481399249
As 10.755982770865684 13.835092759674932 16.615123744996136
As 11.167734253276281 9.155013156142576 16.54361496272114
As 14.928085984688405 12.95862622413964 16.076331211229984
As 10.059066368332577 16.338452897622496 16.20432833380113
As 12.470876799923852 16.807714683170538 16.622766146730747
As 14.339737034884553 11.233479063165538 17.871000522451
As 17.28613701520301 13.19860859328816 17.030400088785434
As 12.286146536895439 11.361460648157832 16.45265062441093
