46
Energy = -206.35648104 eV
As 7.835618168330641 7.109177305620031 3.6421566772546923
As 9.91716832102392 9.645725157207192 3.507192030388554
As 6.220255717186375 8.994298451562907 3.814898872671323
As 7.794839670186263 10.96063801958432 3.6144834159385173
As 13.783585917908681 10.164290749158525 6.985947412748246
As 4.331583389673507 7.123316066420813 5.781877343469619
As 5.85277956963207 5.707931291454683 4.308993863411718
As 11.6842123376086 6.885684341494279 4.933115590975861
As 10.724521420007305 11.557842754459392 4.933453044854142
As 4.307707657729333 10.729045572831508 6.137590389576196
As 13.736476602130704 7.749502655258472 6.2197510662813285
As 9.434917527609038 8.064375933181203 5.436258416179859
As 9.836432997956875 3.7016371259679404 6.508447866715555
As 8.550498621683227 11.180380242135051 6.047606318054493
As 11.319648735101925 10.282074347763775 6.96322954297782
As 6.019958049159851 8.915661916891699 6.314393448688344
As 8.698290503363864 13.174644407442962 7.625483704540476
As 4.115998303882459 11.669354016337882 8.22869847706202
As 6.34467052463512 4.163070457539902 6.249372448264944
As 4.5454476565597 5.350733381106194 7.597193583745031
As 11.828880072201969 5.178047782247849 6.7539016522406055
As 4.092410925463191 8.265585794366553 9.270309301747451
As 8.229530199522586 5.4941906370561115 7.086925027804232
As 8.885397183771207 3.8318352707851346 8.820029709520922
As 8.956733275801431 11.283964082957812 9.259372091203696
As 7.7000331242426 8.470971240001512 10.900507446236764
As 6.581917229507297 5.2389011109815815 11.039579160182484
As 13.49082291824209 6.948304794381915 8.637114851855522
As 10.98032119838233 6.889584934315028 8.373264529551715
As 6.0934331744895225 6.7209489255862005 8.988727538060164
As 5.659914529370684 10.223789131125242 9.4795121866073
As 11.597430537888975 9.292852125191704 10.28111655252202
As 13.930703490903115 9.339472415240694 9.367933033345173
As 10.963687897518888 12.408842962400014 8.322640121939902
As 8.78843966332319 6.279415819551866 11.710253382672818
As 7.714083421691776 10.278489907004943 12.66279067936993
As 3.6089223061837035 7.690352009525506 11.622466953773174
As 12.10440818197332 7.802485298381132 12.157824999534828
As 11.262064417890555 11.080970728800054 12.033847777199856
As 10.498241840747136 5.218785782627478 10.160181462698885
As 5.887672211108447 7.2938668301675715 12.290067425308582
As 10.825912513076275 9.204227901409459 13.529900125128682
As 5.5251971810661615 11.151710677818185 11.792489900512
As 3.9851013700401405 9.636108375605666 13.174881208624447
As 9.004345348421504 12.140017983919885 11.612625299970567
As 5.431732050955356 8.188841240285628 14.503542023742447
