44
Energy = -196.75589487 eV
As 12.719703849231628 7.6489370753423 12.3278202495898
As 13.134236958445612 5.798903390390501 9.01797484661707
As 11.614006626429257 7.582202705413439 10.007683160393006
As 14.236128829247884 9.403517924313743 11.394238085269944
As 13.543931324063387 9.071349353270035 15.995082167312722
As 13.034922791995363 6.439726357128174 6.602446054033165
As 11.79243791743911 7.431312462819918 15.796844030736143
As 11.200668486015914 8.050122351540391 7.059948091800829
As 12.015008661689263 10.041191786638466 12.268411887647282
As 9.271712083647706 6.111607157297801 9.616267515506882
As 14.585312017901002 7.6312497924728895 8.155543716599874
As 13.095630576562963 9.452579337961106 9.114926611347563
As 11.498496441234867 9.123155923696014 17.408183833346758
As 14.994556302718028 12.666466014363342 13.354411350841195
As 12.74189171296186 11.019223985129972 14.433119631079744
As 10.167043055138356 9.61166979630312 5.354229117076489
As 8.761283692541248 9.423512035806338 14.646623799445345
As 12.075112817491947 10.640903886796693 4.116782303151122
As 9.095478679272139 6.6987357295362955 7.218190900162811
As 10.517985825502446 10.87891110350521 15.620207777998464
As 7.298633338583618 7.344433853899401 9.975651111506332
As 10.605732715404601 11.138521401426392 7.260303447954663
As 12.700037693829998 12.866218642504505 5.094800352301482
As 14.382427870237791 12.62293115203185 11.083749714288233
As 13.920328452522376 14.890917227517168 13.638797432765873
As 9.666441805756362 13.145778805804477 16.17572095777656
As 6.805399216332892 10.299722939393558 15.850624375612856
As 11.18528601137103 12.76608282545909 3.1512653717218835
As 11.72830627090598 13.76746465507439 13.049840860529525
As 7.576456484227912 8.620437200474758 7.839671025621249
As 8.818272581471524 12.621508364710975 6.467763285256986
As 6.989234014751578 10.494976678967973 13.30581042661886
As 6.547408293634856 12.940428794464157 13.74482355166321
As 9.349252823528493 12.209712092892856 11.641676339841911
As 10.460414245001202 14.009193563775417 5.195131716009049
As 9.303671542621112 9.938624128930327 9.073444412423747
As 14.006590172466119 15.081348933592505 11.130380509034051
As 8.691442721131123 13.84385149019131 8.654248671313471
As 7.220352877614676 12.787884836701826 16.130947216531215
As 11.462451152736023 15.27424965492549 11.069728659378491
As 9.873853171730486 14.820316654030668 14.343285843571888
As 7.728516588017765 11.807814847478975 9.751167823263543
As 10.82343980340485 13.192845346668701 9.834938261388567
As 8.244332525796171 14.273288761966521 12.511124526280007
