45
Energy = -201.24532711 eV
As 12.538666692358703 14.271570293622105 8.135864525651183
As 10.778795594123569 12.55734236305255 7.876462570046574
As 14.703687841130078 13.073807228431507 8.49361997839712
As 11.849509068383915 10.509313607660168 8.745657055169454
As 10.750273289148975 16.699391976507233 11.27375800069595
As 13.709401795940082 11.458193327875316 10.057709723444662
As 11.678865653886952 14.592416181963864 10.550250824189291
As 9.403862330554935 13.696120085866013 9.90733058863019
As 14.385409193585913 9.029517073819552 9.935990175606339
As 8.123863157441349 15.008022905712032 11.885221753828722
As 15.370949476948471 14.562570533706182 10.515420267623668
As 12.901985646397796 17.815514225641643 11.63374998847964
As 10.870943873219648 9.142199538279046 10.713631831000264
As 12.996829349365242 9.459819830325033 12.005860696456423
As 8.266118949698523 11.605618596537044 10.534237247721018
As 16.624747403391215 9.175476544442146 11.04767137596457
As 17.566091733888104 13.989769384777906 11.70317330722249
As 13.57080549609598 13.841151791081183 12.122407514752435
As 17.984656585247198 11.843774867671126 13.086214442586659
As 14.2458537182026 19.971822013786717 14.12254240384369
As 15.75344480979579 10.87025850053801 12.618818935751799
As 8.345156935377394 13.599579052376233 13.867149967635687
As 16.78103961701248 15.674283909938985 13.32310586857573
As 9.3639623568167 10.312743222912374 12.352392020115499
As 13.654385855774743 16.092376281406608 13.268959500492665
As 6.779018085238427 12.883730543182688 12.085672702174918
As 13.863295665298766 7.527140020488275 13.330631125362766
As 17.719597422907267 12.697406849392728 15.447431856871708
As 11.945018401538121 19.382760774714463 13.351138223163293
As 10.467114319064592 12.241095589430023 13.511352225517893
As 14.402756141134702 18.001440721902412 15.366187557805185
As 15.748136661752664 13.894442887198007 14.649897884373983
As 10.992887043522149 9.121297446762412 14.85720077388919
As 14.091303646554367 11.084382082523245 15.376037254201002
As 11.396762136642462 15.776769387648262 14.364408323146161
As 11.918716656204483 17.967601681988793 15.453013775490966
As 16.174576121299246 8.49101068005705 13.388784452797063
As 10.019582229317443 11.219726215346626 15.758296701426021
As 16.259429048155738 11.045974904833656 16.669584888860133
As 13.290589562208078 8.687325141844926 15.487517783819962
As 12.686441960139485 13.854396213137322 15.486137016768476
As 14.663602375011923 14.75684128282544 16.751613611344144
As 13.172908023380437 11.23398795056944 17.714299574842496
As 15.14815964423891 12.733867902277282 18.1848267484705
As 11.316987165559173 12.82233711890129 17.264955688749094
