41
Energy = -181.4448948 eV
As 9.594427699768575 11.40766110145746 6.947649221938511
As 11.586294258528428 9.87250144047604 6.560579633738914
As 13.370147948492418 13.309079278986607 7.062420800789286
As 13.149118715372692 11.091857819682504 8.065791827604697
As 10.911905992387716 13.60125248957542 7.477582200702308
As 8.752541417668422 10.425408461511497 9.102867458743013
As 11.318201933301358 8.33152006223229 8.486060773240613
As 11.1364357139785 10.578932011538559 9.887667875915747
As 15.001614123319726 9.531303179919561 8.096140518029756
As 8.793681844017039 14.22718161584891 9.975966819078165
As 13.058778089972915 7.6957521576812935 11.793790606947978
As 13.65324247105111 14.801734010563647 9.364762161988471
As 13.696582644708217 7.6851144557668425 8.662567012248752
As 7.4734104443289455 12.086512274426617 10.43139277185118
As 11.097751288425952 13.357595480873387 9.920093227808543
As 14.049960522363627 12.752363082499002 10.721338286725368
As 16.479165877101817 13.344543073404461 11.23744728046019
As 12.693679058692295 10.170076276325899 11.834524147161058
As 15.539994556286919 15.55550809161708 10.786690933023824
As 9.321380472272013 15.929669459330414 11.819580138058546
As 16.330397489294917 9.100772152581616 14.011022456090393
As 16.46215189144212 13.092250299676417 13.762676263196436
As 8.711550030597596 12.174301247522303 12.637301376986624
As 11.837161352672455 15.840688019806498 12.410796878817576
As 14.548019977105868 14.680537807295128 13.913532601109118
As 10.98596018555177 6.842381692065955 12.663141424929815
As 8.062565576743744 15.57646990876124 13.997788383863025
As 12.714081719374079 13.485650334716148 12.763974336983647
As 11.140615104800894 10.546892850408554 13.70461335205922
As 15.08784066021242 11.008458849170886 13.454772817234309
As 14.442814646488142 7.5575927993133 13.942230809174545
As 6.772917857523068 13.507350155065648 13.427671820802729
As 11.525569725185871 16.055638968218894 14.968731768471809
As 10.699390495484442 8.231558832954866 14.601860197696304
As 13.24513696733412 14.551686166728176 16.085023878070807
As 9.982993074093011 14.182088912897834 14.55506243938715
As 7.63214492983657 11.60127681441183 14.807833877706074
As 13.071039331391244 10.856998418881908 15.26111336133954
As 12.944174475149941 8.367412097053373 15.758952335168784
As 11.954702371596975 12.483869869503497 16.841164722277494
As 9.431154891036833 12.761255804202879 16.456519027533975
