41
Energy = -182.79189543 eV
As 10.691925574152753 14.890433846821495 7.134899993879554
As 12.792811623823225 14.01288321738717 6.233446049483999
As 10.96350832179538 11.022178054645506 15.708875570614586
As 12.488778325761993 7.829933429380133 15.6464986870545
As 6.72627550682857 10.198347349961672 11.89413084086608
As 7.397444057401106 7.917461639026729 9.360785505404117
As 10.104965621555628 12.550880305472162 12.42624508540493
As 6.248509488114582 11.76040275016267 9.95922165703436
As 7.603370253448044 13.320299234906331 8.557629338388548
As 13.265698043238757 11.999459789539047 7.781075588149353
As 9.765147362408515 12.613827007485297 7.589999144760246
As 8.611642131319517 11.721592902850228 15.777545082071102
As 13.928064368239406 10.292048510296251 13.562699574069878
As 11.899581891012051 8.956917763445007 7.694483234422608
As 5.771442791433231 13.972008919202178 11.170309521259279
As 10.324743635213954 9.681607109227395 9.466383310673441
As 12.252656016963323 7.060869467413007 11.978141568096905
As 8.813183537540509 6.071235813258163 8.389829563466003
As 10.938907072864346 6.695411012221681 7.282242071443171
As 8.842717093711165 7.56784123533684 6.355754737125629
As 8.205972770264626 15.425907258072789 13.809023401399017
As 14.285536847800888 13.780031404748474 9.206046911120284
As 15.075220562603933 11.481416258884275 11.731107961733107
As 14.065027930212374 6.546472003077527 10.391587839024742
As 13.331891542874988 13.14271548977713 11.378807533999577
As 14.097088707724248 8.242903918022803 8.572442884922777
As 7.748265803296954 15.1882428239679 10.215268079163899
As 13.719990096243231 6.592209064702017 13.910643718705186
As 15.44947292274671 8.367310354914057 13.568840348955932
As 10.261660571411296 13.356944338747834 14.810527197776405
As 10.702695480762085 8.924477392912285 14.346794321681129
As 6.421758577031021 13.80502943983889 13.559888924243909
As 8.383902181295865 9.631602578848641 7.823156212697982
As 11.965651942232425 9.49981923644208 12.270337907626816
As 9.556323267116312 14.92829975891604 11.84673452577031
As 8.502583980963225 8.586285800495528 11.464486878526746
As 16.071579653965212 7.867944271842975 11.199176296224909
As 11.329110279878885 12.046059233247462 9.4175125432439
As 7.926641451909437 11.826783359617915 13.346762063041398
As 12.813892713438928 15.572030144034672 8.216351893932721
As 15.514857058041184 9.911391818077046 9.809857617306498
