41
Energy = -183.15682766 eV
As 11.21759621215657 14.538942994181497 16.46917974617034
As 13.222658473204818 15.70564876721105 16.647770395199473
As 15.088151929516972 14.140420699214005 16.272472069287005
As 11.5922949158198 18.427582935751992 14.653001846681853
As 11.060434260671432 18.950191306143598 12.250141175901637
As 10.91260413458979 15.214118221316243 13.337221439899086
As 11.842653702354538 12.187174989061798 16.240900045129465
As 14.098914415132931 12.102376045072056 17.26960349500617
As 13.53977147599836 19.990795299117995 14.667053379292062
As 12.933279802321165 11.860395334297596 13.992007058641159
As 14.73132697199979 13.613894185287124 13.851717637521553
As 9.466625365304266 12.707842586847677 11.292970062644256
As 13.011952639593934 5.687218447560981 14.631846208589431
As 13.170870506515934 17.81671960865888 11.59412848843374
As 12.98625990291139 16.524840220349034 13.799024071963396
As 11.839103736263164 7.866111987764214 14.387038738585957
As 14.5721772991145 19.579051423668467 12.671867612415426
As 14.535744944320511 10.466276319953124 15.363736063632745
As 9.556662801036305 16.972872338222487 12.101797874096137
As 16.398517129713397 11.772901351445974 14.309666970027035
As 9.14538934161103 7.58905463128451 8.679905992875923
As 11.006490782074678 9.386619150135996 8.715766713068472
As 12.907033318955136 7.7585844617643165 8.811480988595854
As 12.481727673051324 11.686204787745309 9.289538599702677
As 11.356187546750121 13.453348347273483 7.91376070849043
As 9.187886842846613 12.582307769619863 8.822928975060089
As 8.470782525947744 8.236987655715414 10.788392421252894
As 11.788097910161742 7.154833040145705 11.084590474339718
As 14.817174471071828 11.32453836818806 8.504765245707045
As 10.647082416144757 9.413146198240542 11.202180989689555
As 14.89102831594062 9.042558792104455 9.54127452202597
As 8.201021656361 14.46907373098349 10.076737636592497
As 10.968640658728125 4.549012502652898 13.934129404477845
As 11.956266812940962 15.156951212865149 9.614530079735578
As 11.751742254701341 13.65372058878085 11.553358572127918
As 9.991462447858671 6.556537091361136 13.211956584483241
As 15.16252419822412 12.249830023311796 10.868162275199643
As 13.624647019562188 7.367522810513918 12.755517669212352
As 9.79179003805757 16.32978494612354 9.714988464177308
As 16.603932754204727 10.582424219619027 12.105822047758537
As 14.208493437755095 10.068587651932253 11.744070297796528
