42
Energy = -187.06911719 eV
As 11.37363255464773 11.726980866966873 6.819645467855627
As 14.059769419748402 10.263798376611588 8.645082368863697
As 13.898546258196596 12.724977968913217 9.044366388507612
As 11.163123911726109 12.83755511602185 9.03779328235934
As 12.722291089214783 15.215964546004011 10.83266458421739
As 11.75653704352189 9.575908681558516 7.967698226153457
As 11.069216913564135 15.378417791023239 8.973632849280833
As 14.228259761709777 12.28213440016658 11.393828348465616
As 8.896680169779781 11.494162104130169 6.5772076541141296
As 8.527148762583595 12.500562120095385 8.860209581258166
As 11.571825377323512 11.87021278585923 11.627119904633135
As 12.376791651844867 17.451913665961836 11.947005270859554
As 8.97991347858702 16.133437281602344 10.338496603326513
As 9.997892773074135 9.025486687910718 9.719675899446147
As 9.450837907198624 10.508685063204025 11.605616335193808
As 11.095546706763301 14.232383433723568 12.472874083061841
As 8.12331888108986 10.0953146083641 8.451663533494632
As 12.90722995306066 8.545815284306927 12.171913600908134
As 7.755366397744968 14.337907298865067 11.44510877190822
As 13.009029246940358 14.101658704077812 14.0979987007419
As 14.725410002287486 9.873879295909399 11.058046693144115
As 7.6721008317345 14.840345140953415 13.723724896845965
As 16.29193841713367 14.733213003403318 13.86175788783145
As 9.884575295943433 17.510406463006788 12.221645300815394
As 18.741875272377204 14.410084704238786 14.204316935305533
As 14.043517099448295 7.873904658253533 14.355390948090891
As 11.298992515921855 10.039024617052684 13.31250504822036
As 13.333863150643301 16.607050757866862 14.13209632058855
As 9.260165557510982 16.45275812995284 14.335901938690265
As 15.737304603288399 17.097693008009188 14.588400599850361
As 11.976618418565572 15.470280482602488 15.907074751995813
As 16.165168287581164 9.138905113413625 14.843570450474076
As 18.879846564323657 12.510354793144378 15.52031821395637
As 15.405258891582024 11.433811902331666 14.395990864842537
As 12.918030726086732 9.067228391252462 16.266381782713665
As 13.108369320166979 11.397714999740208 15.430092792230788
As 16.064594574096823 15.254619399094228 16.287271290622503
As 15.253916537385878 8.868094440519172 17.16883615759717
As 13.900833108809351 14.757048216409753 17.486217378483648
As 16.557747331238833 12.448323688955066 16.331230630796533
As 15.716527075112893 11.099012969742484 18.226596228591294
As 13.517350328751286 12.229931207090186 17.72999360197339
