44
Energy = -197.14220568 eV
As 5.256204633202886 10.099048966187459 9.570362127590812
As 6.248553884663756 12.369956420405304 9.93534008426478
As 5.331067161265406 7.012735716744292 11.512520760580411
As 5.932816958740275 6.563212802838179 9.091124038200407
As 7.352505882972618 12.499550514493523 7.655922352583599
As 5.187914748487795 9.399350363682135 11.890551177414988
As 6.911195277661011 8.71962621592903 8.375680854027738
As 10.522831646842205 12.868884861995511 6.535119378217143
As 8.12783951310466 6.761317401351115 5.0823128597621485
As 8.881740846732193 5.046546997544291 11.428541745206383
As 7.742485798935584 7.233761331834598 12.006162379658337
As 7.039503780661379 11.956208279202746 13.472100072932047
As 8.93768115039828 8.248607263815918 9.89701184762927
As 8.581488940157621 14.232449014885411 11.352069712788913
As 10.32326412250207 6.380500846260668 4.041608704711752
As 8.264109772848153 11.734193588132323 11.29534280327359
As 9.223527492244493 13.99551228634639 8.367932746408835
As 8.425358088726366 8.359832346313857 14.019977548975573
As 8.420720698720434 5.905355511085348 9.123199593447461
As 10.160749190246127 7.769783408315739 6.06007576711473
As 9.52201985142358 11.536468490743344 8.387985848138467
As 9.267363976218485 8.599751286935728 3.9234728029301693
As 9.048605548149862 12.45110858000205 14.848809628166157
As 11.103502359436318 6.163990209722213 11.72663942201416
As 11.584111723567409 7.004587909029398 9.514626789965819
As 12.84092323479994 12.871249663190678 7.529027415373922
As 12.828115037775467 10.054685692743394 11.521730504233823
As 12.553944655579606 10.388995434473127 7.82600219904256
As 7.853161365105976 14.338707858930311 13.759659084035592
As 10.40399861983724 8.576328128292023 12.67045698044186
As 12.80468993235284 14.196721376843987 9.676463924246404
As 10.910926961330379 12.062099832107696 13.224715787331277
As 13.320699616308387 9.626491650538261 5.6196082053715575
As 14.55670419662531 7.9535074898646405 6.657845278802929
As 12.415675054135821 11.14138583536334 14.970303690271724
As 10.972023135611863 15.069846716505582 11.223384054007045
As 12.67148940126635 8.95966571191003 13.760533903259129
As 13.689886699926516 7.913672853909693 10.496640352196502
As 15.058151165900865 11.026937361105922 11.886554584607307
As 14.740943719186912 13.372322160697006 10.93437048597601
As 11.706120354732425 14.391233521552778 13.475332337905758
As 14.644594728672953 9.328256918748892 8.67822648581183
As 14.158919025472485 14.284328006957406 13.183251751401183
As 14.6309866911602 12.00245030493346 14.192474091737752
