43
Energy = -193.03645223 eV
As 9.4367482365147 10.08884215618725 4.800900884200792
As 9.286447841815018 6.631705812188596 5.061503187260963
As 7.686238384573268 8.470918110718952 5.7135258705043
As 10.014252350678683 10.840958202873468 7.1015066725729
As 5.809324563998963 9.62594015177061 8.171295560535125
As 14.02478302002774 9.362910364834683 6.668756523417498
As 11.16667997691221 8.259173841600813 4.816018970222513
As 11.708317747853812 6.279476399100472 7.667789370562807
As 7.372346492183335 6.3502881140143925 8.461516878542138
As 10.079503160358513 14.31108296135982 7.413009282031771
As 11.681398194699552 8.805633042400451 7.290884893778967
As 5.02157175409711 7.633730830252482 9.43071544477118
As 11.773332372659695 12.580134357352096 6.826349310530861
As 8.161549541201241 8.69618010111163 8.16221857041226
As 9.524329843035078 5.378679843705364 7.213206680954474
As 12.219298090944134 11.738930155173916 9.160698448153576
As 14.869657163504915 8.82770583128577 8.973353634232986
As 5.667012220502903 11.024812995119458 10.2225708060025
As 14.531143754961356 11.187116877945273 8.305450630021733
As 12.978385323540788 13.788344362689005 10.336508640976497
As 11.579758438147678 15.574624975476707 8.939514819683499
As 12.645661891743506 8.730695820282168 10.04765559258253
As 9.16478692299414 13.344314845843325 9.572070463790729
As 6.705129871047458 13.31927486586603 10.162253714445486
As 7.5025012299705915 9.824666474481164 11.380155881387173
As 10.013611404360656 7.376408930134114 11.168968951482112
As 7.980530149066218 5.9474655251479955 10.869529788679118
As 12.056026211208374 6.304047711109973 10.103574317567908
As 11.262778491449854 14.136745530600496 12.10164772782331
As 11.507542043208518 9.8678681143954 12.730862002902045
As 9.681673955068236 15.580954707213314 10.52177128939147
As 6.587578299162371 11.135500067204653 13.35480795150713
As 13.505153266232455 11.710218399932195 12.650292137284525
As 9.038244675336493 8.862681139074473 13.795378711342888
As 6.238327766305825 7.682574864833939 11.611404310824563
As 12.670496719836652 13.267370743186218 14.160526332567848
As 12.562776502275813 7.933349981616571 14.047528807303475
As 7.603135601119743 13.268384822378549 12.558651736747011
As 9.82787604939678 12.090151039148534 12.078090746366517
As 8.26519546697525 10.655554252263814 15.167951951287227
As 10.449136778393477 7.35272069693333 15.19697698672841
As 11.087814178936112 6.127640711353856 13.121635227891561
As 10.638592346068688 11.610869562205734 14.44761858309485
