42
Energy = -189.1482215 eV
As 13.592191716933534 13.602609818418578 6.232125215261008
As 14.126168781015748 15.691686571790779 7.065764243253252
As 13.935055549276324 11.961251991249972 8.010134596914803
As 15.161695693702683 15.055936947019351 9.17246072841817
As 12.228164970019366 16.77408389970475 9.308101770620187
As 10.929820259220714 14.756004434581484 8.653415565519081
As 16.08181686161629 12.69335961184564 9.00453705641988
As 10.531098492334152 16.008586300334887 10.746718363873637
As 14.44608602816505 17.68459689350713 11.786655498470916
As 13.664777138395097 14.336169102060106 11.078796320545921
As 16.259901474640294 17.004250496269073 10.328137539500107
As 12.236001978738031 12.860999965813777 9.726729707650996
As 15.249884381013285 12.349010872365218 11.313149653127914
As 10.161064812936646 13.817446507582243 13.104510699873936
As 12.60839867233896 13.98865799348347 13.71197587733686
As 9.534941370586862 7.1149329990272445 12.416634007992302
As 8.829565032238431 8.140049334276403 14.540283364545694
As 17.95852024935836 15.550458577463319 11.561431834282786
As 11.322511353814004 8.652776512857507 11.719730286071036
As 11.16193582121219 5.317585697007178 13.018943644141446
As 10.272098829866016 11.466010922872538 14.07941200987156
As 15.922396899792307 18.394014103552287 13.636972030505781
As 9.923361906318473 10.71022900827296 11.73925807701157
As 17.140774412086607 13.406970991824739 12.59306916296741
As 13.313372616861306 6.509533367316077 13.497659146391221
As 10.886040919548389 4.7000944255604304 15.435987986912135
As 17.55224719586706 16.515277635798032 13.835029567874015
As 12.626607107706883 8.852398825803458 13.812794855595016
As 8.159132723872542 10.297008686864476 13.450442237833105
As 12.299069313598693 13.08463133191939 16.02802709302985
As 13.236104843910732 5.572967068529088 15.829178353144359
As 11.968708040402971 16.38853548076091 13.670839572476135
As 9.773711272082917 15.718871545784983 14.733648231755707
As 10.931622217607108 8.83237570057949 15.633802351060881
As 15.626903164668008 14.987036308974275 13.854567055602317
As 10.52036601771664 14.649395979041042 16.829270225718354
As 11.302054818844637 6.676992360376522 16.83930993715727
As 15.151222711360118 17.625003913032963 15.995628573638612
As 12.713185268419037 17.663442134707495 15.690752366924192
As 15.836717947777828 15.187918298159339 16.338795539856395
As 13.837949009207286 14.361989996439897 17.5572169380672
As 12.244494669744562 16.296589931988155 17.67584525760179
