45
Energy = -201.93193301 eV
As 12.515659239384698 12.411852657591542 8.729972193896636
As 13.466508507382569 11.67130237232601 6.560822902076319
As 10.417584685378245 13.550724911488391 7.957075482595576
As 9.25843950264014 11.354967597836094 7.998488158681158
As 10.47156667449132 9.900362755594612 9.6526458213058
As 16.28005912713056 12.936837712388156 7.989210525097
As 14.037309292235475 13.960482147100397 7.539235404608607
As 15.447962938264364 10.622739561932983 7.728868278424242
As 14.37565962703581 10.156238989279688 9.95719013040915
As 10.299424171429566 14.330954525905499 10.330316650843246
As 8.147589141147265 8.071639869776725 12.041723273374815
As 10.540539495594658 11.14645433522182 11.844697955670437
As 7.347791024916113 11.561930107549596 9.591692026314998
As 14.974326344333145 14.975672135876863 10.453791938710143
As 13.052137199636592 16.90426080761127 12.105307868130451
As 8.11093083252746 9.107513323947634 9.743234998898322
As 16.8180136007927 13.276645000051907 10.403365627811207
As 16.54409337550093 9.451863257863723 10.976753482920149
As 8.78863211011405 16.38121557728804 10.229327802278199
As 15.524022431445202 16.883045522754653 11.86985176121538
As 12.292146593284363 7.729372818953486 11.103986993712665
As 6.948666332685991 15.096464736563215 11.276935699613823
As 13.183983345336157 14.361687441284861 12.164407180722257
As 15.430930446125252 11.603500047303111 11.64330907448179
As 8.527439097360446 10.203421556808314 13.191716040308448
As 10.293400665213177 6.745247104101472 12.338614278425062
As 15.986436160492795 7.852677429226111 12.864173111766307
As 8.434953751344523 13.01607092139847 11.381897218372256
As 8.465992117133146 16.45900206130895 12.69991225655026
As 13.341473472314135 17.008015065203526 14.607697610294986
As 15.769213840067788 9.508271724453401 14.62061295650781
As 14.480984826335016 14.799377783373924 14.314569708175384
As 13.875084920839969 6.513520923238212 12.710407048117016
As 10.391913490118244 14.955826782385564 13.494656249343747
As 12.468075563683463 9.766992135808392 12.566912387799674
As 11.09766726136821 8.267992563333499 14.122190188488709
As 9.382504190811185 9.445093296359891 15.335178353905697
As 11.253761081836851 11.833195330822836 15.191481867741976
As 9.193240636685836 13.170126544132438 14.736645167126914
As 14.085137263781881 8.853231014583736 16.006059231423734
As 11.006735809988472 16.478478266673893 15.357702106335783
As 13.305410546852153 13.333503575219273 15.901346958090592
As 11.810400676049094 14.88850948196421 17.084130023868582
As 12.97850814721033 6.873642932750418 15.02021302052385
As 10.067226310113886 13.069611161777381 17.051208853454234
