44
Energy = -198.77792716 eV
As 12.236846749785823 11.944800578620129 5.173314229264388
As 10.507303169777254 10.262561198074783 4.522263358328808
As 13.697742555410986 11.034006677703957 7.02888034466624
As 13.17628193670774 8.652116605582382 6.410104370849936
As 8.337169743845417 11.317209825830322 5.167087913473565
As 11.816683904745435 13.35677167446069 9.475345194875324
As 11.124775327364578 13.777749301600895 6.359672791742718
As 15.00179527243003 12.070197566198548 11.669464629069804
As 14.04305603282114 10.129661527226844 10.42593089371301
As 12.346885359738334 9.662845608218936 12.200838591647639
As 13.161056484615685 7.3329968211312835 8.541678038418285
As 10.516324207611644 6.561115876980582 5.635383728671089
As 10.720575473140837 8.863980008835812 6.582338479359255
As 13.764178024669862 14.110506284279131 10.880462834195704
As 8.86343516817378 13.500720805035424 6.152253630221717
As 11.60585940221178 7.304400449696417 11.822340208884269
As 13.937900603128426 12.74234215299533 13.849178034136672
As 12.1913440216547 5.425515519480663 7.20016094809331
As 12.16809913581496 10.961019209011953 8.98196644232521
As 7.998032712942597 10.327213897811367 7.455865160590388
As 8.892587488987346 14.199610104073791 12.098027188884972
As 12.112024755782716 14.033712883763286 12.817361537306574
As 5.178822327255577 8.048805060845236 10.36510625818987
As 6.945596269784875 6.50228799268923 8.128396654859973
As 5.698441111280334 7.870129474669901 12.852445815580198
As 7.783197540028132 6.708962473089358 12.035620965509812
As 5.49877192181395 10.365154518310343 7.414420021016124
As 7.676432252863015 10.926194073481726 14.7212580653479
As 5.947190904722616 10.331438556019119 13.046271432778118
As 11.163885675724753 9.74910329413324 15.471571226180863
As 9.720928778170563 10.283070363094012 13.434575639114168
As 13.253430057756791 8.873846158149064 14.401111726641934
As 10.802897536542227 7.718055290167457 9.46990643102907
As 8.912098511234666 5.309641210460742 7.12543348284879
As 7.66007189218191 8.071190451010356 9.93820395254442
As 7.48584998567423 13.342560763138687 13.970217050640246
As 4.944027692383969 10.494189770949266 9.883672210248584
As 9.619856261465259 7.703789201142344 13.365353819701893
As 13.267236395283055 11.05427203843139 15.580932896647994
As 10.470810146212566 5.241048226227074 9.052864355318931
As 7.1331662659203365 10.991148801823071 10.96073446518222
As 6.736935804781264 8.387201644142442 6.49562110720066
As 6.600831269051353 13.360611077708835 11.623731918054816
As 10.615665828881276 12.432346944079418 11.548733917020767
