42
Energy = -187.56871093 eV
As 13.40762880909847 12.919124630360026 7.361761403717329
As 9.528637016354903 13.389179989560109 7.798093163460834
As 11.660677911842102 13.384114873477696 9.074142709036696
As 9.196572908854748 15.856718259713503 8.188088747457293
As 15.30159914804229 13.96833346938889 8.58797420066649
As 13.774187036781077 10.664474262877436 8.507242823444727
As 14.577491956915338 16.32577116314419 8.948762436186527
As 13.166119115323605 7.927492758072316 10.025836791734877
As 8.098762122229079 13.268302765474663 9.896317754574046
As 11.980775071565336 11.09067777301545 10.373611066926296
As 12.103296316683736 16.033322358367442 9.14675371593078
As 8.717930173816471 15.574134716398838 10.480183833248466
As 15.803760046743427 10.870620388161289 9.965914550515658
As 10.87629250558531 8.9543299308503 9.532594152791834
As 12.895876436459053 11.545166712595679 14.240038414450481
As 9.356660400506335 11.88380899336222 11.583847180579006
As 14.73867512726805 13.0080824661645 10.82654057110226
As 11.46567242488077 17.09396147307594 11.149651169604365
As 15.534130811630774 16.680294736648477 11.22213872417334
As 13.459579787668096 7.436903957272402 12.448086645334081
As 12.21417650024252 13.50995527158683 12.846098757480325
As 16.424147698607467 14.457073159958027 11.977994439776086
As 9.93544331837705 7.760691628885528 11.537021900541346
As 14.10744887085424 9.736047851368262 11.541665007737766
As 11.52288648460205 8.968162397920977 12.945287161725659
As 9.733728194174507 13.697043180793601 13.240021941565514
As 11.922102607579884 11.93088560910349 16.49389230337032
As 13.488796975499051 17.25067004551056 12.534980338915826
As 7.528892452206522 10.98459037428158 13.07875615699316
As 12.957930692133814 15.446601866043858 14.260944569930434
As 8.244643945723988 8.599615426155829 13.319545393264221
As 15.272232020626657 12.03463650475997 14.753401818182528
As 15.320956829322606 14.620368099088406 14.273519769342258
As 8.535026766774502 12.249314111069953 14.949819882462826
As 15.122108913270903 9.637732778005379 16.174227772556506
As 10.108204749218789 8.45962940900805 14.960236750510282
As 13.824010812469945 14.851162410770026 17.246697649785713
As 9.816885315976446 10.577481154560843 16.25698148677544
As 16.09131077328552 15.315339085613573 16.658765270004494
As 15.335693264972509 12.960783833606142 17.134019735914293
As 12.99044530009829 9.841829747478759 17.42429947973581
As 15.18250629352117 10.55947428423556 18.358146266280873
