42
Energy = -187.12764755 eV
As 8.338900295700087 11.192076485738859 8.211341259801488
As 9.000388148778866 7.509437036127467 9.267642678876108
As 10.154748137855087 9.461590555878017 8.314050136286024
As 15.615255393487976 17.80057303428863 10.98565765167126
As 7.208340266573291 8.220866957529651 10.535319324740504
As 6.8506394065854606 10.5978170469096 10.105127692128617
As 16.23314033688158 15.627918790465364 9.676984373388594
As 18.523475710245783 15.124754674990655 10.175969332595475
As 9.75402454027487 12.670023475571368 9.724163820716097
As 16.751545731552717 11.511167219962124 9.806655554123674
As 13.190757627041153 17.241658497511747 11.405158501749053
As 16.10321155572036 9.107915154710737 10.132779030729695
As 11.496168845788784 10.018377007819712 10.397305489448467
As 11.08193091249985 7.8121239669325035 11.404380298675477
As 18.195252931805197 9.977761182654035 11.16706381833248
As 16.31418808676236 16.860305649518747 13.140588812218239
As 9.409916471411917 15.136887486754052 9.961161390087703
As 9.511921220162773 8.566551424366772 13.291937802816959
As 8.399339898971345 11.895653007179607 11.634253481097993
As 16.87707908167369 14.593367598801054 11.812492585265963
As 13.201515753767168 14.71430730306449 11.34874607596358
As 15.658475993887134 12.394741121827701 11.918405042959755
As 7.8207020525387 15.7788171314066 11.827043919779694
As 13.284789585416922 7.521035379868035 12.609094651310981
As 17.38196231104736 11.148478680268912 13.245344846986564
As 12.982673779033254 11.291879090710996 14.199012440493663
As 7.083905111649417 13.624020946837069 12.866642311222703
As 10.820705702068409 14.432564425375242 11.902116745617617
As 13.917574799151025 17.084301530608023 13.804306124947995
As 14.34906973694133 9.634147133765113 11.83643482840763
As 10.229155409098952 10.92792756494154 12.959868777854487
As 13.73811685745842 14.559627006290443 13.821874227532193
As 9.889167147169841 16.449790675898587 13.055101034041709
As 12.654294021065924 8.8099204324613 14.665322441047708
As 10.47396533928878 8.22739870911083 15.487709194084102
As 15.998569573529181 9.155618965654208 13.731268281015334
As 14.612784037902824 9.985955747589987 15.659098080151244
As 8.072343856893527 13.603159673612174 15.138162724481402
As 9.685654752126679 15.473965173611557 15.327088291901745
As 11.514684161000998 12.033578147279641 16.11929056802404
As 9.238760113821742 11.35140173374179 15.288091291183122
As 11.963671625672786 14.453303492668745 15.622711386546392
