41
Energy = -182.21211259 eV
As 12.419406116204778 12.772636703385185 6.68488416717885
As 13.600550743489466 10.863492868892399 7.802944051991666
As 15.424563302485257 11.932474827265972 9.199778126930148
As 10.497584772438321 6.3193761773807 10.001962138655514
As 9.234079752334809 8.21518152038685 9.845208783366072
As 13.230167209449016 14.563126652909984 8.30500371505135
As 10.387368489668118 11.342663716312243 7.291074649785433
As 13.900750689822628 16.15384418017903 10.940021975701068
As 12.895851019547019 6.385530520188209 10.618004066085572
As 10.629572707254093 16.83098185668114 11.222136868592003
As 13.810110450781325 13.42500069111851 10.480556495594296
As 11.67312894885036 11.403515189739043 9.356575959798011
As 8.413133140671475 12.600877239063449 8.203418382416704
As 15.626998076165611 9.788453188051678 10.404465337430175
As 10.309204856188169 10.085669274443616 10.995368915300812
As 8.442084306438433 15.62567507041596 10.886943469829635
As 13.541316176008568 8.63627300706863 11.601610013940473
As 9.792720986057068 13.738373753469226 9.909242464454918
As 15.45615757408931 15.277456648644597 14.092045466958167
As 12.92695499683898 5.926622097122771 13.079076029250253
As 8.43769613643511 11.744258913252649 10.55349822638433
As 12.181357357273928 16.67316035937491 9.20971446116035
As 12.086643822635857 15.030845188570344 12.202601666633926
As 16.83233064818171 9.642736488872396 12.484809135323529
As 15.640679277441864 13.555483713610403 12.482028633574153
As 13.85533202620814 11.870546266203366 13.5426355889717
As 11.661621033950961 7.97005782826248 13.351944101258475
As 15.28349973278926 7.399572962485107 12.869914355449799
As 10.481574507163318 13.721025102944699 15.456065162258259
As 8.777968702457148 16.562365612027307 14.394892934011146
As 12.604987746882378 8.6579381866703 15.509330868277868
As 12.996302857056811 15.602202126700677 14.495473090264614
As 8.79089396872417 14.415017526099504 13.051366261114962
As 15.069371207663082 8.467956365038962 15.126376400901353
As 15.853518961530218 10.773555611533908 14.517584052243082
As 6.915995769858035 14.918285102331868 14.572086771791534
As 13.908324227436134 13.505446194216336 15.47633678895253
As 9.77242583580127 15.761567474021044 16.614812953659893
As 11.749937935607818 10.940632868813159 14.97901650033258
As 11.963474145029522 12.347735657193322 16.937277025875815
As 8.197980823489411 13.826006307456375 16.525534981648093
