43
Energy = -188.80282702 eV
As 21.085063635412055 10.238751987058533 20.714574063419434
As 13.256929939544275 16.512521939237544 21.64065235912166
As 22.10137120434587 19.328819678219126 16.857355852080254
As 16.304944435026556 19.979740902958042 20.562006543564852
As 20.566877133008933 22.07823291469582 13.979183525060014
As 13.347378151503202 21.42558347578158 19.501435378319954
As 21.407154954941532 15.848597335093672 19.045827729378402
As 12.892256365014225 19.92886515031121 15.992135321584897
As 17.040884391151668 20.53226202850245 14.790406203734573
As 14.00586007071541 12.894373676084761 20.51525162898002
As 13.444548519872125 23.571415499410552 14.44860150934859
As 18.831835941600943 9.860139529448851 19.769334474618503
As 21.348111722616157 12.730311782471512 20.2385739776728
As 21.15434132294896 12.23716589774345 17.799446053356224
As 20.484290748817763 21.37418101793626 18.625346347445706
As 11.401010662915793 22.558374588370416 13.499496571495692
As 19.073935973467467 20.19477735634819 13.37143267991273
As 19.851937039216057 19.543794028762502 20.197908904744324
As 17.821791877038844 18.69013400206208 19.052838823118602
As 17.03651452770164 17.673313545372228 21.187319782223277
As 18.50518340802042 21.59670648022661 17.457748413285163
As 11.925439339358151 21.672350847575597 17.47900005732728
As 17.041728918197933 23.02685327266782 14.950945891745137
As 19.368194669280612 7.43921243680739 20.250169712114452
As 18.750781429975696 12.962922561019614 17.82030392885202
As 18.86936870327947 13.319174847666723 20.297170086121014
As 18.981940655960027 15.271367882657367 18.723127736395263
As 14.10653235488646 22.08491470008198 16.30663937382929
As 14.496874531603256 19.522403512074437 18.936325298234557
As 22.95167586395496 17.31202957228567 15.74146348423744
As 22.420296246944204 15.394762325135838 16.8796737793112
As 21.693234947626234 18.30174150200285 19.07463379937138
As 15.862534496816137 14.109340485350694 19.836689967383666
As 20.80747970589133 9.761454831984642 18.283442448427454
As 11.128737411578795 20.473026337814783 14.358699767195388
As 12.456936480649029 14.349358046058102 21.590876352154854
As 19.349818716413093 23.27015689788382 15.841893671803511
As 17.00274981080664 23.260668880534904 12.441215378266158
As 16.10653897051711 20.919599220959988 12.408285892817661
As 14.553119116787567 22.838838347211155 12.338964014690834
As 17.349909530559618 6.766698124555984 20.927510823444003
As 15.164862998976291 16.353016436331934 20.233973579678935
As 21.237698866825443 19.74124906497817 14.514237518537128
