41
Energy = -184.2242082 eV
As 7.15891182531186 9.5732697737165 5.867616764820778
As 10.2482602280171 12.01223477021827 5.123982522483288
As 9.493203271521445 8.864157816537466 5.92248155390433
As 7.736847037007013 11.714340699473032 4.843329937422888
As 12.956127017331049 13.576686066730193 7.692896085362793
As 6.68794783554894 6.436857132264999 8.80656856427009
As 8.516353736395356 11.59867822901294 8.568160917799586
As 12.20288224362799 7.244181353863271 7.267732363113003
As 9.39835150136851 14.210760264762216 5.942961889752539
As 10.478119540346455 10.755544560364378 7.237849017087706
As 14.073179268223852 14.665223150751963 9.615437582095273
As 9.774707874686726 6.813277898605566 7.346703221660636
As 13.483888367328424 11.28429693501628 8.550726677110795
As 7.379819895143013 13.073277349590908 6.931081272930856
As 10.801835969846163 14.81409324964341 7.923898175603823
As 14.793587624674373 7.559011507038609 10.332530512639662
As 4.917507346734729 6.632994574576428 10.511328077382442
As 8.705278142484026 7.77286452996145 9.43864536464257
As 12.87811848381967 14.215535791305951 11.815386669333094
As 9.17500717836279 13.866211241118316 9.473812292682103
As 12.59637641120887 8.174121048711324 9.429848421667153
As 6.435522936774834 4.601674923378853 10.44552716956776
As 11.837461156853667 10.477970065357438 10.262156832530033
As 15.313246122385577 12.448545040718635 9.823616076942756
As 9.601404873997115 6.193020898773028 11.138968770371564
As 12.680410170816534 6.118570710796323 10.804416655032314
As 5.916881496514069 10.92996251220229 13.321461319851858
As 10.374240416684632 13.8818766042532 11.692111099843645
As 7.309462136365591 9.198902126204581 12.169942938475794
As 5.9272061582107645 7.217278762372136 12.736983834639553
As 12.526733659425789 6.966033615480426 13.176111896124125
As 7.664150794744948 5.446133463154306 12.475884994256111
As 10.537485218006076 8.218372257903 12.307129415257883
As 14.441783982340928 8.513847953121536 12.612756154102449
As 14.56164333067704 12.396137902869944 12.201894792021163
As 7.252377974311462 12.90776251415563 12.619211837807075
As 9.348877102317868 11.609674048480413 11.928644441951459
As 12.995187323768603 10.519490426140075 12.45207816829628
As 7.465038649003435 11.992067645406882 14.939741758983113
As 8.840105859305819 8.692548212253996 14.094891140864132
As 9.710310901100513 11.008353436307788 14.349333881909825
