49
Energy = -220.55422838 eV
As 13.624205174214675 11.938286547287857 6.973645440309163
As 15.736809830933874 10.556792811970693 7.059125751801097
As 13.471056239415311 9.479612505442947 7.200303032001805
As 15.952240590905097 15.658719404522277 10.09489349558647
As 13.885095396778738 15.224254129378501 8.772026831802359
As 11.315656132686575 11.799335791922308 9.62117219081646
As 16.541613787756507 12.29075954039431 8.700421528487736
As 10.243428991049708 9.581791762267581 9.32985809773166
As 11.899868393531527 16.032702591498417 10.106950668340811
As 9.578554798492261 13.552039945583893 10.06376190055459
As 12.561027877873297 8.45519658047586 9.287108208508837
As 14.112517260713496 12.740307127600184 9.309295755331219
As 17.509170565484318 11.221290532563907 10.73556947180606
As 16.586410920337098 8.991157690865508 10.484152551063108
As 15.338720672333084 17.36215548808727 11.770586549074148
As 11.097737267332061 14.421351823966207 11.901929940941686
As 14.848153320475847 14.962062219902455 12.220022875200172
As 12.964774667223661 17.95221475193313 11.300417090930823
As 11.859268730630937 10.773392132803687 11.853746380014726
As 14.054132530970577 9.723254265195408 10.872119710938007
As 9.321031108710502 10.134597483321675 11.779295907731447
As 7.870956706628604 11.973813551765737 10.901067839604362
As 14.093850130845052 8.179442175108926 12.828439802231987
As 16.625712972228527 8.288992032075397 12.890386077839016
As 15.809854388128931 11.933758940825461 12.565794882389698
As 9.195057483158271 15.873204288100123 12.626695610413288
As 9.606555214069102 12.139829926876489 14.443532556352718
As 12.889016591575693 15.40736674412127 14.46503743496173
As 13.103536299508196 12.058172660940418 13.53438498173199
As 16.875878853560646 14.094896557271055 13.353327608402447
As 17.083633630695108 10.443186262844153 14.071755592548621
As 6.767761584204521 12.842831026894384 12.95000861083796
As 12.55357816003642 17.803823252092428 13.765112537336206
As 13.31441751596956 9.798494535736394 14.588321073307117
As 10.11904290589041 17.650645871225816 14.173032838078337
As 7.964089862671037 8.979580111547875 13.375331220957142
As 8.295618210504726 14.261017914851497 14.377029914622018
As 7.366543286652422 10.994757169024322 14.619821532989313
As 15.425294543473465 10.161937438305928 15.894267041597729
As 11.191568553720165 12.878870371202806 16.276080939634767
As 16.412407725134116 14.175929147184311 15.856199933021676
As 10.752404711953771 15.720332420007916 15.737834957364832
As 14.737537367577632 16.04437156001148 16.072107741348056
As 10.265093840879318 13.737981922107954 18.4486915502702
As 14.568217228149145 12.53749165816807 16.05815253794778
As 11.845716256539074 11.843396358569247 18.439520609239565
As 13.89440057148446 15.323081804205852 18.3159431417784
As 14.148568861190034 12.838361089207698 18.51130600558007
As 11.48089456143623 15.921840358456516 18.183094324354187
