48
Energy = -212.8585168 eV
As 8.270510255179076 12.848734351218408 7.608492897562006
As 10.496437795457233 13.822233569888331 8.211769925564917
As 7.380144088683867 15.205647642884808 7.242327650726587
As 11.55939154805505 12.174624654369909 9.781623275625412
As 9.7766959823074 10.44184865055907 9.857113839908065
As 13.154602220371888 10.690221462731534 8.534920593678
As 14.277723198371202 14.115168943468099 8.92922921752284
As 7.387109594413859 13.242863450948743 9.913059225708233
As 5.525023292708466 15.02470071382967 8.861994080432376
As 15.38928937461025 11.934818392298927 8.497259854476923
As 16.09062179764198 15.588445841480873 9.922146378493506
As 7.802672227270219 11.09746066211643 11.2071237934254
As 9.395242869726118 14.725977820797663 10.319110409398062
As 13.290231673222278 8.832943915354537 10.225013659358146
As 17.296652613490423 12.141976046934019 10.29321374140255
As 10.948735314295751 8.746424943350961 11.238929901123491
As 12.679310055063919 10.01265943576315 12.360561604882612
As 16.112595393160124 13.858176910367547 11.650563889649943
As 8.611827814887645 16.64603985755404 8.948483052463143
As 14.417143849311184 17.115648259966314 11.003000357569586
As 7.622245111871472 12.090308597767828 13.547487014584256
As 15.001048498796152 6.805307909013958 13.86906954280861
As 13.53567283974173 13.40164251625017 11.272054443148939
As 17.617678010931634 10.325582240731832 11.833335061516031
As 6.345858862499971 16.95771501838802 9.914301223732362
As 17.386587881643973 7.3153425072857985 13.334476441795722
As 16.842224040709315 14.747499569456984 13.901169855219745
As 7.744550571822885 14.55579159487833 13.113227899097565
As 16.765226817385948 5.835536875272274 15.276424389800203
As 17.763601187383944 12.609739249682313 14.739558515419066
As 12.420649146163356 15.68820223692269 11.404106735343342
As 13.678978242947826 16.635010978090648 13.344759276886032
As 9.766850220418528 11.276553563447585 14.523060487087118
As 9.766996178303573 8.884435112655098 14.291807312647627
As 14.378633727577554 14.381618298255214 14.171375839176815
As 16.177313331028362 10.921348894100516 13.668619537419024
As 7.071610681602928 15.305176786857517 15.367122700191171
As 17.45931198816328 9.221151149410208 14.997582428561804
As 9.273416244811697 15.642870546898957 14.75165531565991
As 11.88252252453058 12.513810261629672 13.880800255745788
As 12.159499823847302 8.68657492956839 14.564098873487623
As 16.845644523759656 12.176191574676505 16.977062247511245
As 11.315779195719966 13.917276598225431 15.975370685418028
As 15.58971085182377 7.910583633488994 16.027702184078496
As 13.702125667505252 14.698770511539756 16.55191092752385
As 14.64965793940424 12.661695065910148 17.54706972578904
As 12.725217312103448 10.93150764361743 15.674437320010949
As 10.651888917130565 11.63860190794957 16.87687770922302
