44
Energy = -196.83891659 eV
As 10.328360872454953 8.709915197800761 15.734513602101165
As 9.852644763532131 10.903620270889927 16.776639266303818
As 12.765482265261824 9.15405015763323 15.818739874205312
As 8.870071859688242 15.665088361197638 12.908248092855876
As 8.78929569980228 6.729284585346871 13.529139569952635
As 12.05048303986746 10.386781102219501 17.893710885809394
As 9.732749295300005 9.02119015173357 13.327958044218255
As 7.404457274525611 8.744299816124213 14.086700232558897
As 7.152532068802947 14.478371227204214 11.937310117505998
As 12.926688408188234 12.515710921302887 16.7926608383036
As 10.963486758165706 12.555677551984525 15.242925814964238
As 7.2822939876074395 6.463473595479151 11.546238568598207
As 10.661262647564026 14.869079265235555 11.45333922147597
As 6.357793640654069 8.797578903808875 11.767639318532076
As 11.06905524835041 6.911140227606383 9.636528270741612
As 12.427378203875454 16.616520580537838 11.723709377290751
As 12.989589627013077 11.334932986854872 14.587737656249306
As 6.524421261814008 11.684645923619868 9.436576570130873
As 7.411587642695228 13.990953813181864 9.565861312851228
As 8.136838976268555 10.06143733686226 10.52017944330526
As 15.694403678671618 14.431348271431576 12.096573170045827
As 10.923256945421763 16.665026826276925 9.741910321704017
As 14.333425750335573 15.657961365546075 10.428996317767
As 16.81873152045055 12.9096222353493 10.474665941072159
As 13.152651464778323 13.580393330495529 9.783180627366317
As 8.604453511735063 6.300146110879392 9.42199575886171
As 11.832799230566092 10.810317464648135 10.007163935710608
As 9.201024011981637 14.736010356291949 7.966967145271257
As 7.516181548592074 8.447003647672497 8.724562601567259
As 11.791228115376292 14.936823650257006 8.110322560417226
As 12.51477155837338 6.25048521927888 11.559003116061346
As 15.41781943265626 11.981043156503931 12.36663103998615
As 6.850753808270772 11.456719635013805 6.924170214070978
As 9.769013634215865 11.457809231892888 7.977661020323922
As 13.950725603798293 10.257187126769386 11.255783127604097
As 12.550679706885953 4.906012117144358 9.476670797029728
As 15.169511609741319 12.640527139789931 8.550038129511425
As 8.582577987606443 9.597698207596267 6.777032372693405
As 12.256390932815282 11.549596780041474 7.592038344294643
As 8.817863013344127 12.926252676329995 6.274133651245566
As 11.894961868368487 9.134929365095246 8.152957765156083
As 15.471420223946192 10.19495628244869 9.366162471196525
As 14.369879671785657 6.5309174924559175 9.92752110426836
As 14.245606161633711 8.34256184486337 8.138330917395551
