44
Energy = -195.78228836 eV
As 8.577667179368845 6.79511094139424 3.1786578548596376
As 7.493063594024027 12.657185973370362 3.638163198519009
As 10.880436025016115 4.595694929873152 5.290669905817302
As 6.1691417034416896 6.269415552436045 3.5107863239291146
As 7.058738896577249 8.448041410327418 2.7334643297923593
As 13.073560158767902 7.7786476747269555 6.1340181787923385
As 11.141960895462667 9.322552854511603 5.5126363545394605
As 5.1465256296837305 11.995526914219587 3.9609702586978357
As 9.33204941977779 11.780351653166663 7.687606915908978
As 11.771796588532283 5.89606965310329 7.242511128542866
As 6.020510581327485 6.968781084527303 5.916907698489288
As 3.5372965030977763 7.159774007486487 6.13104935514877
As 6.381690188481051 13.075909113587612 5.792053719467289
As 12.04164955858848 11.518485442174068 5.9900778258838026
As 4.831081319102195 4.80258083146175 9.285288758277106
As 4.6911801519882586 5.0724548034193955 6.798783034088526
As 9.069111795913885 3.990126392060911 6.9159992767897975
As 6.94396845075675 10.755159620024006 5.094639234785893
As 14.051544076211197 8.850919559485456 8.131249099622998
As 3.4051870049856143 10.772188504897294 7.3856968911861545
As 10.529371214654926 3.1331358756450673 8.767382914100658
As 9.515551546554981 6.365441467916506 6.328152123812815
As 4.280693288858675 8.550295539159881 8.069956658631567
As 12.13569511667663 10.602995177092357 8.259389783429542
As 10.097490012123831 9.267520303388483 7.8467867903000865
As 8.547106651618217 2.246953312257946 10.033654211028493
As 6.032955893591263 10.172683917011607 10.090591810381232
As 10.81448975840985 12.338751996691636 9.649590584274659
As 3.8421391529855056 11.383295671464221 9.758942631640597
As 7.279789115121979 4.435033734159114 9.63024017206138
As 13.426703011887028 7.296375022515543 9.984553658975308
As 7.597708298222277 12.03570912055882 9.604928909153593
As 6.641325624700859 4.644679900679362 12.000294642690315
As 10.13047413345234 3.7854704768664114 11.145894726203366
As 2.2710833156509898 9.53260358737139 9.184391122592928
As 5.422250282912371 6.616508878764029 10.976597382302112
As 9.279437643195513 10.616191671310572 10.6732960631651
As 7.757210935648836 7.62130876869636 10.647186404275269
As 10.95988754789092 7.761817808959622 10.263664630462008
As 12.507169766481626 9.019762091017556 11.455253081961681
As 6.082182289466495 10.579359189846835 12.59554238325691
As 8.874088858385315 5.80223857916413 12.110477233925119
As 7.397557625571631 8.49225179263327 13.025140578523361
As 8.49307427118585 10.728234276928957 13.100457236065925
