47
Energy = -209.11654008 eV
As 13.37479903611062 14.214821511942324 7.253152582127949
As 8.116614026927133 12.542799099647297 7.467954801647858
As 13.827571858744736 11.802212203481787 7.701499675920777
As 10.8129403213577 13.547359930952265 7.175624583745065
As 10.69131670774915 9.79947678366066 7.248550164504467
As 8.472232618284727 10.312185342468343 8.27521086652815
As 12.807451782990666 14.257582781921332 9.640199921907415
As 15.38159576343282 11.900645331010459 9.714787511133945
As 11.51977582556917 11.671300161155429 8.71478872682084
As 6.818186508777835 13.266215930524025 9.443120643456645
As 11.738016864550787 16.44669393052857 9.968634554497875
As 9.940518306348014 15.605097667890838 8.373813004564312
As 14.996026498887534 14.13890831969058 10.822857269135085
As 8.342533030896568 15.094302336777844 10.192837173340285
As 10.97855253239189 8.079064997678055 8.99004101894043
As 8.163609489995387 11.541740905303872 10.805092113832695
As 14.778765727478017 9.597459316022135 10.520126525677144
As 12.279270727678718 6.989162637174264 12.133515195589368
As 9.794563953152585 13.36498951489556 11.447655476108554
As 12.310488754948956 9.06572962755037 10.725561602781616
As 7.580416837166427 10.619330251195622 13.19053530183712
As 11.84341460822565 15.798031739933855 12.516831035918075
As 17.044251849658153 14.671710929610311 13.440109077400468
As 14.951293020583881 9.794571952259027 13.038311753476485
As 13.421908759728144 13.665406969309299 12.809501265857659
As 14.810276700724652 15.31996715464939 14.152409979048228
As 8.272833269266476 12.302772200739058 14.918486336289027
As 13.485115906059843 17.45158657174198 13.835095119752115
As 8.36781191798839 14.177365524316553 13.27841759441482
As 9.387883184406405 9.137333147827277 12.338909098235073
As 10.041825689665094 15.706219220890109 14.357727872120728
As 17.156924158251083 8.965678226101485 13.93813345973987
As 10.480871886950764 7.471396254987201 13.844351560529217
As 11.181456374268917 10.823228812001338 12.18070057665176
As 15.997699559329208 12.488075142156712 13.753192480726424
As 10.472762555693118 11.882014458477977 15.95972055349813
As 14.967991114960137 14.808248854679231 16.544776760581687
As 13.977910872983303 7.638811932190776 13.912283537375174
As 12.475987903253968 17.507654344982683 15.96851335182757
As 18.11750279626095 11.27006946508635 14.378088134530069
As 16.04804417123127 9.0177321008491 16.133605114455147
As 14.96762927605995 12.26420657667861 16.057148729866682
As 12.24554517990866 10.898553662141405 14.432558483431851
As 12.141601618631583 8.603680985673765 15.341776525194595
As 17.165357372347348 11.136310464691519 16.702530879959138
As 11.613280023898033 13.991164172654896 15.22454304424529
As 12.60825605859249 15.321813556265694 17.10740196314274
