45
Energy = -200.28019722 eV
As 13.082330024543195 14.417504594461859 7.349337519965361
As 14.30070467298665 12.441241794060742 6.467002515103869
As 13.428584596874622 10.116638904629962 6.833303278605099
As 10.781894693236945 14.159273106870993 8.391228364570592
As 16.404470657429776 12.608355044365313 7.708067843866463
As 9.949348510865851 11.83251373100784 8.174625316948935
As 17.066018360010645 10.367665887192498 8.330110809193869
As 11.707792385184908 10.088431557458343 8.632360130391133
As 14.132991808109109 15.17316312825493 9.437887704070073
As 15.12891222514821 8.995678215783771 8.286476414107225
As 13.208563437923306 11.362434992536137 10.10048055253644
As 16.05383183299412 13.972038111139796 9.735631285496824
As 9.340218142592562 11.190205131013563 10.51827647192402
As 9.000315000258455 15.120540134523791 11.126395575342915
As 12.592097283057564 7.428545616907223 10.731871532637948
As 7.736211065139423 12.975098529516911 11.311786037797265
As 8.85165438275966 16.113043803474547 13.434805745875053
As 11.371967912103532 12.03006475161942 11.659271810066388
As 14.31248997930792 9.181873919010203 10.761612218813042
As 18.290949863227215 13.808034858470704 12.873024957614573
As 11.357669929317328 14.385002673247122 10.811354312454558
As 15.799951812624034 13.560493238079768 13.04192912912216
As 8.792591437917292 9.754007956601471 13.431764930706015
As 11.186349449579298 17.018240223993377 13.504033683491896
As 16.901750314616564 15.807824847890007 12.925955925806615
As 11.669307466028519 8.69923669443837 12.5685876607976
As 17.976873419569255 15.00827837198546 15.047440210081579
As 13.23974438443847 8.182016220175463 14.45031728847191
As 12.774778702060303 15.02950470848328 13.640385938080035
As 12.227892049066728 11.859510202873546 14.421012958212494
As 7.401717004777067 13.024870659481135 13.779609305486977
As 9.833761651027556 7.485045366990408 13.884797215121448
As 7.149138212744102 10.853900634115263 15.04855047651711
As 10.357821803380542 10.456099685304808 15.223991821951628
As 11.566040600921365 17.050188672912554 15.994314787704742
As 16.182994421223597 13.347227285665436 15.576581611099186
As 13.93717778267625 16.56545296670728 15.25394104891587
As 11.213080927209326 8.22329666832954 15.90445185760605
As 14.215402762430013 10.518323650297473 14.795971093221214
As 11.397852613261529 14.546340073531892 15.657330394821122
As 12.927123461101115 11.123788819406247 16.870650362808806
As 8.86420601591793 14.337769199826251 15.236143621669441
As 8.83025778932353 11.473484785657135 16.760018663164665
As 12.792128154197593 13.536193426002038 17.503700001409687
As 14.7887372001049 14.897253354974472 16.929305815616967
