44
Energy = -197.67326247 eV
As 11.86970340432233 12.131273035583188 6.414852336015526
As 12.544061791560026 8.758564202745399 6.257080229860617
As 13.930494779675355 11.567846075717352 7.778817991910702
As 10.412664330135872 15.461811753512073 9.412025965754841
As 9.479078635329126 9.876071754133887 4.873036619866795
As 8.657469419339124 12.321091152408787 8.722943636147708
As 14.812285323714317 8.679206830670278 10.108886140673713
As 13.390653579048703 13.52520849123479 9.255851013167899
As 10.891294893488945 13.17318830465129 8.484393542107972
As 14.57116483244014 12.093861617106105 10.87414963807299
As 11.018396279500815 7.928860148127433 4.3955200231889595
As 10.589316260738922 10.108128842654725 7.137812183914962
As 8.022537372766335 14.624588647667803 9.491693324309265
As 12.773883693223723 14.914248234618654 13.065835694324072
As 12.231575099822095 6.494831015944099 7.318593135041678
As 13.009870605743401 10.392721084336543 9.858480532620437
As 5.844820995515531 9.43160926844532 6.722150042910781
As 7.970342520285041 11.747634874666433 11.665838020598875
As 11.09577838746577 14.046727270848773 11.37835590638097
As 7.571876942132116 8.313771462537153 5.3540529168391116
As 10.18338731787876 6.061398350519153 5.9064190324672605
As 14.024445124880266 12.736840474651489 13.23781290184615
As 9.536953099836136 15.076213159199236 12.937939098510585
As 7.053773259337671 5.985835008447323 8.12519376765067
As 11.044372515135635 13.926515183883065 14.637735581627377
As 11.381031710573676 7.450477956869651 9.49169031268044
As 10.165825196650875 5.5282370345906315 10.565981453435862
As 14.155747878157849 7.626302340680075 12.261015281338379
As 5.514931482623528 11.304954200205735 11.193228381742601
As 7.449389914903425 14.155910442403137 11.961432214258386
As 10.760954319251441 10.31345441708598 12.495189408410745
As 8.792957062645131 7.523726473150497 7.31256297295415
As 13.608047643885522 6.4879107378541985 10.115497663073416
As 12.006508388756755 11.6078561308212 14.243186483613082
As 8.092687069603556 8.495765565754507 11.023464828090551
As 5.361016617601773 7.831533493993767 8.313566888308213
As 7.478208421567392 11.295924945235978 14.110345248856921
As 12.00956326284544 8.282528870475536 13.365195024026637
As 10.463745273631291 6.368684116199088 12.958692429126762
As 5.64347099593638 8.851395378623465 11.282621147696617
As 5.3665376421868505 10.172873822326393 13.433676100127244
As 7.718675033531874 6.077246940015255 10.560268000370042
As 9.335848251060394 9.620466945198272 14.459643351786447
As 8.31560236887487 7.632743773329253 13.350126490080108
