46
Energy = -206.54074393 eV
As 14.782802529545817 13.678346931061334 9.924023900791175
As 14.004531623700318 12.595693755135095 6.764817995706096
As 15.652901705483458 11.4591684382884 9.364820271721696
As 13.37360600617063 10.646261546513621 8.266708726070734
As 14.127212274820874 8.51865965799086 7.189092842561443
As 15.023444541733303 7.2937242463167316 9.214107912249924
As 11.894234093694243 14.897648975286527 12.09056701323852
As 15.557920117318032 10.630219694728268 11.71028995273113
As 14.160415403181167 13.911737712622667 12.34357120053688
As 12.105351967320365 12.335750439011006 5.152434424299142
As 14.81868051934893 8.261119731875175 11.501664024822537
As 12.590931009835264 13.50224259922404 8.593635604672643
As 11.463514113603921 8.291028727266886 9.506609705020198
As 11.056802344125522 10.666531777641332 6.511365175866266
As 11.965745520880715 7.182161139117184 7.339869967858724
As 11.356924248232644 13.866644919261535 14.368587506626643
As 13.363426338779977 12.351631019115972 14.199862881396971
As 10.863952484289781 12.834958361969278 11.079999861975093
As 12.099054064187108 15.748616140829602 7.671917352182186
As 9.412646508180138 5.231680224882403 13.301704066606911
As 13.14556067147933 10.108516347567253 11.453242649891076
As 12.482439154640193 10.075632021626477 13.853864361169235
As 10.15294747112882 12.632768177021589 7.6250528260673995
As 9.717368658939272 15.836079366620284 8.403693710298015
As 8.99419354305761 9.68511760846104 11.495483380339186
As 9.342854516639727 7.1959257596903 14.78004097848476
As 12.800450275998617 6.2064780411392695 9.512768733557888
As 7.108571886891154 4.671087561602819 12.531487106189065
As 10.580996126331405 14.570142227315602 6.099464971226192
As 9.519991147336093 12.663206873256534 13.184654563589579
As 6.489068146011564 11.316697036871838 6.3874295916780355
As 9.969889591105186 10.275590103878685 13.776567607993648
As 9.613286409523498 7.319864892901675 10.894591678049268
As 8.253300120596048 5.0461574468413755 15.554621364076167
As 7.367224204412568 10.6479547935837 8.678541070677289
As 9.07189220231675 13.84766564667424 9.633722237386866
As 5.643019829430589 13.449917945284364 7.358731660937127
As 7.98762201553061 6.72110063120491 9.119600681072537
As 7.034850968849743 8.031274162832062 14.7154075376694
As 6.130230918930192 5.839136261377394 10.556143825957282
As 6.796440084036986 9.480294243087444 12.639246894993091
As 4.133286088807829 11.525964187765641 7.211649224438408
As 6.192486040153648 8.451625876940895 8.795276799474616
As 6.066833769993592 5.747478014171317 14.47989703276313
As 5.314733755488186 8.155902295666674 11.132116738112924
As 5.332752474813094 11.979067446895268 9.3584670877432
