48
Energy = -214.91914958 eV
As 11.490931509103953 12.564898917092105 6.612515815546475
As 13.032363763406291 10.851155804693617 6.272819670403003
As 10.187823184897685 11.090843188985039 8.11636235585203
As 14.908112155836864 13.957277764742395 7.52593238871159
As 12.17758412124839 9.540167181079171 8.202634886297227
As 15.733717409073044 11.69517449831107 8.20682971135679
As 13.177188273688571 14.673363964312287 9.131956323070582
As 10.371052358760736 12.671401739701004 10.03136065561655
As 16.510680348593358 15.737944328338143 8.267932269496502
As 13.609202320688965 11.128210550026893 9.542170145482041
As 14.335919377545776 16.904429180992366 8.891009353722586
As 14.717505192167664 9.019562019809786 10.431277801851076
As 15.986451482391269 12.261542492352556 10.661571694034123
As 11.582261345507625 11.81701013093629 12.063151999766848
As 13.474284181987908 8.23108825153099 12.509098191059861
As 16.86134224683409 10.015637826264872 11.295251482347613
As 16.7513655162833 15.816314044010792 10.743397177839874
As 17.878441506415932 13.69196386062686 11.430551750820705
As 11.23330315134304 9.365619497158292 12.30024350918262
As 14.293374039156665 15.70537589267761 11.094068772817625
As 14.482307848867345 18.261907846770004 13.348984526031769
As 16.60579877550669 17.674653020210993 14.506155424349638
As 9.099133734037359 11.548953051121126 11.85522088148393
As 15.669634241888861 10.98702430535241 13.239169830329304
As 15.407326448562767 19.779148911457263 15.0822636636254
As 13.266053769227186 11.184839510779396 14.959023132960935
As 17.44048592918798 14.034295736458963 13.908151054410293
As 10.244534069488742 9.252902562882454 14.689888397690511
As 10.72951360774908 16.01454828376815 15.086364304680997
As 14.65862566627118 9.141400888111802 14.51411387740748
As 15.00112069449227 14.414505645142553 14.547259188794799
As 10.727840280258683 13.58167882949015 14.579924247598155
As 8.42331667402728 13.09629030469756 13.710990476237715
As 17.271077716246623 11.735669433416101 14.946460037225494
As 15.972452106143109 16.009884560670503 16.21969653729017
As 13.226493777512186 18.647911919761142 15.446950793592572
As 12.0217293888004 9.603973411650536 16.451755952337873
As 15.138842971775306 12.493888904400325 16.1850907153792
As 13.932537157059684 17.044429840921527 17.180547096886663
As 8.438668002335886 11.046711141350697 15.180302920653125
As 8.647817995086646 16.28430550552999 16.316508836402967
As 12.462491014383165 15.067583820433399 16.68798651019271
As 12.645123993355314 11.589943219038432 19.347807301933464
As 9.670772338026362 12.65760270392481 16.65299185853567
As 10.680046302921822 10.900059585198685 18.08128796986414
As 11.061092676844309 15.371438545443825 18.718686527100644
As 12.646386022453752 13.815478312655927 19.850872635863663
As 8.768437526393328 14.672553279553743 18.027973559699966
