48
Energy = -214.8576912 eV
As 10.274416800217116 11.560923656403286 6.593771962665054
As 12.268830796742904 13.077747170176073 7.089580025721485
As 11.790966166409936 15.436001868574637 7.834329988663307
As 8.379646898236025 12.766580164168968 7.63000492520729
As 9.770440969143891 15.955210278824554 9.309879502674397
As 13.723984659781388 12.07828725523483 8.85445243874647
As 10.76182085774933 9.653620249219527 8.112474100745315
As 15.198078717204675 7.811132018685466 8.79392610911859
As 13.247314455529573 6.680725527048468 9.17258919271303
As 15.312431176827085 14.015772694502715 8.561796316639084
As 13.545655224755203 15.529643938538172 9.588203145117399
As 9.610856409351257 13.488566116510627 9.650919802215027
As 8.726697208983172 9.178423491858059 9.454519929105462
As 7.196743357799939 11.133897619425982 9.115186824260636
As 12.5369875664967 9.261132920629723 11.252485475073586
As 10.547553823614633 10.521324770995243 10.430839477305243
As 16.31977315344073 8.18906954829836 10.930894582638672
As 13.224285246784842 13.414153034705237 10.950051628691794
As 10.729558088483977 15.739509016300982 11.582155332142031
As 12.69156290090083 6.7842717166190765 11.577587832704316
As 10.47171132981565 17.754297890282924 12.668760820486055
As 15.688067128769369 14.05257028630323 11.084152257601147
As 17.144393203789907 12.091469925665871 11.725341124112004
As 7.505029814178598 12.9104197459003 10.911793619439916
As 7.76257097552423 10.314663971065025 13.800081593346082
As 18.698894268392408 14.247074597366163 14.153624401214831
As 15.25456758317851 10.41258116275971 11.484318504465174
As 7.330826203175579 12.636885542750061 14.57950140632347
As 15.083751677338741 15.632693158881333 13.96661781238766
As 9.034407807770389 12.176345714036733 12.762667501491045
As 11.68391986789278 14.391505523820506 14.2372760878885
As 12.038187306586094 16.909635845098837 14.397553469504672
As 14.911663842507885 7.055544018582557 12.643575703383751
As 17.180347198724746 12.32039963288011 14.207820059804893
As 9.502852502350652 15.16981626828278 15.278015119246463
As 11.293284668651758 8.343307968998332 14.804994861804664
As 17.48857045063957 16.163403443628308 14.023415934496489
As 12.509072319779335 10.149549399433775 13.570926734225884
As 9.31657165347029 9.64298242192086 15.650052303301337
As 8.771230628872681 13.123198019493703 16.592151505840704
As 11.038948823508791 16.55827128987292 16.699853359167832
As 14.868812199004054 9.354951830426225 13.763995577883097
As 14.976077392378876 14.892617207902655 16.35931194791208
As 10.641321566845596 11.712421322289238 15.777778288013883
As 12.482949992598668 14.488880231808317 16.637476687484252
As 14.89195744000331 13.22924350827753 14.50637258359087
As 12.374943038919618 8.738676558227848 17.038623618705028
As 11.7837518219585 10.836887642404127 17.774585709810644
