45
Energy = -201.05468471 eV
As 18.083256722737246 16.555352471822236 8.291984776489372
As 15.379143277017292 10.726907362632142 8.820369940189657
As 9.402487089766396 14.184241427915257 10.9942604129816
As 18.98361931063778 14.614966742427791 9.568461404707064
As 15.826345647118911 13.136765101087121 8.36120473055175
As 7.6129820443059515 10.412092374443711 8.829115693403622
As 7.46896502128856 12.710449476456331 10.441138834715444
As 13.52675770733351 12.339415206185333 8.909188463730432
As 18.732204835316836 16.85898383128239 10.634974455342155
As 14.586153199375612 11.557030187458816 11.022641591878175
As 16.328676205248506 16.43369655806197 10.104316347149943
As 11.13882114989533 13.045871308173908 12.352986990618687
As 11.02025496012211 10.908323896799617 11.06882690526912
As 13.059049277758996 9.743011390929306 11.909119045130101
As 6.1434819644713095 9.407162982399376 10.373660271955297
As 7.437792531980722 14.568232144712285 12.420596916582578
As 16.734246635903748 13.986132730767887 10.539216694267488
As 14.442675539721616 16.79034248332815 12.726224762638125
As 8.446617032776654 8.485178511891881 10.12928084455108
As 16.930159799891783 11.79451649441614 13.421101296931424
As 7.349946044964778 11.041508788018554 12.245931431345737
As 14.917295996917817 19.17313051340344 12.434050390875779
As 15.472527588823896 13.820619253272493 14.016137722609086
As 14.300105274754255 19.337665971092896 14.80996670854022
As 9.345453620096764 9.528952415914635 12.253130484572177
As 7.5508009700152465 12.81627018546267 14.09697912953974
As 12.644920624963515 17.511432427937336 14.373344653826866
As 18.46461066754899 12.696143193022984 15.214881965094849
As 9.986358252329785 13.062447279624667 14.577202138906145
As 15.62834326467262 9.996009007479387 14.632376746878661
As 17.93072138532774 14.859256394301557 14.112325524368103
As 12.926290981945547 14.00709392541301 15.464272790206786
As 13.436514455849956 11.047813125209073 14.027336533175273
As 15.468644436759114 17.063929146266947 15.099682642771867
As 13.492229995004484 16.189015763062812 16.42531781759239
As 9.968530731399486 10.714242805308794 15.515199991960577
As 16.28555167549948 13.182220838939134 16.311642162930497
As 9.274442743056419 11.748661998069116 17.68257038983049
As 17.76244664771137 16.322513602084978 16.127239074521768
As 15.723226287383847 10.821588110181308 16.980264502345456
As 16.481185991136943 15.111248659773972 17.775266987709
As 12.241800844259254 9.704205489580268 15.726812879377627
As 13.331372835148041 10.738807053568873 17.723100739903654
As 13.066106272897578 13.184057758954046 17.807503816201393
As 10.741801738474198 13.13741289047635 18.723711675443123
