41
Energy = -181.77929635 eV
As 12.78516186684752 10.012572418846188 7.0318087831564835
As 10.432968740382126 10.854300242725998 6.854982960070723
As 12.384343356185465 9.352112354865183 9.432536418794092
As 9.951659554696546 9.59933802227121 8.957939528181102
As 14.123139456046617 15.626732507837325 8.796026817140266
As 12.287887428822364 12.42121562230719 7.414606258080236
As 9.368983221765866 11.628864670135117 10.258265562082178
As 14.6099778351074 17.676027769549037 10.18686594623058
As 15.4980718604519 14.080943367322762 10.214292502720667
As 12.51405165208773 12.067746705204584 9.883234704247045
As 16.08318004694073 16.98977578910526 12.110893562713956
As 12.155848344832254 14.742645325405402 9.965829381367646
As 17.855644527017162 14.052540549895362 10.912579296015029
As 15.012053368342965 11.770396228172444 9.62793804872213
As 14.93756810918683 14.844993807527196 12.682457978690483
As 14.424775208853221 18.537344356633014 13.219736239460023
As 8.07237925635197 10.662976206613372 11.98492558495948
As 9.372188798015365 12.353991396294639 13.274912944633385
As 12.601396455788793 17.743344065423784 11.686227172083642
As 12.366889603719834 9.592347548311718 12.718349125739605
As 17.031242608352763 13.037654108627356 12.869759974900804
As 13.318733328862313 11.848254727640331 12.796049896928347
As 12.443882127504317 15.360252798784177 12.347809973454263
As 9.998987700675963 9.978576613275504 13.70418708706721
As 13.704797985635235 8.353445420331596 14.624826792518817
As 15.576353813460887 11.085279648842613 12.078206880874317
As 13.88878875111174 17.62156497939787 15.519429576123036
As 11.57010868641227 16.962225931721054 15.121496512489834
As 15.963161668646954 9.252614205236126 14.64602857333692
As 8.279999483766119 12.579559725914603 15.629072058065182
As 15.347958157216887 15.67042098662166 15.26515636536016
As 10.913514145832426 15.562812565263249 16.843096699008495
As 9.56725795050124 10.528932572851156 16.18293678398337
As 12.48672007571795 9.7275034555693 16.220225111877554
As 13.492538288960567 11.938846275576749 15.341834728917
As 10.760261609478908 12.718939470843026 16.116006941648145
As 15.727378511199545 11.181719986249545 16.08340495941767
As 12.808827135231656 14.80940384677339 18.253484747107755
As 14.603811262383827 13.98804408296747 16.776353661102192
As 13.897155961266924 10.793885156183132 18.01982933394481
As 11.86906681992466 12.478569250468253 18.43510929037016
