46
Energy = -204.7556421 eV
As 6.982227445451062 11.01216861194411 7.493204983087156
As 8.933098924148817 4.440440874556029 10.75314317055478
As 11.056099054002635 7.092496071172185 12.298232089699441
As 13.790982029287084 8.517783704167623 9.899640432249077
As 5.039332948269121 4.872888808145761 9.877011009693652
As 9.678530473255542 6.131447880599935 4.931386526198378
As 11.770271853238523 9.703804306284267 10.649852003097472
As 12.876031202454897 11.603831978556343 9.498809658704333
As 13.837604049192452 9.034849075738927 7.403708258052172
As 13.993036601315367 10.484341577535039 11.443489789055224
As 11.70405657110187 6.427677692985235 14.652579047903357
As 6.441493972867833 7.2290934695404605 2.928969949874248
As 11.965347341003106 7.639613774074859 6.6621988336195255
As 12.542091685129174 11.111905912863392 6.627884286841821
As 3.23956795946254 10.407107733282224 6.7718043791674205
As 4.946731909407266 8.71035027175 6.138224788991838
As 3.095943887678918 7.520135889833361 4.914880085215457
As 4.940314487401208 5.7898483453218565 7.481117620256506
As 3.919470618720622 5.163858599846282 5.172699429066447
As 10.45535939498231 8.50652019894579 14.652422048061295
As 6.413764374755978 9.658597860524011 12.11308479932109
As 10.329267482395581 11.414576705524203 7.7251047983729295
As 9.142926605623908 12.30180598981172 11.122886778833825
As 4.661052408011192 8.703101504371421 10.586944557789444
As 6.100828753726418 3.682160925207769 7.94917746019983
As 8.60750275328606 6.699539205033775 7.149439411513564
As 10.580194514184575 7.311116787553453 8.526648052694958
As 6.625509977431718 7.161010964143844 12.390405840912914
As 11.045197454148937 10.703968885783167 4.581763449496893
As 7.093744324423908 12.367211005508565 9.714280131010206
As 7.964255322241138 4.2567315753752135 4.858587004215989
As 9.979043268813106 12.742142523000556 5.621182562540807
As 8.867342928267142 6.025575821860994 12.762391639645163
As 8.088560155228427 10.171013897422885 10.309413559398415
As 7.738113986244079 11.689933123369821 5.171089056354795
As 6.236489104780274 6.015383710028411 5.053391948552436
As 4.761896574111594 12.163060711473639 7.659906105875077
As 3.6062846338927677 10.606736206357764 9.223655564519662
As 8.990155031269472 9.49399227562906 5.45822426684737
As 9.300384984694219 6.51972811943112 15.298647837328094
As 6.428432059065605 6.979141553364733 9.906927672438414
As 8.48683541880629 4.201129347659042 7.362902969750582
As 4.730740066001688 8.934562738617656 3.6587168204205764
As 8.802492445147793 7.994966165199954 3.438405177082961
As 10.842371637483062 13.122597641259427 9.484715957473322
As 10.994606803977005 5.30563545572678 10.246433664403535
