42
Energy = -187.36578608 eV
As 12.454179203444099 15.56408098709849 8.402846087744134
As 14.670851123332259 16.389700347338124 8.301445665496752
As 13.26824195222484 8.231586363264404 9.01310956936911
As 11.339356728690317 9.802719524443425 9.365177368084161
As 10.150577035109123 8.141717724149283 10.797071055711939
As 14.880686600893567 10.072225888865832 8.993945776585187
As 12.718346301020853 14.768004627192285 10.772827828615764
As 13.467161137626551 7.130168569435314 11.244681212212226
As 16.024578761579445 17.12811452943569 11.708385644863467
As 8.746956654711322 11.677312922220867 10.491185869662067
As 12.331249667340796 17.224627400880905 10.485589397793147
As 16.390008279329432 9.777068190366968 10.667017074320416
As 15.178682435258867 15.172909581150888 10.384743337167446
As 14.094319372781593 18.18562067752212 12.888338609921243
As 11.91442575929438 8.552365924428253 12.541588742369443
As 12.30156369278203 10.782287537790491 11.466545715223143
As 8.61562587083821 9.714127981598981 11.995176445753017
As 15.738068897843716 7.81529743641521 11.972150480120375
As 9.979055041848122 17.537516196222505 10.540947290533321
As 6.7810946879606195 12.849159281206985 11.537480747374463
As 10.16966408045048 11.613961765739695 12.504697894739701
As 9.55757450195165 15.155368766671744 10.830967606251741
As 7.066612961410096 15.098009965008925 10.50544417821867
As 17.080010000405036 16.576751587515894 13.925831329995267
As 13.081884475837724 16.75273093300019 14.6190827353091
As 13.026033471896366 14.246467296707493 14.586802938498037
As 14.849037584077342 13.507079786789014 13.075948104559858
As 15.883485391798008 9.31896114900992 14.006845064551582
As 12.512187834424214 9.458252235640973 16.303280888838128
As 14.285405334267137 7.980658762781068 15.461513408487937
As 16.958184905227156 14.109879419002247 14.224283363867269
As 15.257958599169651 17.755325018645586 15.148685047707517
As 9.216822468239714 15.430207545741686 13.30172142118192
As 7.56837258628077 13.653381301813738 13.776912020399939
As 14.316765194241986 11.334223685064744 14.185379367427204
As 6.794535059188029 15.887417256424408 12.907699169429513
As 13.955086592354185 14.511969321002574 16.962044634242066
As 16.321897168184027 13.832949941670282 16.602892205634056
As 14.221709109996535 8.504654793005246 17.9042599088533
As 14.111169088618048 10.975309392177705 17.512006559296253
As 13.271449948497438 12.917162368156962 18.630252524090345
As 16.0318370609281 11.445378638755876 16.03590833085209
