54
Energy = -242.91136206 eV
As 14.717231451914554 14.135993836517097 6.969760982072632
As 12.82568007131359 12.800035036788078 6.004297962097445
As 8.434115821349687 13.26417675342384 9.322480979597865
As 15.502395685831326 12.0036550944389 8.12497185764446
As 9.64815309150876 11.463004717300254 8.001082927179109
As 13.55861524097925 17.98307086667797 7.895173172948695
As 13.015269729565924 15.554186278489016 8.163073845973281
As 13.449536892562849 10.784017152088623 7.385926656090461
As 17.60819843581019 9.286972495127953 9.580870973022513
As 14.81587511600732 18.769506832630444 9.863734267367926
As 13.304305270418515 15.66887401872702 10.629046460744524
As 11.907872204569347 12.509243964937209 8.297007036459304
As 9.613843358471655 10.004849747715287 10.099128142191285
As 10.844244059767481 7.377808973698571 12.809636798829205
As 10.272102620571587 14.447910703369349 10.503402966303513
As 10.565765289311726 16.86039582802559 13.017876491759871
As 15.613295964568888 16.647217934484623 10.902851792624755
As 17.65589863653812 10.411620479362128 13.306585468977486
As 17.54380496165254 11.571463328617442 11.078905231587965
As 12.445547122171277 18.02902576428897 10.152081841262659
As 8.653111719321235 15.787322225945942 11.80919690855645
As 12.36444165905539 9.282972559396578 12.724869392210508
As 15.154323100251242 9.307938144927554 10.088797989978913
As 16.868195300803038 8.33445943765248 11.611040738884277
As 15.082597350282795 11.806394667659793 10.61129939855841
As 15.986005475231819 13.936758440450062 13.240710641885585
As 7.812520951318836 11.480543241881435 10.970656434107216
As 18.14010197167101 13.949579312998543 11.956084514021502
As 15.225397517526634 10.46994209328389 13.933412161602956
As 8.638595545556557 8.15860693601425 13.731803493891254
As 13.45155823155507 15.923468343963483 14.067164838863356
As 18.059978395946185 12.901478006301788 14.131326911674876
As 11.635493232110447 6.643079972615287 15.10508632144761
As 11.731204612263832 11.00524152463649 11.015733720603027
As 11.020524759330778 12.964322487735599 12.365558393905609
As 15.888801980082226 15.937011067704764 14.739824197060198
As 11.676626874620286 10.183475001221447 14.896862452956507
As 15.031149718547818 17.631559215959864 13.150809318720444
As 9.946786860632558 16.072073344383444 15.104808910663811
As 9.876236511261096 14.089329865289288 19.90106324738074
As 8.806724816383502 12.24459251391835 13.143668046679498
As 7.8808400635645315 14.397498400976716 13.71904995119834
As 12.657408369098489 8.52459088962652 16.382137852801204
As 9.40552176618197 7.370751296693439 16.020700064974406
As 12.876011371087811 12.34985046193291 15.13493036337604
As 15.048955341408442 11.473470830885995 16.202047228076214
As 15.088047852155814 9.004272186818032 15.938525865958258
As 12.229470741250596 17.092253681780168 15.902841116950093
As 9.23952946054534 9.828504949986804 15.388501859002576
As 12.172366243935784 13.573833209612012 20.590287828849327
As 11.241343710986941 13.49605018945911 16.66075116827911
As 11.705996635905361 15.739814811427465 19.46269774203961
As 11.096962976313728 12.223658314213505 18.780473458070635
As 12.914397166595425 15.191251873605617 17.358360919702825
