54
Energy = -240.97990615 eV
As 18.725620121603082 13.680150640192975 12.96096764964493
As 4.625232529715781 15.166839076549838 11.126942913553556
As 18.55428514520142 15.886140626661867 11.821498660411061
As 8.098414462257836 15.129080776040288 9.807071609670599
As 18.748182914134624 13.808028891089783 10.493142299848959
As 5.454958805677121 12.844732912599722 10.764212350895427
As 16.84976170539864 12.709289160155045 11.674062237111222
As 4.948336051950021 13.676992094327325 13.067147471506004
As 16.046758611541065 15.965662780173696 14.515219236472575
As 6.122420089306238 15.890985312450706 12.99793631243673
As 16.16694531729865 16.496415358917385 12.045377226598545
As 15.412526876497493 14.72600073963543 9.052214084738477
As 7.913384233869879 12.790053756176496 10.29661309502846
As 13.629823161136649 10.001278974639598 8.070951726092325
As 8.363594662048795 9.081586351216064 8.443709048511927
As 15.334400954535443 9.791885890630235 9.993930977316376
As 7.660381454530024 9.971526781111217 12.795894125524546
As 14.592469737827571 8.215106285627336 15.61261486676973
As 8.975164565154286 10.135398845039322 14.930312427072943
As 14.062826166126232 14.453002532283417 14.460077106753454
As 8.191377119582574 13.524739193859324 15.475188570861292
As 13.582773930563265 16.266917819103558 8.417388065245424
As 10.288834905262576 15.178474309812172 8.593473210296217
As 13.721411356030153 16.654746025541 14.964998906671727
As 8.994126503167347 15.724377927696972 15.107594777872741
As 11.93428021909046 15.899122343540123 10.298461425227893
As 8.539639773814791 15.662988355746087 12.400259039173376
As 13.367048640982556 10.962360427910705 5.645409281943867
As 10.940820451620722 10.504581024697142 5.958020344243163
As 13.660004689917658 7.688057635993897 7.4685936862313484
As 8.920464702346955 7.140859967083892 7.057218737260296
As 14.60930649611819 7.4568919470893364 10.008893377371566
As 8.981788513309308 6.99824690214799 9.535725670878092
As 15.140520735404346 8.472566828811198 13.147845422167522
As 8.86623384669604 7.9968740120745805 13.645549582079523
As 12.834899982109706 6.638027005707505 15.064535192662866
As 11.164447410656546 8.593244062046782 18.262704001136456
As 13.924767864362003 10.429181953987294 16.502939714656637
As 11.594158458163836 10.850664304288747 17.286194471419957
As 13.451135754850288 13.829345662658854 7.82195015721195
As 10.654671791413689 13.889440256034836 15.345894765238512
As 12.531041982151278 8.762085254333565 5.178178181949463
As 11.065766638695726 7.696007472996396 8.224308886290569
As 13.040638375265852 7.978950334806791 11.91840292952932
As 11.070514137993051 6.903851859691733 16.491438839628042
As 13.246872881668622 9.879527942192123 18.831943205839966
As 8.505562302603186 13.203534422766172 12.779486203824716
As 10.855413549704972 10.172942780908564 8.484846936512175
As 11.162556678753315 10.649620685249323 13.744332211015278
As 15.036078499900908 14.399632223230038 11.495196363214864
As 13.897378257711338 10.32301871681486 12.033850360484054
As 11.74745538324295 13.486484366458473 9.667603295149679
As 10.991877732725026 13.037385369333219 12.97442965307682
As 9.94784810354906 9.431288029973116 11.900895935730993
