51
Energy = -227.67331489 eV
As 14.530336807306975 6.1753976487950935 10.208382447644201
As 14.401630009186967 9.107580214301558 8.57911000588655
As 13.969578504116338 5.264661760601799 12.483175383425893
As 15.985310745514056 7.847166080712775 11.437627897685706
As 11.871964556084887 6.955823638556488 7.635160469270313
As 9.65707789925943 5.898666718848984 8.09985564201862
As 10.029295635258746 4.842226657516186 10.333210546710045
As 11.50689612577314 9.053411418690056 6.274505842703595
As 15.288695969573817 10.200261637961853 10.64946987852719
As 11.445482429177158 5.217589542694538 12.790614131526718
As 14.98864251418444 7.2326183467877785 13.704992556553293
As 12.702174631142507 7.817321090796471 9.851759401874938
As 11.710902529027576 6.361574010162258 15.072890425542735
As 12.477605828736952 10.617278230699192 8.048796724974393
As 7.181690918980955 9.703748381474703 7.0705664488778135
As 11.57297595839171 7.792495470547673 12.996671795322367
As 13.532333422161551 9.283578201596697 13.585046625709056
As 9.413623746207417 8.285714193331462 10.925919603250394
As 7.710597493543138 5.452455557904579 10.825418653766356
As 7.905835324350436 7.352035407158301 9.150221521841306
As 8.221289535986534 10.968702039210452 5.1683963467735285
As 14.17103814385501 12.378096111348935 7.414993562096223
As 11.26311054422475 13.056185604509952 5.716944508347459
As 9.58710303085701 10.452923325608703 7.180775716294073
As 10.03489105434174 8.177267354967743 14.945039453409287
As 8.18235225342154 7.149952420309456 12.796520532385792
As 7.184541572702646 11.931784774854282 8.406885984641779
As 12.112567852690118 9.750332812024512 15.551832011002183
As 13.586562259429405 12.767729364093581 13.115773716856395
As 12.755031679330703 14.434169361698345 6.957489212758734
As 11.290037643760376 13.998545906066663 9.0834060301942
As 9.307326971725871 14.483062063875334 5.947936558582348
As 8.450470118694001 13.901727303465602 10.485713748700263
As 7.23172111112713 13.040883711532192 6.143755714611649
As 11.871681445106624 12.171738388398042 14.880805185987153
As 6.087473858211652 9.733318982856385 10.958733829135916
As 13.02918744007712 11.273924445363534 11.10922071640356
As 13.829985638877334 13.22232966606543 9.703992588045377
As 8.33768167542552 10.354583164967814 13.564833591918402
As 9.975850177007553 15.884919831078072 7.831462484748693
As 8.448238510574035 10.563954726023253 11.070748503012249
As 6.338596833680478 8.807144284071867 13.278583367893779
As 4.89806375232611 12.546687998372832 9.007064061423307
As 11.765107206854996 14.523128999152917 12.985126991064067
As 9.214449001778526 16.1177340433024 11.40642525462112
As 7.942631718044883 16.008356647042977 9.271388365899668
As 11.64660646578984 15.76962153625719 10.811075723255973
As 10.30357853035961 12.471270920968447 12.921518012220478
As 4.990447585167839 11.959311588587004 11.388552098463446
As 7.990544080536362 12.816421020956621 13.984322544965071
As 6.587465536310099 13.777755729631764 12.140517293952616
