50
Energy = -225.73937567 eV
As 12.610113048302031 11.156801955297587 6.379602494783899
As 13.192082507151241 8.973432870728871 5.361137668101664
As 12.923699980489237 13.674155707938702 8.91796082580245
As 15.259391197119687 11.26894740073208 8.676231996069115
As 16.056881924152478 12.170757359543975 10.901912502390594
As 10.352431748188026 10.287212021999318 5.7169976439244845
As 10.173966238652552 6.653382967599332 6.850436322798973
As 9.58306453090685 8.94407201669576 7.679705532846658
As 13.089250981509776 7.038226212983446 6.6377980258248925
As 10.736578973964992 14.55943203511199 8.11112604293777
As 15.031715606470277 6.753606452775177 9.636431499797368
As 12.722330192241769 13.978924475405005 11.37691293586081
As 16.5379086727585 9.82191448243437 10.231458236297534
As 13.781508916470406 11.773558544993922 11.814865750416118
As 7.577261988709995 8.594561119641039 6.264043501032128
As 6.536406701179278 10.874350657466058 6.328934441894628
As 8.652458203872742 12.199465010597073 6.035025579562375
As 12.94052183112306 7.90039895947274 8.945527171397194
As 12.717955373346964 11.151569204854114 8.905237223542247
As 7.886048229495329 5.431480506557067 7.137110718582697
As 9.729004426509599 5.127236737812996 8.762183968350918
As 7.594856933128544 14.914572816849322 8.521153316481056
As 8.90651554137195 12.788101207875927 8.48503718577525
As 12.831276399967974 5.685153906447962 10.10406320305104
As 9.532986185375277 15.875516564894271 9.824428609951974
As 10.642068485803224 12.655536408340938 11.81386974398777
As 6.415687269041757 7.232967703752025 8.029914144008341
As 15.432298581194614 8.123992736349322 11.693668314204242
As 5.180596526729767 13.061703877679955 8.563607999708966
As 8.506316026410577 5.9464878055218 10.747846325484831
As 13.056255698470586 8.800051946789836 12.03995447212835
As 9.339087157029704 14.738061129244649 12.1040192805389
As 6.5594075704346775 11.193569145460446 8.807068878104674
As 11.331540568127533 12.85347719907286 14.224155693389864
As 7.526379342585569 8.147424950251198 10.092687942628713
As 5.941421180666631 14.59923453815658 10.349233605425798
As 13.642637005440559 11.872797722118838 14.297678073295966
As 5.066844336961833 10.952878249248498 12.413813407029677
As 13.440923584412737 9.351433785828352 14.460358471673564
As 7.487500887085441 11.19813822596042 11.722274365002846
As 12.446945647543172 6.372610143342077 12.476577111466934
As 3.7963557752395634 9.162949358575695 11.252441874792124
As 5.4866582648478275 7.333262439557488 11.33585112189749
As 9.918302134869593 6.607586707308068 12.72707635610484
As 9.943338205814086 11.176634633510044 15.428123803321347
As 7.103886788702887 13.613484357426847 12.318319473800138
As 11.02707623161392 8.973424122563062 14.963354768384166
As 4.938240788798416 8.654829762670456 13.386809662400378
As 10.085783824376401 9.10115295039703 12.661118913617427
As 8.165030111922546 10.116277230746926 13.921652126709702
