55
Energy = -245.6399441 eV
As 13.137296654131605 12.16448457061421 7.379076290988055
As 9.646401512606685 10.283374958767096 7.908045763909211
As 11.419150240164813 11.400897370679042 9.041310610970722
As 15.250844625184854 15.995386805385316 7.952233274683287
As 13.426565100624629 14.483878523017852 8.430937042728356
As 9.73022350706671 14.644627113129614 9.194197705085651
As 15.050207796499404 11.100101940871815 8.614005786865276
As 11.50720482902575 16.278325017725344 8.615788649210682
As 12.303181390371126 10.213052622463675 11.119308106292374
As 17.235486374742052 10.931352311024096 7.18392705140087
As 8.604298033923111 9.76743825901378 9.973799533847405
As 17.586043057256564 13.24108069038875 8.054973202998019
As 10.996178863428304 13.176494308611773 10.722023930269549
As 12.468736192464087 17.285079188461555 10.63693966203659
As 14.318401544408543 9.120853904987968 10.025299969571764
As 10.344657027429273 8.587791058701196 11.323600614723398
As 14.913747141356563 16.323236687260376 10.327751887830344
As 8.209866151745272 15.8185972639167 10.766629643763766
As 16.197673665258247 12.708228111350534 10.112763834218548
As 6.99775107401169 13.732117114819445 11.326186810637514
As 14.038563740726994 13.977764663281278 10.766886875578168
As 8.712294601045716 11.88653535532136 11.583145550627181
As 15.187730737964715 10.356074516305217 12.052657896432956
As 18.691878085664356 11.275035149049556 9.02339717609487
As 18.3507204387072 17.22511276690655 14.361726853463189
As 16.428798021709557 17.845472683281802 12.941815612890192
As 9.124426547026856 8.988508160060851 13.582466850806677
As 7.133347239560845 10.427331903695908 13.058120208126732
As 9.710644005998482 12.753231337071691 13.828708441944952
As 14.208830432082936 8.664820777327522 13.599845032437758
As 16.621147038978453 18.664227810853983 15.30405335856783
As 17.39581790865965 10.110990084254988 13.298680142314602
As 11.709837766352976 15.616941890075667 12.36568438109598
As 9.446938324347608 16.664465113200812 12.799781854659884
As 15.229872372061854 15.688207375670324 13.58886236964005
As 16.5048669280031 8.16215543062231 14.615303150636054
As 13.02444568827276 16.558203050572576 14.329321870723005
As 10.791787266814953 10.5561634644543 14.632096073621723
As 7.531405487677073 12.096850444671114 14.833794478725425
As 13.762498877959823 10.748019387657449 14.84284667824438
As 6.621085167762235 14.214696618969167 13.74731859168794
As 16.1825356221342 11.634828939859014 14.938405632433552
As 8.732611241000448 15.169228369065838 14.60174298397097
As 16.404356968090205 16.201817002456302 15.728097754518375
As 12.531230299285996 14.50037336884396 15.782977604776516
As 17.00184575694483 9.836720115183443 16.41795038981653
As 9.999081886494741 10.754471641161677 17.005593740768887
As 10.439533237424197 13.207019561179518 17.3686757583482
As 12.776035048086033 15.540360863106011 18.050212129605587
As 13.57720944790486 8.844641555764467 16.66714684053042
As 14.65943878249995 14.372579424467053 17.04975062761559
As 15.190182543742292 9.847647438988387 18.206929211317313
As 13.524590268953942 11.761395934499207 17.586085920602653
As 11.956715468009977 9.908156538186038 18.252781250463652
As 12.09476067408643 13.324532146479545 19.11931603861634
