53
Energy = -239.17409458 eV
As 12.005834787313093 7.075707844902303 5.435629423021677
As 9.892443962756 7.999366316060133 4.4805963957124995
As 10.593926323481798 10.443895366346629 4.268151461371475
As 7.015039161252445 10.548115882919186 4.832939845491807
As 6.319590272176274 8.290625689981555 5.671453719336606
As 8.224501045600254 13.345527555270726 5.450132448869275
As 11.15131528193639 5.088939356812646 6.685610398916364
As 12.80096658469142 10.966197870848488 5.351037062923709
As 12.641810413931406 13.330002292477642 6.266431279351548
As 5.562445414325485 8.755325931927278 8.031603864354695
As 6.09205738958067 12.358204794607534 6.305953547439358
As 11.589922834546057 7.228721679904288 7.8898631477360635
As 8.602832075077396 7.848070202182057 6.6448683302049645
As 9.087466503519403 11.082019069460621 6.118397064981511
As 13.996611477910553 6.622729356001215 8.221160456563695
As 4.850446567144719 5.38864276964237 8.157999293822398
As 8.752124981040081 14.817095156941406 7.375685650550003
As 8.702188381479676 5.341218979456577 6.243681589102132
As 14.081125703540852 12.35270218671794 8.116437688169674
As 6.89001922076094 6.4256422673892315 9.167795561335923
As 12.828984673655974 10.21620184976807 7.7233434058291905
As 4.553056516997662 10.99612139513907 8.70510588721948
As 9.828025233094587 3.807541506021679 9.765647322700545
As 14.938541305339367 8.887911847292587 7.703244099820312
As 7.0304588892611095 11.570549389391484 8.527385998207095
As 11.052478603373718 14.091631447584183 8.046947399080333
As 3.455656974724827 7.513929332964902 7.93475156005543
As 12.899762520326005 13.033602854981492 10.272646247978958
As 7.856897170188988 4.207610858206247 8.375556818690729
As 6.3213709284310875 11.93051933808911 12.366356508179859
As 14.720952118252233 8.143099338955206 10.067411757576856
As 10.674255864152672 12.142978713979282 9.540757232821074
As 12.135785110740281 5.753908506451344 11.278588889738208
As 6.661841173643916 9.63265413247283 11.3801285095845
As 4.236645074886977 9.917594758096566 10.961967239870738
As 12.580902840356805 9.19100956561199 10.883165294292489
As 7.361404894547612 13.949894664184756 9.304185284643404
As 9.38722839739555 13.88789801913751 10.786267353237248
As 9.976707929654502 7.0543587814513975 11.0591341151887
As 3.3742776384065114 7.57516656974902 10.42717862359478
As 13.26539863654704 12.062345750251305 13.746958042379816
As 5.030145920566427 5.659975829391681 10.633214903221615
As 9.718682844892319 10.541777181763411 12.849750909596755
As 13.97213712872202 11.149523580731767 11.556165473052753
As 8.834679169773691 4.8849138754834875 11.732737234233072
As 12.953929089701164 7.617227820707089 12.80642826294437
As 6.173787723352567 10.9434075324979 14.671811823961765
As 10.860857702283827 4.849259298300838 13.270953540186762
As 8.583412481695925 12.758013458397379 12.905904461300324
As 6.347473952109934 8.642010479031285 13.678093455648042
As 11.200383750795424 11.566674095986992 14.57479588893793
As 10.531381160687223 7.370372390526712 13.517474947874062
As 8.326298288820636 9.668035356997224 14.75698336854227
