5
Energy = -20.69734342 eV
As 9.450929857388294 7.233281334272158 7.61070979823705
As 7.507593009416648 7.41391655545223 8.84409358959861
As 10.335194749440669 9.377861784944619 7.950929889037499
As 7.480916955748599 9.454838410958738 10.097701400508932
As 9.39089422153792 10.675711627016689 9.667137185766473
