5
Energy = -19.41974056 eV
As 10.436646297836559 7.898824237598776 7.745918348020761
As 11.347651717068796 9.948955598337957 8.341382838516704
As 7.140273368763605 8.218292567053643 8.231389258747937
As 12.774336142948107 7.921465256534783 7.9599717331702875
As 6.89384113420483 8.675930084309394 10.289270786261431
