53
Energy = -236.53319988 eV
As 10.04352334711575 9.96962074160742 16.001708348728133
As 11.405696373988452 7.078034049128197 13.40236773326245
As 8.051921147688471 6.296619042260778 15.075056046561444
As 9.422012154368462 8.268657868926724 14.316982284155475
As 6.642124246717959 10.45863892775541 14.045099773108708
As 12.36081062908619 10.007756438060225 15.429866335416225
As 12.204851837621472 9.352501256409194 12.663463783498601
As 12.206806748349404 12.455463403060103 15.983976705175142
As 14.72113624655296 8.872223822898183 12.39621169189187
As 8.171723235653692 5.146353412820938 12.885991863925872
As 7.7630583997620235 13.585268512199342 13.404458962464822
As 14.179403449570536 13.664819288870008 15.064077477467501
As 10.739062686571184 5.057648176685452 10.087706507367484
As 9.673102243095753 6.825333859620455 11.539012572104737
As 12.402982397628673 6.925872604348971 9.820555391335429
As 8.969194722605296 11.350600481210094 13.815052054030241
As 7.187057888929236 8.770970697576141 12.275633726281658
As 6.2706212488600865 6.60133768660295 13.371053286531549
As 5.841998525743745 12.292838412867747 12.534904740790461
As 15.078430651974381 12.824487280860968 11.160561356512346
As 14.820271336644096 7.398130840702047 10.380655304640637
As 15.763460262317718 10.4291774365502 10.69733465499878
As 12.073001781295275 13.614211934749388 13.776321675874756
As 13.891285459298164 12.014778783036885 13.217357571751965
As 10.918950425078993 9.252689940166816 10.37647509378722
As 7.25276471510579 6.153059870729231 8.036213314131583
As 13.952657149008195 9.420070454218099 9.190233620990929
As 8.936286868365103 13.663411510038449 11.13523464562398
As 7.675484072803534 8.228970385367447 9.322104395773824
As 13.039928899480952 12.720143841563862 9.738748491673993
As 10.477499165066325 15.695931946637774 11.387516593047463
As 5.552581665116455 9.145988287611495 10.356763349797065
As 10.330820969497566 8.020817999008644 7.449228426606654
As 14.460564619629398 8.369791425040715 6.926632525386952
As 12.783402227781206 6.6481563438358995 7.42515492714596
As 9.053192176718172 10.64868513295314 11.219457466795092
As 9.724488803728171 5.612599122129126 7.814570653363977
As 10.834117322125774 8.44463977643062 5.01826345462957
As 10.242007286726595 14.346183286016467 8.706361243332546
As 7.242784997338027 15.088194989903975 9.881959603462658
As 11.881007677809823 11.243054915478897 6.672241599330735
As 7.659219536036936 8.310394305521521 6.879430929562297
As 6.731204044736242 11.334371206891582 10.186600416933384
As 14.177425852728277 13.846968471563674 7.803145680575591
As 6.463345032704702 11.85076168461041 7.509488261902903
As 12.409024563553745 15.158989835864974 9.666049039510359
As 9.235994939565028 16.507195626319856 9.334428310949622
As 13.071723496670293 9.601995293640478 5.196501842151807
As 8.938771823112369 11.401763911581831 7.326890840576602
As 7.014227533217781 14.28072236749078 7.49792811390972
As 9.986782330848076 10.826575153614447 5.0657543290931875
As 12.889134817005974 13.345096428392084 5.926433840739796
As 9.275498408986513 13.758990644118096 6.453011741392034
