53
Energy = -235.7807741 eV
As 15.594994586136762 12.561957835584142 7.038334446968297
As 12.193806069188303 13.780390685880262 11.811336942851725
As 15.988304732075568 16.94761563816605 14.38713406793533
As 14.845037569817011 14.563846581364814 12.452550605258947
As 12.148413409449748 14.44736049495413 7.890134705907764
As 6.842829399119432 11.43487690279337 8.26523123498898
As 6.632625234563982 9.552019745648538 6.695915714087718
As 6.643799243085847 5.605553419646499 12.048544814695171
As 6.175497449236772 14.860488765897012 10.117148104977069
As 8.172126907657677 16.247536747428207 10.489392326343808
As 9.441583243036291 15.30433043537743 13.751358660905737
As 5.945227925160253 17.118359657832798 11.065373681138894
As 12.578689821069318 15.660780017454892 15.337991342395375
As 9.782110706343467 13.856138919231366 8.205906503581964
As 10.732335187201326 13.941703441996555 5.938007424549359
As 13.705577576406442 16.649551684812092 13.37719236223577
As 4.793839270008365 11.166086408520059 6.930075184072933
As 6.892292170579286 11.841974478743825 5.837884703372258
As 6.500421165996403 9.675357341813175 11.583450187597599
As 6.56980638463872 16.833977109977212 8.702735215138574
As 11.354734754655576 13.788247975833027 14.090301188521003
As 6.524546171049151 12.906817257346072 13.139754390577519
As 5.079451129057277 10.868541655935767 13.305884008350896
As 10.489357623615138 16.96084282273256 14.97529928947639
As 8.244189695956647 11.14399057437399 12.667357749916901
As 7.07381040831532 7.826833197092583 13.192345953598865
As 7.014067701190713 11.21974566309644 14.853553660527236
As 11.681989228241639 7.9956794698567695 9.385354787409257
As 8.71833831222693 6.858753141503313 11.585127551415097
As 10.81522383812427 9.937387028867192 10.463555705542307
As 9.30918252069759 8.2204080097095 9.426737776105053
As 10.165202175280601 7.482927605114306 14.545171189504233
As 10.211668407537019 5.493174059022563 13.046990106475386
As 8.031286567918523 4.57916601600669 13.818543894097543
As 11.351399889639714 9.10157682895828 12.95022643963411
As 13.517310638986807 7.855923338878094 13.19098299878428
As 16.601772398997543 14.537641168762665 14.28667437415792
As 11.677904001729003 10.26251683591182 15.179142326684568
As 12.49430469123093 7.8744623868270125 15.494616281797741
As 13.755570127627134 11.467736524170565 14.52731115939539
As 16.687920971339167 10.632828928506129 12.48580333000576
As 13.135022149978926 11.520795888269136 12.111491836853167
As 16.736050327991475 5.045097938763742 10.665216109646465
As 16.150534622037952 7.341736527801268 9.994342984717335
As 15.205101131012619 9.51558708009266 14.118852208824526
As 17.009987289791326 15.973241381628496 12.352380906662278
As 14.40747484838141 5.607529600657407 10.109454757819574
As 14.998249424923669 10.648534597453047 5.615604485095998
As 11.4009123276598 12.141921659986885 7.479941134277003
As 16.110013770029152 5.5196277246680046 8.33623815225012
As 14.93411353931573 10.435974883586566 8.073599712155012
As 17.092027609429895 10.61360576090118 6.910183819635394
As 15.353037527933143 12.082313899911142 11.207335755735096
