52
Energy = -234.47038528 eV
As 15.085770864317334 12.733807765587763 9.261683260692546
As 15.887627366458156 11.344599385648882 11.140738675001696
As 16.33424960314426 11.5406665972476 7.51665697694321
As 15.301562956116564 14.39825691040959 5.501998605473612
As 13.68831759280234 11.832009946717937 12.266174332882267
As 14.797995337873749 11.97857848812708 5.616257040774088
As 15.338229356484629 9.036941303289968 10.3358913995005
As 13.878751335214606 5.80413155365183 12.801237926065053
As 13.60047051754508 8.263482295306327 13.41788811677182
As 14.057140913379376 14.284513484877657 12.016070617513606
As 14.04320896692708 11.458922505435176 14.736181178190323
As 12.746286793023238 15.250522934837818 13.899660566813642
As 12.847598940808043 11.70067991548288 9.028670450778932
As 11.75368455726068 5.1830165830063075 14.052899671642388
As 12.533505487557758 6.382133048163751 10.743500365070993
As 13.1370506537291 15.444799681954265 4.911057327177572
As 13.377420314452268 9.29656341211624 8.830125395343664
As 12.505745436238032 11.942986095378323 6.591601071965255
As 10.479761214822025 10.690853916923082 16.742953679269643
As 15.662240796312732 9.185200946948974 7.868034463900273
As 13.979772458839486 15.578043271290195 7.238721328603762
As 11.813681745897936 7.522591713647314 15.017941768282178
As 11.649258619620305 14.93975157834873 11.686413661898644
As 11.753380785334826 8.618320575058913 11.70593324820262
As 10.23348483573938 12.908106918753028 11.832325255079537
As 10.782390900835951 4.907343193779907 11.699559246375461
As 8.306835667162613 9.92668948394651 9.82568530345567
As 12.660217262394736 13.374004206811067 15.536771276642751
As 9.374132342852738 15.696362203898913 14.647391691236317
As 7.947819314243472 15.986034455569328 12.720222959380193
As 11.537133034521451 11.390367283707697 14.567200179683308
As 9.960008759834123 7.831459305686 13.317746760615414
As 9.558697933030142 9.62478296388169 6.245979587664864
As 8.654691679930277 11.377263880340697 7.813917744635465
As 8.58026124438855 12.248500259271479 16.439393810287548
As 8.34006041119438 9.860752581753047 15.777470444109523
As 11.894884148192277 14.332700819665542 6.746145464544843
As 9.084518944032563 6.648615977055576 11.00420027768721
As 5.5956347412850915 7.799762899657407 11.297793941222903
As 8.795700413355693 10.073895543736466 13.31371339520222
As 8.749148605664418 14.405764344409564 10.66126405352946
As 8.972772568828667 13.368885311212388 14.187358048290852
As 6.914105817947122 5.681551581156566 11.548375566374911
As 6.672703175907779 13.989224405095175 13.477618572003815
As 8.238787321856755 10.67507725768308 4.409405241500823
As 6.336602467061096 9.656652191350002 12.831694607507256
As 6.653245460673835 11.107484941701887 6.298118143507047
As 7.264254961100787 8.787280747049317 5.648569055170182
As 6.608201356883939 8.239155371811034 9.009957421751912
As 7.6093026652230815 5.903008988542624 9.119984449716394
As 6.489532634483983 13.403774216958565 11.060418769510742
As 6.195161877110917 10.936223139402504 10.695913213350341
