55
Energy = -245.0108612 eV
As 11.017490965872694 14.319331303470719 6.531445039030213
As 11.535313449145224 10.805904978128668 7.369882382304602
As 11.49509772801524 16.506876391138665 7.617197073582601
As 12.359239008135617 13.018115783948064 8.11079111110112
As 8.559797038413711 13.826439543238212 6.816036194383509
As 15.481839686356905 11.934661318873761 9.442780052825821
As 7.86590090984791 15.51533112411961 8.452068257924816
As 7.787903438937808 11.845107169203468 8.240447734941199
As 9.350289380190105 17.429911093538916 8.229069040798674
As 17.8573754378399 12.73397441614052 9.313378240608923
As 9.543237790243051 10.088409107264594 8.683613544030266
As 15.397747704457533 9.767299999999645 8.169078440107176
As 12.938161822695145 9.244862677234531 8.70279847294301
As 11.439882024084193 13.653029736786287 10.369288839321296
As 12.40843927546405 15.86721894705099 9.929074038414276
As 15.625047657046206 9.766974483893314 10.65677647093241
As 8.998170512136197 14.358476550628344 10.342341038865827
As 16.995625878597863 13.409286381626366 11.579628743318443
As 7.403280646307933 12.59062346010129 10.56734360469603
As 8.880164299102717 16.242712596450055 11.924439438768946
As 17.779730913598442 9.596269837720444 11.923996447280159
As 10.138963215018807 10.835981119586046 10.989203335099495
As 18.864189371353042 11.788544252900158 11.406721368338296
As 13.330154974325351 8.155280487074242 11.933873472060345
As 8.60299688981271 9.306593274967002 12.323259979452535
As 11.118775771498045 17.280478240537246 11.523566669268282
As 12.617469474379359 10.316769940026262 10.950778564590513
As 11.682583723072446 6.740345364549477 13.224327465388937
As 19.363874610377472 13.240458473622482 14.093818580190701
As 14.130711092528722 9.095903945132068 14.048060411230002
As 7.766651951965538 11.261042102949014 13.640578200412403
As 9.486855924257194 7.694565921666961 14.031691771325528
As 18.20252663477528 15.141301691988918 13.03456029212122
As 11.717312696579336 9.934648117533778 15.504313859477028
As 16.053984453548733 10.618011388437928 13.484937014512896
As 9.890200121536937 12.639015420682673 13.954228639439378
As 13.077671387711959 18.380243484801536 14.347328446386879
As 12.518076198820793 16.192286096562256 13.308248678925061
As 13.5363679341186 6.728956215864206 14.923007582648033
As 14.646308637903909 18.10732838304541 15.975613064756194
As 8.908943536270316 14.978639500887006 14.094760438531841
As 17.600455783042648 13.231181595402706 15.817442677882953
As 16.071205995456673 14.502872033549691 14.293074403539377
As 9.646466088487262 8.791877612714755 16.27842199537479
As 16.54537936422947 10.95848424254355 15.95765317336283
As 7.831151685122288 10.519671048199873 16.043008024688845
As 8.985794115857312 12.734137161004982 16.290367516093536
As 10.849349678666254 16.231693161385532 15.168575279506733
As 12.39184521436361 7.882962989014356 16.755757086925993
As 15.823216948798116 15.935274076451881 16.317076101533885
As 12.766957677249719 11.119625824992736 17.441748274525022
As 14.150960020729658 14.302304937668618 17.243936906474005
As 14.331032968223957 12.228571973874335 15.734151348062083
As 12.102151544174832 14.109117199404738 15.728213001591994
As 11.051105656150176 13.01644272731535 17.68764907699715
