50
Energy = -224.59206227 eV
As 9.548364736688352 7.420569136785912 8.243018122154828
As 9.746992148462548 8.059512324836644 5.812446844611256
As 12.035920057601826 9.038880119244741 6.1265988373658224
As 9.181126526494099 6.374928883421913 12.446664312582863
As 5.964021282723957 9.394677635951334 6.228129889415956
As 11.108304866264662 5.758666192800155 10.91478349221667
As 7.154322816937164 7.424855716973747 8.980047069482563
As 7.079873546265456 11.174555777131145 4.907962461063669
As 13.066115780605687 7.569612551813768 7.8941113774629175
As 14.610770054840417 6.866087536265038 10.781835257755008
As 9.502770317491107 10.465924404229327 5.123440215620083
As 10.854943623632794 11.067552964051657 7.160780709198382
As 10.102127485079476 9.359783652295173 9.71531622361505
As 14.754283102020759 9.427232444278006 8.097602683401842
As 7.127966298346753 9.835480513185908 8.352100733001704
As 11.089929213111626 7.529589224530154 13.59829224666434
As 4.965755673378636 12.856615092574868 7.794507231767156
As 11.854270193132693 12.871261459664344 5.678690016923696
As 11.872334533849372 5.16654698406468 13.285945463197853
As 8.240927466787607 8.286428584868796 11.090251928482406
As 16.103865346576203 8.645611455631 10.090677611431417
As 4.714698363554417 10.399202859879638 8.111462885420906
As 12.2787654653495 8.046366334272852 10.277675173694647
As 6.8035049568017385 13.315345216188582 6.157572469799747
As 15.288608732381702 7.245581167571066 13.084854882395346
As 13.329984412966969 10.552747506151633 9.784758692127507
As 12.251935468681745 14.965064620055479 6.943078954181295
As 8.718257674802858 13.319571037288636 7.737712267145772
As 14.017947107416106 5.789644848050849 14.326983196231394
As 10.015453325997951 14.559939038623819 5.908568575138965
As 7.8866431086074344 12.168703390747387 10.740275850710864
As 9.635669372681786 10.415137720831586 13.363777506685404
As 5.897741555825242 13.608792568262597 10.006301664015622
As 7.100044355715732 7.889365813198298 14.475244680293283
As 6.35561081083142 9.238442112022845 12.656928221164643
As 12.751835528001088 13.796088617642921 10.87815209569879
As 14.124486397730825 10.22977892119902 15.226886726573792
As 7.691060589853926 15.146012062073972 9.140547091452957
As 10.612082155628482 8.00396398553127 16.01695756192736
As 15.213284664831505 10.692810001969658 11.352831644693014
As 13.380632242544737 9.811668154914033 12.880493980366884
As 11.15353607542453 14.540044652007674 9.133963695174078
As 12.086259696910668 16.18316346285227 10.753823490404985
As 8.484553003844491 14.491594285131141 11.440673933446044
As 7.368861158080805 11.48140600734849 13.107352158243541
As 11.898344965551418 10.136900943373593 16.3681083046438
As 8.673817924137897 9.490420182454482 15.492783301490123
As 10.887719696052242 14.660009668468145 12.29627256532635
As 13.197013535455014 12.126321404834734 13.839467396116383
As 10.91385844412858 11.934124819642772 14.877926679149532
