54
Energy = -242.11722714 eV
As 11.883020052242498 13.972363820725858 5.712284111290264
As 13.6061956815911 14.906677320618256 7.243941485477295
As 12.479575473179262 17.209826477356458 7.000503779488416
As 10.64840162217815 15.50664786499006 7.325915467654158
As 11.80393807554133 12.124309875694685 7.448067828719122
As 15.719722237616695 13.39680935892285 7.089830326726637
As 14.188338038105167 11.3945207019398 7.019701762914364
As 17.02280016834752 14.199267877515101 8.998107102990705
As 11.963574132778435 14.073800842913196 9.011380930011955
As 10.830135931887458 11.310125014973522 11.192837835110812
As 6.946617859451511 15.54334564207305 11.874772734575377
As 13.347660250981814 18.191349291903066 9.062463207727928
As 8.541086482928497 12.150493203586768 11.723089340581982
As 14.535137140853312 10.250875540244568 9.225258008252936
As 16.867696636359558 10.881881843775316 9.662560304871258
As 15.622541728241016 16.755788018946273 9.032843650700698
As 10.069012138413896 8.929742462625772 10.894675018773041
As 16.592709899614196 12.940658788639837 11.097326543105563
As 14.065467233811 12.914970175922099 10.899551892205594
As 11.92510450571559 10.326776614334072 13.226533209206524
As 15.51301290220495 7.970498763599018 9.060120704468556
As 8.999371308099844 14.467011352621997 11.01868802718215
As 9.126939416718333 15.951647272718528 12.99886839744256
As 12.527951858796865 16.98881034352061 11.077021111572291
As 14.423910569935167 15.37412495640788 10.837980629704278
As 12.221326299838115 8.182692896519187 11.92822064171836
As 8.003324443264034 12.317443702617943 14.13703776006032
As 16.42823119700379 17.917176321012818 11.076104682581002
As 17.006217749056034 8.623436326252474 10.687034236671675
As 15.657756566020327 16.160300884134514 12.808102534125148
As 10.24781249056652 12.546934075501609 15.326512616872344
As 14.602024249276326 6.562219290399626 14.347967599610111
As 16.589594974941367 13.89300612439202 15.578463761589664
As 14.296840198120227 18.21468471860448 12.40771022582385
As 13.234266802574867 13.666648737522108 13.103112976336933
As 14.942699882625591 12.392553222022638 14.369242050391973
As 7.344607367768357 14.714048675131114 14.197523796228998
As 10.237531141563055 8.437001772900775 13.329685885889223
As 9.632491173504919 10.713042967011521 16.88063787272785
As 13.384218111749306 8.243022422138447 15.68226838311714
As 9.645099582303862 14.643602643242877 16.592954088070687
As 15.381466674028886 15.269959278942114 17.20960170081374
As 15.80140813532382 7.934222121349778 16.001880427039517
As 11.570698171312246 15.976949700290351 16.00377257966186
As 16.467114112239702 13.174366508974725 17.9589773009172
As 13.274128063249549 12.008265484723461 16.118859396065446
As 14.230991064170922 6.191953577964247 16.751995463751847
As 13.078833150459788 14.396755461435347 16.949978831912905
As 14.771561418306511 11.319126820243355 17.90474065498555
As 9.196641933587062 11.684423859797004 19.145568403988346
As 11.187849919150484 10.26581249696079 18.806405096753576
As 9.972233756491578 14.059023896515445 19.02040122042932
As 13.011742534937698 11.737284546209633 19.68105149250549
As 12.409646367572918 14.099996917221306 19.338143785205123
