53
Energy = -236.26113358 eV
As 7.2328193666647 11.882373655333563 4.770623759298103
As 9.04695970296411 11.72951610914314 7.709029494151313
As 9.671100306656943 5.498897893423332 10.849230412993279
As 8.925041555940155 13.211480451047601 10.649235800699344
As 7.711960011992964 6.657303995723725 9.770793595030927
As 13.050571121369572 16.619094485666693 9.535969847028053
As 9.422900929500893 14.140888615061936 6.901548867624799
As 8.925455752601295 6.348968653669225 13.12376435210176
As 9.809299287759057 10.661974332000943 16.422050603356613
As 12.536665731715773 7.718721290749318 13.487390163172186
As 9.047036744292763 13.645326126144596 4.503625890298289
As 6.819200227807762 7.1891808024827775 12.024522411883149
As 13.221828254336339 11.091737096441998 8.84910139907256
As 14.265960608741144 14.971715195188875 14.134275294858778
As 11.224777720915789 7.370441382276687 16.025883566129885
As 10.852139216174775 13.93363672379211 15.542742770593495
As 11.502905183899307 11.262150690077442 6.2155738536638045
As 11.07844251168283 7.471256199180375 10.384331259966016
As 13.559315956877768 7.185277393264905 9.97645188595999
As 10.629642450959997 11.77348983137079 14.34495033624248
As 9.619925597908617 8.760953542966385 13.080338860179731
As 7.683067755207805 15.183583796698379 9.701398980831321
As 13.780017256630227 12.625200398126937 13.520165774424148
As 12.214321357827925 13.672422501378094 11.832983597215666
As 7.51724139826372 9.670826597642291 11.929384306636623
As 7.046655908842355 14.65606526188943 7.342647486904174
As 14.28762166680533 6.0216706088191065 14.242775011776317
As 15.511259404614961 11.653371310434766 9.747505265411714
As 6.604357055277322 12.124930829986004 7.197304843508381
As 13.494107710151756 9.096641452228507 11.557943200259624
As 8.625874873230435 8.957721558179994 8.91828395881502
As 13.80499449110416 9.449414750310561 14.789458270199907
As 13.309517339374558 6.096012668087019 16.551441114594702
As 15.782862946813726 11.822702038711915 12.22532990240472
As 15.588437183336776 9.386100825227754 12.778407529113752
As 12.448582487464776 13.563136445123423 6.073479210366838
As 8.323122492322547 9.024545147950064 15.216880560657934
As 15.141146981504379 7.641775340141376 15.925533849920743
As 11.93827569175186 9.404790568759102 16.936406611763438
As 10.697530831704887 7.761138380339096 7.970151247570238
As 8.591661568456582 13.16207871439777 14.593262123053423
As 6.601946741862468 13.600520726372885 11.316699609555522
As 14.085229979140129 15.24143024584908 11.400553648784337
As 11.813949938711069 15.353286189810925 13.710272209238427
As 6.855095174931598 10.632766479337674 14.069979437563632
As 8.43989372663643 14.688865571882022 12.614411744004956
As 13.97774872922072 11.576072488813672 6.438648800963649
As 13.124318551517824 8.66371532566137 8.010406815815847
As 15.055946319585267 14.128533908908503 9.306064224706132
As 12.649057732876285 14.35878112200741 8.853706512703308
As 11.241631974488183 12.463548796856843 4.051986447875191
As 8.706620062160297 10.107395615633338 5.754906463895994
As 6.947381626952756 9.129995068960287 7.163612014691048
