51
Energy = -229.97768704 eV
As 8.924905871779925 8.50930548664839 4.356201749952599
As 12.387084465538146 7.93040629823785 4.308520022083987
As 11.792532357112128 10.356151428632913 4.485819736218562
As 6.66272623698498 8.038150324543897 5.33204331631127
As 13.579241981431796 9.382863238246575 5.932113076357023
As 5.429934617270099 10.878917261902167 6.518625530494301
As 5.366280675529448 13.210055349007263 7.226193117626043
As 10.379783598969876 6.685600995054673 5.160496734131544
As 9.797302816881148 10.18298613507564 5.999819659484124
As 8.579151106946856 12.183765781403508 5.057063176964229
As 12.117826140184714 5.379229761724128 8.055875595621673
As 10.340944599318753 13.979016961066916 4.7540056978235
As 13.897603417706616 7.180450631556422 8.512617502880177
As 7.004849805812051 8.146247600397967 7.794418517072143
As 6.816997000849263 11.560878712512496 8.45782326973364
As 12.52313033806554 13.413303261743204 5.790985183624126
As 14.191692800898185 10.702410526350139 9.061320828187153
As 10.138484133157295 6.850771814993995 7.6712888790035
As 4.525039490220182 8.362196442684068 8.123654086563647
As 3.4791494991883902 9.67468573389285 10.04747905492638
As 11.203694034560057 12.591796888237262 7.733720820176067
As 6.542038555174662 5.956535896334837 6.709968220809075
As 12.42317244305924 9.167531672442221 8.145917554287209
As 7.8778383008653625 13.385967185558759 7.139693731415919
As 8.718914870768886 4.813716204518824 7.218666828410789
As 11.00269018095399 14.949106781453162 6.971556371337793
As 7.607417965639086 4.090917982030336 9.342755155639052
As 9.311058961293698 12.992089964027844 10.619055545213193
As 6.859910674760855 6.304998015671491 10.302260049113833
As 10.0022173221637 10.571579353314512 10.73999958726453
As 6.5318050693555145 9.152755099870864 11.76447944779773
As 4.485439970032797 6.158574766243489 9.491136649893296
As 14.250943011939103 7.292656646341507 11.000498960788558
As 5.895752883493642 12.750264497202549 10.825588956605825
As 3.2431107632631178 7.458628542334375 11.251575556783957
As 9.433834814836107 3.963694412046491 11.037578911142297
As 12.176980191315883 8.590868838558407 11.416469486980633
As 14.35413168985541 9.769926195931152 11.37297125086037
As 12.94380451953553 12.849731257484653 9.523493707915145
As 7.67109035661375 12.621645554647266 12.416404761361287
As 11.735083182897675 4.758000039861938 10.449553217581999
As 11.538610237998796 12.354594141290171 11.56300946656579
As 4.7159152251570085 10.816988300698501 11.904663533884305
As 6.435164933082411 5.6568000865144406 12.713429563339846
As 9.981912823621775 6.3936462027605545 11.061168058930452
As 4.991898816651077 7.671700759015475 13.029593548710716
As 11.498763833293363 8.565903085090744 13.806772429107093
As 10.363047974410948 6.349202993802211 13.502078040489922
As 7.642055523393991 9.349017210362591 13.9596285320998
As 9.79249370398124 10.39456028510972 13.280924153488508
As 8.045112665647236 6.8597738490304545 14.269589620408428
