5
Energy = -19.39815734 eV
As 9.527957675051878 10.80299706041335 9.57162284449347
As 9.582678235105341 8.914549817737152 10.900246644547725
As 11.131359360759653 10.844605601741426 11.287352070058674
As 13.670506793913738 12.425680471519186 13.228775387589339
As 15.184971561356628 13.558868977610159 14.186163935878907
