51
Energy = -228.07691113 eV
As 14.8332562688139 16.23178575345763 11.878963940230491
As 15.73235840648481 7.472928795526088 12.057025098896327
As 10.971859808015775 14.961997170316868 11.150014050447783
As 11.017339836135807 12.952527761018779 12.680078471701876
As 13.101855272830074 7.912572384631415 16.413169665246688
As 10.242185110008956 14.294955697500464 14.617887310658356
As 10.81663367658784 10.029246576782011 14.262875897546994
As 10.033032094096384 9.671337162175744 10.552326910447922
As 7.913853482599993 9.177971816315763 11.866061778461145
As 13.50931121278541 12.796869871179483 12.90945205132782
As 15.298636625720698 10.542490261555491 15.337833268314073
As 7.48780414334398 11.801855144792402 8.267504465067354
As 10.453718979429286 7.2679196740686525 9.99274279759717
As 12.508465894045404 7.538115647747489 8.62418465664589
As 12.841572812324658 7.037804189650032 14.068721213987914
As 13.258169676744753 11.935852174078924 15.234016785121709
As 8.69182125127408 12.477171170650925 10.389186586345097
As 13.423934086431892 13.397320205653896 7.451297607866417
As 12.68142857867145 6.730323337519907 10.9773716997443
As 17.65617848861456 9.051015332436348 11.763225687976107
As 10.671381850894656 7.276214327787034 16.57431072144971
As 16.81791422686513 11.653081678910166 13.71179513946573
As 13.131809756529695 18.10119779022837 11.841549226442838
As 14.176656563250004 14.942187481846238 13.914148087809615
As 8.283596733387341 14.87962474165584 11.055918156349302
As 16.40810147882253 13.9920032589433 14.536905240188801
As 9.549015140161547 17.878058244211488 10.678836092695436
As 15.26853718884971 12.820987575754879 16.436506504268316
As 7.089455099781328 12.510119945065103 14.390772997528227
As 11.404354336865872 9.681090591105141 16.67467218165784
As 8.52917280815774 10.59377006138317 15.09714221802659
As 12.368944366321253 11.882514505387775 9.200441991889365
As 11.9767476523847 12.469123630333732 5.577975487930176
As 10.995414006399152 17.05035412263978 12.524576052368342
As 10.490850046894913 12.066069677342561 7.530514776688794
As 6.809669342218591 11.447565012256511 11.650160987168071
As 15.62426635283665 10.229326713733538 9.194099293812148
As 10.40227034699586 7.538964168030101 14.060511382670073
As 8.913774572239015 12.77731286947977 16.182805651379997
As 11.201007370839339 14.390127714196849 6.920433725226854
As 8.69335869594394 9.589931731638641 8.377229907257863
As 16.514193662305505 8.006383746358447 9.77067808979341
As 13.17038721122053 17.50103901496669 9.429527645856528
As 13.449820883107332 15.121010737112748 10.129511659425825
As 10.81792801049308 17.74714259462311 8.751647125169454
As 13.395656013052925 9.843390664319775 8.183950440574538
As 5.534544070022163 10.758109366078585 9.552492309474902
As 6.7425295090574 8.57081756312422 9.668542954536996
As 13.561564574301695 8.68587013020025 12.286577391088324
As 16.72581875125788 11.283304145653156 11.273004429431515
As 8.028897036029582 14.688077908718814 13.521384273979267
