54
Energy = -241.62694263 eV
As 12.109435453657419 13.692158319115855 5.484121329182977
As 14.424216277178916 14.511228949902499 5.408090660793825
As 11.107460916543932 9.592453469834897 8.206202690379127
As 12.996129737058567 8.523460505592285 9.428228724757385
As 12.487648790691313 15.951371582968555 6.0143836956704195
As 9.083934907885387 8.302630003741754 9.088015227397504
As 14.57057843575141 10.477945706074982 9.265589775230405
As 10.171194725719861 14.77898138052337 8.538659585903511
As 15.19728539678475 13.848275022107932 7.813930839987005
As 13.299904801129351 12.265329767247213 7.892227804103675
As 13.45293394756592 15.550677006180837 8.51411604263489
As 8.467933554944405 14.263309428666158 10.324140060510112
As 10.579983289795306 16.97452710743104 9.793914879494698
As 13.0352988085819 17.278376658242507 10.360730993824243
As 11.707511688012236 9.180738175523635 11.495625661653904
As 8.361044117842667 10.51601384828475 10.080282329890089
As 9.674401600112986 7.586951302165903 11.399377499069354
As 16.72884361082141 14.28327168623984 10.867790708190922
As 10.135836833913224 13.96320621938298 12.123386311816766
As 12.17891094327421 13.749221134430835 9.616786217050302
As 9.224348623898019 16.25620703737467 11.793705051833191
As 15.321070830374685 10.86619712793176 11.656766928130018
As 14.731804687565587 13.319036422080865 12.009207654031709
As 10.824759807794328 11.109987577755577 10.189317297027232
As 11.430430584062906 17.753888378719278 13.377639316807523
As 18.304237330029572 12.505094997526863 11.516390314834478
As 12.912350020222698 15.938635813341287 12.459484302732017
As 18.89384420222411 12.824157853847698 13.702233176929825
As 15.270632383193687 13.88642068260327 14.412597817687354
As 12.606059185569036 11.553182888386964 14.197169167080697
As 13.646874060559744 9.651684561621684 13.077705699625328
As 8.430452238357171 12.843766298047314 13.618374315618519
As 15.005136676850055 16.326527160708164 13.827125828126121
As 17.15242078345909 16.129939992509176 12.4622640261697
As 11.157507575138807 17.55139515618083 15.652433393943937
As 8.095530537496192 9.273997922223726 12.21769324721954
As 16.52115905994752 8.660680286381565 17.359711558178155
As 11.359674967060238 14.131101745378208 15.139115922186598
As 9.98280908664254 10.87236456798623 13.383374485006062
As 16.29388307919488 10.90741377215734 16.338410646786603
As 8.967682682597076 13.955792384493039 15.79622205698333
As 12.778800284253066 15.804692667516449 16.33912554568797
As 14.263107173005176 9.652455183940038 16.995013623274737
As 17.635852815839026 14.764282429907096 14.481453179947708
As 15.579043586771492 14.182936084334111 18.059831134258264
As 17.34258743394988 10.655383829938359 18.573135279213727
As 10.937601210288094 10.373279077517804 15.616375636257537
As 14.625596947902736 16.103284394902815 19.365952347713836
As 12.300935340043743 15.672853155150522 18.771890957427452
As 13.5721359565803 10.547336093336984 19.206162015167322
As 10.664231293492852 12.514831335945516 16.893266528188583
As 13.411474216746354 13.2405018233838 18.90741381148553
As 15.60205394116855 10.999758493346219 20.30602936368745
As 15.274857605660358 13.772239575071692 20.473241378413324
