52
Energy = -233.25318291 eV
As 9.690824921229462 12.350789678310997 4.820174061465964
As 11.26308762244975 7.212184205636471 4.661478035745766
As 11.465426172585413 4.7327789580903925 5.234517603420073
As 7.095121312407756 9.560687880997696 5.999935978142205
As 9.09072682900243 4.938863986562697 5.9940695811249025
As 13.045013951435967 10.63373354367211 5.018252838717906
As 5.279018022724918 10.969345780401248 5.065333359348336
As 13.550278819746664 8.182482730471586 4.817862440228415
As 7.411609695224086 12.031925436490772 5.936301173805529
As 9.90695911009276 12.428731481575142 7.302270049122742
As 10.74130960347665 10.435717619596481 5.9959487549072605
As 3.9858228664761697 9.9257153882557 8.391116630767273
As 10.313923444971817 6.832990069839048 6.927933053089945
As 10.25841437229078 3.9951463009162995 8.662910606207483
As 14.52136059304956 10.489104149716923 7.071604127128564
As 6.452944191378353 9.024064173742751 8.379200328819149
As 12.152796946412913 5.2529651961147446 7.6485592213911335
As 11.425777638542641 14.26078924764843 8.015842893494662
As 12.913975610325434 9.232955043460906 8.470924610260044
As 4.354165861664985 12.025546074987533 7.118336855195281
As 5.278368664754706 6.936558348589097 7.5865723403423235
As 14.556581156152983 7.953025596490089 7.110999468328337
As 7.517796362026729 14.381721152753812 9.601878948216726
As 6.374021513497377 12.219858577364155 8.724623038162042
As 9.988795203583534 14.66779186207901 10.045344984854008
As 9.243337703836911 8.072939306757016 8.778044956625717
As 3.555607998649957 11.025287342242233 10.636646990764024
As 8.65170683035465 5.7809692460331314 9.441975153675946
As 14.483268987789865 7.193933128761582 11.285772394837684
As 6.488432346820025 4.902374575338984 8.488822987477556
As 4.737174494623063 13.219921756159932 10.320958987567613
As 5.928312042455184 7.3196166500733515 11.00679663731207
As 3.873813008328151 6.950986710157224 9.659621532766653
As 12.162927404492791 6.681592652547182 10.414919264972955
As 14.687229255019684 9.481467373788012 10.275157654787105
As 9.073145659667432 5.284148999004807 11.886216470120864
As 4.960301857505591 8.12784685259817 13.118610203808997
As 12.414842369095345 12.312582980238805 9.317678058839663
As 13.061926112116307 13.152741491704498 11.549133665453802
As 7.398219493037652 10.801633281026508 11.46260433432679
As 11.498210572577886 9.636917148455012 11.808815231312536
As 11.300315481699087 4.4422112558045805 11.104233197810636
As 5.130998566047646 10.534650207714181 12.485460429741584
As 8.793974735793023 7.837191427980511 12.256885803069625
As 5.162163348937627 4.981955858164052 10.613331390764642
As 12.464773923659573 7.512400963636158 12.710189955498187
As 7.239023775533531 8.18397539598311 14.218890428475891
As 6.816674190375234 13.291962326415211 11.765419979257736
As 10.694926533875945 12.50326085766242 11.123787836178197
As 13.665180754494624 10.761801591009727 12.242313982531774
As 8.07486904221205 10.547611292832759 13.911029326861314
As 10.190971484339599 9.168995302990508 13.90114062171813
