53
Energy = -237.53120656 eV
As 15.317819120308128 14.263861642850504 9.131684442622179
As 15.5523036998594 12.753157168901827 11.067663731557658
As 14.400866705512904 10.72769886488295 10.063369813050564
As 14.499200716340615 16.387723724911652 10.098418488938345
As 13.449212985904058 15.88190540694951 12.288187655736701
As 13.26927664327908 13.948081314515186 7.658771711736326
As 14.112619627403948 9.547882625498046 13.421564645075316
As 13.969468768668975 13.49751940647329 12.821785130693218
As 15.869962458760813 9.380100892024306 11.626971218167228
As 11.9324242368087 12.65475269100079 11.750535765851911
As 12.750648215773309 16.39976948457767 8.242993051483392
As 11.072077072810204 16.2528779423851 11.542775532019796
As 12.45898972396894 8.247895372866623 8.593509855442338
As 11.930723404824809 16.058317576227132 15.549654487556277
As 11.706480318677981 9.385108406979905 5.622414176459775
As 14.532163229418494 7.386743448490669 12.270853007580115
As 11.755111794754692 7.178794503321106 16.990866958114864
As 11.7249119735609 13.59083037777006 15.58371587117055
As 12.480463173807848 10.238583332831858 11.627892966749942
As 10.320009328282937 12.842221114158265 13.679978863889225
As 11.633673169489017 6.290004364525148 7.2757531374874365
As 13.213599559518139 6.593035608626773 10.283992376882148
As 11.167429953106213 13.197059745610252 8.842148674623921
As 10.593276863457845 15.63490812017353 9.202079187308346
As 11.142615153009302 12.52298713028927 6.402291083037228
As 9.361161113749564 14.949473595801223 12.809343771070436
As 11.229619320827984 8.499660920118759 14.978327030227566
As 8.938515304285339 9.686843382146726 12.578109005321224
As 10.042365199571663 14.996790776642385 16.755161889457337
As 10.707681640893474 10.431219000601361 3.5236663727814115
As 9.495859567215074 6.944064938899972 15.921035056347389
As 10.305439664848581 7.287947470658078 5.335474520170186
As 9.939796293905905 5.35047952846285 8.829504615640515
As 11.30007076572737 5.101890233178025 10.911014653146648
As 9.46834332984344 12.388316600369523 4.429994811842726
As 9.890109801596049 10.278020006315563 7.052334909275993
As 9.599323378475756 16.426368850325215 14.7722014312589
As 12.44811865044789 6.34192337443411 14.738623760951173
As 7.316713738445352 10.708443244511717 14.13083435823656
As 10.355308912012982 9.298628373260186 9.346811696347471
As 6.654252334176996 13.259052631991336 10.4641026311636
As 10.352565459061687 4.946196890443072 14.66137709331171
As 8.687023245727259 7.4767622253747845 8.806950915289976
As 9.320000603477297 5.357858051531151 12.432046210899548
As 6.118478937396137 12.48220629888317 12.823054826885524
As 7.952200924580487 7.375766299439976 12.872402951229228
As 8.29506035706752 10.211184717358043 4.0330363990619205
As 8.241314381207713 8.57499083509026 5.994907269025911
As 5.297697734611187 10.181744279229298 12.633514553467462
As 6.391083841655369 11.360522610516766 8.888219098489646
As 7.01229561928336 9.785146691933079 10.8806211386671
As 4.478576733321132 12.379971695707304 9.80106451571044
As 6.93095078430607 7.3071125382676385 10.59816834265945
