54
Energy = -242.03953417 eV
As 13.213050754507494 12.71627265412663 6.206326686072708
As 15.290017616733692 11.704762669874128 7.108346215610525
As 12.568359043249833 13.758369239782056 8.3649994824392
As 11.723476405588627 10.76089323477075 6.633380251850066
As 10.474549026105539 14.567595500491691 7.263926409410479
As 9.674481802170513 12.179299483290817 7.006780099574895
As 16.28252038208377 13.892757357068493 7.872520554073063
As 14.425054769452299 15.501699657007237 8.350556572530628
As 12.383951384235358 9.835806625468743 8.870101651608008
As 14.312318850583566 11.415901298945155 9.369519236719018
As 11.405316397888882 11.578779132803547 10.404725566588306
As 8.987104242260914 14.393225772401262 9.303569947301483
As 9.109668341036176 11.852666801384423 9.44393428837259
As 11.432897861634814 17.092886294476575 10.154169265291756
As 16.316443539686883 10.233591620117046 10.346238934105683
As 17.774357698289222 14.531752607123305 10.890966465067935
As 10.779718163773486 14.942858430993052 10.925110603081974
As 15.384495121487205 14.071565206128836 10.21791061252797
As 17.866527293889774 11.993217544064212 11.370844817148493
As 17.589310051193745 15.980982002225645 12.941957613135914
As 10.911801531901622 10.168546753512306 12.476454813371905
As 11.828874087743978 18.392260424272266 12.066794538329058
As 9.786943316712463 12.368192607351475 12.931159685105932
As 16.934509086935183 12.195755375432926 13.624583269311616
As 15.229811677929321 15.914157760370117 13.595243119690656
As 14.949487444686874 9.28255397297634 12.20449278182493
As 13.277274133974256 11.015680497014412 12.999655862624778
As 9.85416917148867 15.47085539571358 13.406754133269432
As 10.527142269968431 17.729795257531585 13.92214099611032
As 19.12234542464164 12.589887844739653 14.775643158751079
As 18.891872290257677 15.102005075690895 14.934504583182317
As 8.802672494844488 12.357412519365537 15.2917884751091
As 14.82867562359379 13.471373302398526 13.850666503713809
As 11.683563006875241 13.796307189363162 13.780831363757056
As 16.322881093162188 9.831272226467949 14.210634201598197
As 8.432908590840661 14.833232131613194 15.444744028842722
As 11.674130607353042 16.705713320152867 16.549424464396093
As 15.626762265451324 16.937095304045922 15.817226031580692
As 14.051764917939076 10.105797217449254 15.251034315414403
As 17.36396564738154 15.432272453490004 16.83689021742942
As 18.543268954515405 11.790238847522776 16.969727631538426
As 11.167102503048188 12.80491980975221 16.05768788179183
As 16.523314424709866 13.028388012761221 17.21912095229962
As 10.182762609093624 14.770738315600608 17.2364642324148
As 14.176498124186907 12.313278156437926 16.448027657755354
As 13.001906184314212 17.47612908605918 18.542028454114742
As 13.884348697422505 15.657812732351855 17.091774239748446
As 14.282735197255935 10.866480399858272 18.695392585753183
As 12.115237403225112 12.329574775210684 19.453310858792527
As 11.025043199768172 14.515692304363148 20.65877791002579
As 12.836527706812333 16.106430898403836 20.65240847317605
As 16.0236063919613 12.236602030813815 19.57314447914094
As 13.977164081593546 13.89367821373698 19.97674574764479
As 12.576516508964627 12.916192072039212 21.82004249628626
