55
Energy = -246.38304272 eV
As 9.173310628610489 9.537806707097968 8.554326578961454
As 15.773286615410811 16.208810512728625 8.796768087595046
As 9.3690755696203 11.979840853185062 8.577495465794415
As 11.082968750429076 9.965547251649449 10.319570520351974
As 14.621691684615648 13.106381689400665 8.055634437269886
As 7.546488600325237 9.109620689240424 10.352341829820162
As 16.859532296384494 12.39431253647892 8.78796065929739
As 14.760170630000125 18.377272966183355 8.234785025269906
As 18.068810412583098 16.903840942141056 9.31724320518168
As 11.148647928323491 8.435112920822114 12.223652464662917
As 17.59709895605133 18.857070078859014 10.769862461985218
As 18.781259188783114 15.209603282383062 11.047356326808522
As 9.154010738679663 9.997326050010692 12.114299978567582
As 15.891286593040784 19.98034587227482 9.394971126382574
As 9.92505020335925 12.27767283088667 11.112758726923257
As 17.282818445745246 13.215942876521837 11.10111049426457
As 7.040205772956442 12.769205628728256 8.87635036727597
As 14.886772248870832 10.986095487662165 9.331464664411413
As 13.601066132004606 12.883792365538145 10.313909401928242
As 6.085967774223086 11.099455193106243 10.40276791089273
As 18.12859638041215 16.58952713251222 13.0577482284863
As 15.118405221128956 14.034213634768985 11.90380617089328
As 12.356107318393668 10.31989144093868 13.196509992177132
As 11.136375996847857 19.69495423297268 14.71682459300592
As 7.473029171604359 12.92523807143281 11.372256824940498
As 11.258570644049913 16.386910967253584 13.347434031495716
As 16.056347724427617 17.782098786669742 12.408452071941847
As 14.606638396162328 16.308834971286064 10.988472706727185
As 18.282660403788878 12.156862696666764 14.239879697278742
As 13.475996270284657 10.723841576081071 16.472094587839727
As 9.414520072859808 18.502281974364603 16.0318279565685
As 9.518413716925723 13.203490325280516 14.338286663741188
As 11.874950462451686 14.037556116622394 13.94313646958549
As 8.966247316871883 16.769183222562873 14.308750803704662
As 8.634793633876537 14.93310319562694 15.918431733084253
As 19.029010874358793 10.131485102630867 15.539543272973876
As 16.804624987347612 9.262051134321979 14.71578276955103
As 12.646916614737087 17.729796953552157 14.91087342021217
As 15.793328808642114 11.559858102094186 14.782154125164768
As 11.338801394205955 9.904386498915342 15.412300217976888
As 17.279120823938364 15.788890717403303 15.259548033064423
As 18.508873737439746 13.798765370090637 16.018808210351864
As 14.789584053615723 15.345117122033047 14.895489063862241
As 11.442764593679243 17.5061378814901 17.093754962562805
As 10.04802259678892 11.809142079996542 16.2830641438141
As 16.728991697288254 8.506417015435945 17.064827376617608
As 14.293565513457583 8.565667971232774 17.475273995867045
As 10.536647180408655 15.223877188546185 17.547919203624655
As 12.11185711423413 13.69477133411402 16.410975661606784
As 17.95606846237681 10.547735686435974 17.810240735669094
As 16.431127924275113 12.374662010029192 17.085233821774892
As 12.71763609787194 11.40194618327873 18.76547259110783
As 15.056740883228242 11.937003097155896 19.290522937879476
As 14.371818590714218 14.701734282529543 17.064465176643665
As 14.246054297019109 9.630237334504999 19.727936160290383
