52
Energy = -232.14135814 eV
As 5.276357815243777 9.881527684624404 11.675290883822624
As 11.25257088864139 8.091639349882902 11.07818416779401
As 5.350507194523571 12.892216375512247 6.7237210466760065
As 10.450647290048941 14.118878852242911 5.950109325456406
As 8.833970673702805 11.868651001107574 9.610447553170951
As 5.778176974109435 5.682408912871819 7.83662567458968
As 9.312641135416836 3.814376393228917 7.757658567285025
As 10.808402144106601 11.151439229733878 13.299877762245039
As 13.690412829930276 9.82323343302198 8.538588904014059
As 8.440310386041574 10.531819780679413 6.158371780943578
As 12.403021285178015 7.7521388863448175 8.333418244587747
As 12.906306801074757 7.3536290579813155 5.875283431797385
As 8.363510375661363 13.728950554908673 11.341506893647601
As 12.384776800950528 13.075358787503053 7.12590702669072
As 11.01861294633244 4.463668059724664 9.461304390518091
As 11.214526662824644 9.865444983090441 3.4462105169337747
As 5.907270338918229 10.629567817677136 5.85055673050125
As 7.261162311724388 14.273926297022232 6.152383405135593
As 9.087138540103592 14.082181001792849 8.13294427936284
As 6.1955786302877165 5.931473560966137 11.955687450642358
As 4.230946027513027 10.937546350192148 9.629868751528472
As 8.68248648822594 12.698281259788454 4.862731873795993
As 7.213941955758854 7.886292218478314 13.099701949132173
As 10.896341285080966 3.4322969699160133 15.016363971470811
As 7.757161902126223 9.670394989128214 11.468283078098455
As 13.415771196325746 6.91643754016964 10.55054600020481
As 11.968948583448086 5.632148560688264 15.314606293897496
As 11.545338950356102 10.763769075674523 7.625056498392278
As 8.983707917437703 6.05513976440888 8.804674375832708
As 6.15340673124259 12.374923144032923 9.040704869382406
As 12.673601693464244 4.162292961854329 13.482492661222249
As 11.613146019254156 14.701362194260705 8.924477452701327
As 11.134960465605467 11.631590076611577 10.869168521694524
As 12.682770158210365 9.865785691650256 5.490656199707323
As 7.2351087238434975 4.702282279633002 9.965926280200243
As 9.3836260892106 4.953479402192862 5.511224136968911
As 8.730962009766431 9.828123964085636 3.743794359900943
As 7.667908209783008 6.555112192896089 6.57864111211767
As 7.929232384709762 15.64291749642302 9.827617135820063
As 11.342764110125865 14.011877516441242 11.18824013841453
As 5.965171176149753 14.316042852927374 10.540519117329255
As 8.400368024428666 10.630877828878319 13.746376925765484
As 4.737332648344449 7.578716629016534 10.74691444450436
As 9.20468294400001 8.322001236106976 14.523289201875599
As 4.556427846111662 9.399725128846013 7.633489570730743
As 9.472440375453957 3.609922678916681 11.046623924447609
As 10.419799634823661 7.241608056553672 5.8468424086061095
As 10.425457165818802 5.1468501555068045 13.313379807400757
As 13.373580036272232 9.393757025568602 10.99428275987738
As 9.980315850923116 7.686619655756964 3.460403323112838
As 11.481793305713598 8.705832075832035 13.49335428976224
As 6.223587035981944 7.952451977977533 8.774659500621805
