55
Energy = -244.71053113 eV
As 10.074044972631043 12.732228578080894 7.790662092045655
As 14.639656625574746 12.520552777676578 7.2314142588124755
As 12.425277610152287 12.272407410811766 8.622088067348907
As 11.734992013496388 16.09519743487944 8.45076325118284
As 15.648443183200975 14.328586764787628 8.439188829862758
As 9.54877614510176 15.016205763240684 7.853999891276244
As 15.630841069680487 10.473303543649566 8.205692782633214
As 16.806943287731087 13.365514756919673 10.313927055250284
As 12.281516863200173 9.821800369328303 9.08644330504817
As 8.991909400592437 11.580717165092242 10.309235286597309
As 13.893114627519088 8.844083529694062 7.368332294365516
As 12.782191455937399 12.702704697316598 11.020424844223328
As 18.518991712212877 11.398959612878205 10.464433953506923
As 10.786456690942872 17.77092334467969 10.02914922632919
As 8.05607109196382 9.666236337607799 11.849670619946853
As 9.088148933470892 15.646744142173208 10.700506983890813
As 11.624244679086242 14.954077991256666 10.637769937307374
As 14.404509073685206 9.94551389638024 10.39914882060513
As 7.573928600493746 13.527983826613218 10.79486087812341
As 10.507358969224365 11.759861705377029 12.321855562779907
As 10.512467544980318 9.204968966815434 12.183093240785803
As 17.72001740333399 15.543478631160395 11.17539961529737
As 14.620136151744687 7.645562480828896 9.408221446117672
As 19.36051969347967 11.792242674642228 12.737759922518565
As 17.928830786454906 13.999954721713491 13.143611479944349
As 12.506120593890795 17.023629441918548 11.676796942570592
As 15.4005253944668 15.624409681768944 11.984185501092409
As 15.687888556692611 12.973242488199368 12.602956929482808
As 12.868840153941024 7.722732619290968 13.776805798177508
As 6.820826956266167 13.10126086248186 13.102314148057914
As 16.256096698722033 17.060366635626433 13.869511375059957
As 11.325919029207595 16.12106183581373 13.685233313512173
As 8.924415043183686 16.594717322749673 13.098920622054772
As 8.277714687983472 11.198071180023993 13.745577096873383
As 14.671599206289162 9.407837636178897 14.194563282192183
As 10.60660954592129 8.463803020720047 14.603233015508536
As 17.306864433935036 10.55612299915292 12.410106460523266
As 7.975221488582356 14.8079993084523 14.569126936906164
As 14.687154430710205 7.260851577248843 15.41868576727368
As 17.487030046714615 15.362129398119967 15.262303230776457
As 13.652807465978979 14.872153650481009 15.494289322778146
As 9.473609487726502 11.685429408415247 16.58509601498604
As 11.45691233098328 10.616305317954398 15.443127902799613
As 10.140119184415054 13.694978473181859 15.180696113097232
As 14.566953189987492 17.136400199807003 15.697214401197767
As 12.084563687941555 17.733317761076037 15.504052841384574
As 15.804031837034925 13.63843179177871 16.011828025012832
As 14.72437000218367 9.393132219697213 16.70664001505257
As 10.142127826545186 14.893542574995488 17.363729107053242
As 12.3616939136763 16.02297397025875 17.35023056776043
As 16.198908589327182 13.942364148116422 18.43646303093514
As 10.819632072889762 12.758930807498547 18.509057752227907
As 12.474314891244784 9.902184915928597 17.603808930548343
As 13.068694725190218 12.336667732901507 17.48975457802824
As 14.454563207040028 12.870657161121148 19.471554595837766
