5
Energy = -19.3974571 eV
As 9.391682461437826 8.933599569684956 11.516283562673134
As 7.597787627176263 8.635593723821486 10.059872279037219
As 8.309540596541972 10.835946435824447 10.301336366373947
As 13.957471383702732 13.466888386635723 11.334209101107488
As 14.375298372003003 11.602154316277181 10.421314592315284
