55
Energy = -246.63667712 eV
As 10.523538357734065 12.669508298421484 6.351974987533781
As 12.623693048181243 13.48363165223708 5.657441669448167
As 13.197965142188984 14.165540539765209 7.900892315191047
As 11.445442444139386 15.821469230517485 8.508485601879155
As 15.366654682503569 15.208407925874296 8.434124885582726
As 9.536089167038009 14.295488129021043 8.08092513753554
As 11.093835511181483 11.269535545539886 8.485351183440846
As 15.083646195692685 11.145712439915652 7.844194931439654
As 16.689591790481444 13.033852794597989 8.283773240388953
As 15.844259955291347 9.415991376593265 9.52341327439065
As 10.742109189469673 8.987624621362857 9.075800310180679
As 11.368579020076432 15.97922886916029 11.007714369025535
As 7.703982210197143 11.640617912067736 9.978691233832437
As 13.004182185852915 14.101327716319329 11.678933261013183
As 17.312379152078964 12.684965459964383 10.633134288758288
As 14.948728338075107 15.512818660293132 10.914474433377382
As 9.890590678304962 12.820679052074256 10.076177552745099
As 13.318803081018052 12.109256305897118 9.322941339113855
As 17.931640772013633 10.316658773500416 10.535518208821474
As 14.217952011534019 10.033183309666985 11.30954605730777
As 8.17774134159605 9.573821588652603 11.386219241342248
As 6.8120839208155495 13.306671897556779 11.603554927856559
As 13.369592139484816 17.502373572562256 11.077523289314597
As 10.649747004544533 9.845930320118056 11.386984000556597
As 15.32674496674978 12.19550928174645 12.057513321888855
As 8.69623311470883 13.99829826760237 13.070494080386934
As 16.10647699425025 15.037971242522945 13.687167756893496
As 9.211493289439913 12.014883809776265 14.45830792558229
As 15.631191079425557 8.767280034910886 12.956919259887243
As 9.348902552872904 6.279706351068987 12.428341335136947
As 17.11642591066337 10.76129638496114 13.099346105584585
As 7.62661177966304 10.253731381997962 13.726354625741767
As 5.799057902766659 11.886701260019624 13.368457385013691
As 11.337708316048941 7.715433641197969 12.4840447321164
As 7.152074836353689 13.356222554123544 14.9532958433465
As 12.908105374714244 17.247189581771963 13.55817311756515
As 13.607135969846086 14.922698488854287 14.024627284027419
As 10.284474044698726 17.01364974252701 15.033999192498369
As 12.566932812576926 7.999066293033876 16.313408000680877
As 14.21566239830822 9.380010061034072 14.960809174861707
As 9.523832920646699 6.019847471788923 14.727055903819663
As 12.662967977972142 11.266574345644672 14.830660781066351
As 16.664821928696796 17.301250851048486 14.542393206265043
As 14.219600430619515 12.879824381847659 16.44490823637753
As 16.464001062990935 12.084288674254957 15.773332335566518
As 14.48365487537589 18.319496553962942 15.134372722373003
As 11.528930886964908 15.793066236126808 16.78708240344431
As 10.575155191208706 8.23795772692231 14.794062298496572
As 10.17558558839919 17.81205478451381 17.19647407483905
As 17.05406054332259 15.35199024603054 16.036057876116057
As 13.711182636562935 17.024818388640387 17.13344590934932
As 15.90456645746213 9.911646486648827 16.752885590669663
As 12.059109446958239 10.324371999726777 17.08497417996226
As 14.234803534640658 11.049937958178516 18.188071079409102
As 15.190609174230469 15.109870864468489 17.576115859590487
