52
Energy = -233.30419791 eV
As 8.626682007603911 10.67753568703446 14.086508009346955
As 10.941794975539771 6.636188337729518 7.747847683879428
As 12.608884270758828 9.855166897018638 9.046234098302609
As 11.530356591445813 12.179273708285724 14.69949448055658
As 12.595865959120696 6.310244751232555 11.686205131958442
As 11.43966603772432 8.61548475676189 15.234133593064742
As 13.853708396283356 11.55308547214642 7.6622237465960295
As 4.643262566415377 7.901180821818167 10.807982391355212
As 6.142483413459808 11.514368502807717 9.171033629236437
As 9.325701981894843 13.141881894817036 14.023282897324172
As 5.864421996463943 15.00101337193804 8.032717087799265
As 14.601574353282212 8.28542128690784 9.29206911544507
As 10.33984478524562 6.461507642001426 14.48407527880128
As 4.356842017249462 12.976240360357679 8.187254421059414
As 7.606071463352407 12.328572382194634 6.345454089844463
As 7.717199829836152 6.825835008958907 6.808078340118039
As 15.044282953111805 12.148365608784385 13.104280261985561
As 10.534444996702048 11.683333529394698 4.944119431311398
As 6.340120795933658 8.284085254579239 12.597080328902402
As 8.531561899288421 6.8381032785268365 9.225763550814676
As 5.788046297565224 11.744967290284368 11.61268487922177
As 5.4669498990388545 13.582550921747401 6.021501735369622
As 13.038303139016085 13.65786497638383 13.374338663450327
As 7.788774983741819 10.221224619657205 11.722974390525625
As 12.660664797048574 5.4997292640038005 14.302099003572422
As 8.353880321043384 9.247855530089515 6.91969253154952
As 16.053077057894 10.052119534379699 10.32996111805427
As 14.51740823602296 7.888602892627825 11.889925911957539
As 10.974137862182646 10.151482721527772 13.319484593217464
As 10.412669161108932 12.544695064382664 7.317597589841423
As 11.497336817512513 8.810848670515634 7.090647830478465
As 13.65227456728396 7.642846530539731 14.668311514751778
As 12.606679842807301 13.707254732756692 7.431893561211603
As 7.079396706416956 13.928048373679077 11.46065959189689
As 5.893261130217073 8.543943582907444 6.824849168233087
As 8.275654978747196 10.510858404148184 4.7471242085951815
As 11.055438569391702 3.7180021684456275 9.868902026158237
As 9.395078537094697 13.842333548252927 5.46274517852921
As 15.847255656640993 12.149646252905189 9.026335594927732
As 12.58322949326998 5.592808281959364 9.233902215681912
As 15.072888754920431 13.548363193348438 10.99997010093083
As 13.97817133644198 10.358250689858462 11.637472929514878
As 7.919461207790323 13.84749021869321 9.10285051910048
As 8.67245169938912 4.343067186213103 9.560022508753404
As 9.694743906779454 15.291401542618186 10.423158977652044
As 9.401336554247143 13.036410314673072 11.518368255101938
As 6.566288898706913 6.361780560229455 11.05003574756521
As 6.169888449526688 9.048211085352046 9.202432846503784
As 12.062034213881061 15.044758650873215 9.578001442372706
As 9.704620259923344 4.511325226085837 11.833659364235768
As 10.222748720044033 6.979981796305262 12.019751916735755
As 12.631544680960543 13.054855648628289 10.943274543976507
