51
Energy = -227.80494979 eV
As 9.053864713041188 9.99181239853746 8.755326356951155
As 5.746414414252179 9.706732829892289 10.94619448750746
As 7.328177217932957 8.39314881190728 9.454756093680619
As 8.76830484702255 12.791424947907084 3.6656293023332593
As 10.375743224004925 8.08784839069382 8.204059867808773
As 4.736823773005946 13.942834175128567 9.204065765917951
As 8.945326763283735 5.403879750257066 11.852854390159761
As 5.303873154099142 12.517189502079038 7.278787812486518
As 9.47625905896201 5.840700700165542 8.336587081003499
As 5.952129342992267 7.869761333615637 12.654129650818193
As 6.59964170889178 10.207660075369533 13.24175287702296
As 8.25809322528704 7.757625824790214 11.67199123918879
As 11.211483763688097 12.974147136804744 3.8567192832732085
As 6.674642476979263 14.491801305623726 7.781486937865916
As 11.422579384504957 7.75041316685919 5.929409113501389
As 8.896813895612691 8.125727941909062 15.148716840313206
As 13.348729177250856 5.742483223697901 8.117110661156294
As 6.739657696353766 14.993093892238454 13.673785965682233
As 11.15426933901447 5.192776434128161 10.655149495276078
As 11.268401607994408 5.3560140857856275 6.682843993290022
As 6.432124861125833 16.284383125000403 11.575616713578452
As 9.900138039822684 6.017551948710206 14.114245701058982
As 12.674201801239974 10.420244505919106 8.221182582366296
As 12.168341736207395 14.858297617486782 10.80078933019934
As 8.40163022087942 13.426006549099428 12.5091576584965
As 16.138761463230423 9.853138357254924 10.64988036738406
As 12.044061717700506 11.322141480649469 11.39073777041812
As 14.628082483228063 10.170599526708292 12.361909171783239
As 14.165884810064036 12.326252057768212 8.709821617991173
As 14.805651451785394 9.285049074394106 7.703471298862176
As 13.6698358436917 13.163042281263044 11.934147824093555
As 11.30847216522037 8.283949789390604 15.788280803879518
As 10.593001409597523 13.041291812826106 10.105071000101304
As 15.777901931654096 7.9587412172022605 12.214011416966917
As 11.545027058964289 10.730750584666659 16.028903115878013
As 12.079829476396812 12.273062988459431 13.683420176424374
As 9.119126270679892 9.960187974974021 13.418976167371888
As 12.2312246581778 13.945987677548075 8.471468994572584
As 8.835085678120969 15.582744307532886 11.286546413191246
As 14.074055042265526 11.312950548863085 6.401817617230491
As 9.276992001216906 11.50488747385833 15.473568363608358
As 14.510323948515175 6.142109996346437 11.072118975262379
As 10.065604930614485 13.620615030198078 14.339615623868335
As 12.843866029203534 5.472553689026235 12.761125654620162
As 13.858148424459143 7.398468508792646 6.298778807836172
As 8.097128894247598 17.022734335037512 13.216318657359208
As 11.599160573885067 7.563855689730711 13.27162683556348
As 12.43661426905395 7.238947472932271 9.895315599634182
As 9.77538580672228 13.807669921196505 5.672374651728007
As 6.756839120510932 12.534999859701552 9.275436314310348
As 9.976436576297528 11.38987614902541 5.293075038077574
