55
Energy = -246.34649253 eV
As 14.346682001193292 13.42263623711687 7.185520009384502
As 16.799650915183534 15.246498706730232 9.690011628584362
As 16.083712331230377 9.731261257734523 7.773592533259338
As 13.213630727478703 15.65383608792477 7.282031793776967
As 15.675746386350538 15.502433860137067 7.440538561830901
As 7.493504883859182 9.524073210716073 10.320403173974947
As 16.79949055069518 12.771083382372513 9.718582136816702
As 13.85391635262935 10.364597074027628 8.542702884471552
As 8.455114541308452 11.522136520723608 9.081524782168424
As 15.16429103858433 15.313633644810789 11.589829352854332
As 6.161229689562197 10.727449078724517 11.940774912894405
As 12.454381721526191 15.30232421762199 9.669488929000021
As 13.346323162682756 8.945671077383237 10.512035022797313
As 9.947765522382188 15.152972675412057 9.328106599702364
As 14.27510551580605 12.622063535484676 9.595002991949226
As 16.324579343425402 7.535974643402634 8.325711023448436
As 9.157660375166634 16.491288387260578 11.208474644163124
As 9.016764476207584 13.168358647322046 10.900473169742726
As 7.092734281088407 15.251820743162614 11.34298281861786
As 17.50013102572076 12.6886885303109 12.176766563167508
As 14.60519828040593 6.878084355596928 9.972616284931943
As 17.290977400179173 15.091267780263223 12.933585680976249
As 10.641045322906539 11.264846943843889 10.298496054775669
As 9.764586445668407 9.188973233652861 11.370828948007727
As 12.338122700100246 14.815215148567573 12.53052456553036
As 15.540619301416909 8.545748274363726 11.586219382900179
As 12.545129008323661 17.70001144709925 10.447140720204708
As 8.014785744715065 11.76887600757317 13.042017068521934
As 14.68420981670051 17.73389783291284 11.74156278269905
As 9.976569298322927 14.759246947783048 13.289952412217614
As 9.354044625601226 9.738308609740285 13.762103716467085
As 6.741331215588906 15.640919494071593 13.762616631115682
As 14.702196620313035 7.288929132597246 13.571324727446994
As 15.479186675827199 11.608028489612487 13.274818897336067
As 12.538758873503468 17.261405202496004 12.9284002070201
As 17.529875755930682 10.167794706020938 14.084371315885974
As 8.89448479073071 16.645097218373785 14.56526861928883
As 13.343796896164887 13.530594740164677 14.366762402191384
As 11.77161658954684 10.4821945341344 13.980620543129827
As 12.332012329358426 7.992812205293583 14.307169558805036
As 6.724221202711106 13.249781402919048 14.658128458493799
As 16.368526170824566 8.230658728708269 15.23088956212706
As 10.552658325681545 13.129453638263067 15.262692422777516
As 17.005185016341766 14.64619113849828 15.369937648991373
As 14.536270070980438 15.260979889097717 15.614217586552298
As 16.587058950773102 12.160709129918908 15.385487488899237
As 11.461352600112559 15.19685501407722 16.180456263314845
As 8.909953697345207 15.766060267559075 16.869622889486326
As 14.512646449436273 9.76294203324008 15.72368285316732
As 11.447089149797353 10.609632781368362 16.457666152417502
As 8.346031519938615 13.403184390477069 16.495823281356014
As 13.158573771107985 11.970799996663825 17.846006306824556
As 12.782341866072294 8.382568956224159 16.751021559781027
As 13.381069252938161 14.450278790592751 17.717692488388067
As 15.47090352951737 11.23369412681386 17.49056509232966
