50
Energy = -224.14168675 eV
As 11.517514604723113 9.545986218981103 4.453987162866203
As 8.885280615479486 12.25665504149986 4.4594745102817255
As 14.283643159665987 7.279839304752443 5.8693142790887585
As 12.919646658843662 9.130289639305145 6.471595389205279
As 10.169706096578716 7.4183766231812065 4.2492242099086015
As 3.157157021398631 9.919309227688878 5.588602790382628
As 5.141268872333567 8.785675441264331 4.558157564860886
As 9.951535019256031 14.469123961485089 7.040721203480046
As 12.997513111814806 5.027597886865909 7.380252531464835
As 8.573519832124886 7.693559750296895 6.16508727764469
As 5.501528858502725 10.569293723370272 6.206702940476494
As 11.106645937963478 12.93873771784857 5.403226996751116
As 10.051010188146194 10.796890435159192 6.0674502353778035
As 16.022870468572886 9.569379906971507 8.753050987374854
As 10.953506587569946 6.1640480164457205 6.259481324101046
As 15.604878893424658 7.198849419406219 8.006349287736587
As 7.705568648262365 13.612446372650648 6.25137554314196
As 10.597540673713903 8.057599954312295 7.884983223189958
As 2.5963248999430166 9.184937544602517 9.48372697507641
As 3.023306938292211 8.073273203115317 7.266320018734631
As 5.524985767649775 8.192226725917918 6.96488381113711
As 8.725187267775178 5.2422935899822125 6.618842112359214
As 13.766034889970847 10.183887815250495 9.600865203981929
As 7.83901181681201 13.900641289799015 9.870135632195737
As 7.723849179698359 12.037868901149823 8.212225298844116
As 9.615006368821684 6.186346862184488 9.241181853495357
As 11.231790795299649 4.3182495540736685 9.149830069619828
As 9.939317787295295 12.906537830211468 9.009907767535982
As 3.598624965951601 10.955834918359939 11.829249280272299
As 13.285193349175783 6.91418071843255 8.905449437608825
As 15.173310016462016 11.60017823708344 11.091025500772313
As 3.7474171170439106 11.38560959325662 9.378233775322608
As 9.547757355158812 6.027436098254972 12.87710020238316
As 15.381270291344753 9.133882090982766 11.132061980409794
As 11.56520653863784 10.648413632696062 12.093095534562956
As 11.00764214036984 7.292344007771842 11.357117756045394
As 7.377861543389418 7.085404647059981 12.444140837466612
As 7.537064843185911 12.074465161791473 11.568122815033153
As 12.650509029697906 5.487719389703427 10.890828814906113
As 4.923973753276682 9.471426155966086 10.349529468400872
As 5.310714920731263 12.689378897374196 12.484278364714257
As 13.036649245236346 9.741072727156046 13.815996900954094
As 7.2968120924884765 9.230181690690381 13.786638954835944
As 13.476505558016122 12.024015521978326 12.937201406023917
As 9.632540520617924 6.971716697409625 15.205282467143341
As 10.974723283531727 11.0729852922818 14.465401363862973
As 7.106041312090962 6.987074810179779 14.929125123511275
As 8.337147239047967 12.840054821594705 13.774730531715825
As 6.3152148732589355 11.943661938062224 14.589487618158223
As 9.249099304759753 9.419471247547975 15.265375918989076
