51
Energy = -229.059858 eV
As 5.362847402774655 8.813270026425386 5.521244774224472
As 7.752017757162527 8.79734973133364 4.883233635637371
As 8.008959183423851 11.232739296593952 5.147866808614607
As 5.582844566989651 11.15501682977349 4.5144043408685315
As 13.04368813564025 10.671823111204437 8.932462092398216
As 14.248237150567649 12.479879133570249 7.578120240156103
As 9.362908246730864 7.4672492359736955 6.277663435265244
As 11.277859990447658 14.068155132690848 6.340706022757114
As 8.138180402559414 5.747310076781393 7.581380037254085
As 14.439630252432396 9.149714688139872 7.5197154048678945
As 5.102361507591049 10.082624139147805 7.630269241128531
As 9.273356464716903 14.89147475382382 7.512596257015029
As 6.796766968076209 9.220471628403082 9.264640335318534
As 6.2996949984633535 12.054351626116421 6.751423585016102
As 16.204437374117564 10.902613803276074 7.8595173025903895
As 14.761249135030335 14.218091976832095 9.242886991187339
As 15.39209128531807 7.449173248667697 9.077415915986077
As 8.213214398885706 12.060447160486545 10.841785831628334
As 11.967653418656653 6.625432143327896 7.78805987169857
As 10.36782032044877 8.444328570286201 8.395446867861631
As 4.948815655720275 9.074425973169049 10.948266005792044
As 10.010336436489583 6.120180087995917 9.236099253178825
As 11.4757334817772 14.778757796348616 8.693004465224492
As 10.256412955135549 12.709030154399883 8.12810308001687
As 6.3461501347226354 6.781310436923393 9.054198804264258
As 5.82113886563723 12.77501541326876 10.228322595338632
As 15.248660678135396 10.932858204464992 10.162275024452164
As 11.835779713153764 13.94385758213554 13.074313623667688
As 13.286232106590878 6.334721689456899 9.923217913445754
As 12.459144366115675 8.134948599688533 11.487204149657352
As 8.489453572063317 8.319787080126934 11.944812624000434
As 7.309822978156643 6.205152448098673 11.324861192052335
As 16.20862980521313 8.777140074063343 11.03446796102402
As 8.497266159488337 14.553031292509658 11.15471855353725
As 6.177948681068236 7.887520461844401 12.760993724114245
As 11.014687917853026 10.751758432633629 12.99330568246594
As 15.59821187247027 13.104870662140401 11.161948138424805
As 4.845472556645776 11.325383161348782 12.009435568872146
As 14.626692262797405 7.636731685972961 12.573866617800132
As 6.257361332265683 14.219318439108841 12.269572822786223
As 9.594492973566942 14.906818275643344 13.354160889200488
As 13.51200226537299 11.149470514512775 13.498668314355118
As 11.685001864533021 6.454013226012909 13.187189763844342
As 9.446623897990623 7.295571930118557 13.98877409996225
As 7.0564497269717945 11.956275197070044 13.094869025814157
As 10.039326311720421 12.683335020188135 14.432258766049356
As 14.386239569290344 9.091893252184802 14.562691167972957
As 12.117072032416395 13.897479561445094 15.520287712481856
As 12.354989283651044 7.771845518517148 15.244953694559833
As 10.464854292752108 9.378111883300935 15.02894645756804
As 13.542107819876836 12.026800162130451 15.772303846277332
