52
Energy = -231.21112261 eV
As 5.086755092378193 11.499546314698332 5.963617933576889
As 7.862906180352386 12.008661544397535 8.383686738806414
As 11.116356681557509 13.940241921679526 8.621176262469518
As 11.009005232821766 6.015430318847508 7.619809244648098
As 4.69419554073857 8.746158701469968 12.090569246778006
As 5.966028808563198 6.9002822277406555 4.611039410875065
As 8.517826830516674 8.087011233814723 10.425526944207377
As 14.262938725478461 9.826500950323451 9.153352698377757
As 8.881615156654762 7.812336409119394 3.5889924461014675
As 7.7877709740211625 11.472771367903892 13.93774981740946
As 14.114689484741938 8.456880737938318 12.163463768436852
As 9.592208028909345 13.560150981100888 13.597525177464862
As 4.594988707691248 9.061199340302643 9.64967985995005
As 7.919674458781725 13.250292295947876 10.555998513355217
As 5.442905706163654 10.918196448101254 11.10991645880437
As 6.80694022397482 9.142417378498331 3.6944242696768836
As 6.606247246450364 5.314917482193118 9.406681297367347
As 9.14615635441444 5.381345431982688 12.651014015529174
As 11.612043462729673 6.940163542514719 14.888040535888472
As 9.930131293424829 7.767758503804411 12.494770824834967
As 6.843672750470943 7.489869334549302 12.3208534240001
As 6.80438820745141 4.825688448544461 6.936115838962168
As 7.290466263397143 10.181477168051824 5.9351768941415015
As 9.845016671020804 10.572852051148274 15.15686008779043
As 13.47658819623386 13.708945012079816 9.315452673381996
As 6.319242714183428 7.622866432050213 8.479356071097024
As 9.02489397157897 5.650455682376215 10.098781946508772
As 12.27546869452921 7.533497378504625 6.040835590032882
As 7.9141883437751845 7.062138313334932 5.964987556624707
As 10.537431055334233 9.678827586457311 4.039612528762088
As 12.485597276301698 8.46744672335426 10.265358603406547
As 12.897050681361298 9.041589182697336 14.301136549078864
As 11.140923685947758 10.319108016815791 13.103469480002326
As 7.945309957533938 10.90558773934305 11.480431007306656
As 4.828969556703315 6.329143412785843 6.8475163653982865
As 10.16525414111532 10.353070033170809 6.390490661676528
As 11.600471468742024 12.576958792373436 14.298161139690391
As 9.346029085210006 8.012441355537291 15.607130629741755
As 12.232559158395645 11.618359607891477 8.895900278169126
As 14.192559815913397 6.687771663142892 7.375345126071892
As 10.493820684650643 12.627554708417893 5.541601650970372
As 12.784341523429655 6.134524972634309 9.409620865910727
As 12.767379069823965 5.131596272428622 6.040468018403989
As 7.322481137344458 12.3337683087562 4.744059555465767
As 8.234857234477882 13.752091352834437 6.678117750747797
As 9.567190445811173 11.894986732881621 3.3800644162927327
As 5.735858094730979 13.075306741884122 7.646832896952749
As 11.59408531694987 5.924936030574873 12.556365620073073
As 12.530248239289753 12.4199885609879 11.27772473684869
As 7.304290095317368 8.774116749560768 14.387411739369902
As 10.282481986255085 13.91328948162111 10.972867752092474
As 14.720512492349041 10.73249522682337 11.35986928646226
