52
Energy = -229.61344663 eV
As 9.227239431825215 11.169844343734118 16.05735463322951
As 8.276251024684113 11.192966179948634 13.777806204061013
As 10.635501553498628 11.263155021780467 9.05778664100161
As 7.516518012975617 9.472610701973622 15.407396799415828
As 7.636118910647715 12.966855633941908 15.407515001269033
As 11.234133406689953 12.79464739882974 14.027443583364242
As 11.540273437228281 14.162090761963405 16.081217363761418
As 11.074727245911115 9.439992279056655 14.190272918506409
As 11.047928909175994 8.177688853214773 16.299105606148053
As 16.85749953470345 11.659042265471948 11.50823235395674
As 14.679457540603984 11.118708241210141 12.586056291136382
As 13.563474877863591 11.688082479936087 15.834838251723463
As 12.69383682867488 7.597955755096698 14.493540912374687
As 14.149272007840748 9.250005141253721 15.817049560200342
As 16.456052247395057 15.871564922294686 9.42490010791677
As 7.47343106950029 15.711313672997699 11.8930363065301
As 8.137913978225635 13.771170130802725 10.498548398402752
As 10.502983215424317 15.941222086129864 10.179820578049677
As 9.513190488876635 14.503947969775522 14.576142965763415
As 12.699405113683163 14.771549046908277 13.980776550385277
As 12.090314680525315 15.119605321855188 8.479896620982352
As 14.703755127941584 14.930895548328765 10.86581346403571
As 15.277594498884547 17.31290236979454 11.043746302684848
As 16.875811086759267 15.60662606852465 11.835349445109074
As 15.865017867771028 10.575474771905409 14.704822941595081
As 6.03399205238839 13.686992594997763 11.79428226652811
As 14.73491210114337 13.126196443953418 14.137224343796749
As 5.8982242395046995 8.723061326626201 11.652501286826768
As 8.22041542237124 11.286514432438377 7.914283062489653
As 6.232386799000195 15.170614950638624 9.831126177094934
As 5.248212697617357 11.33577535664102 7.948739067024627
As 10.263111043539555 16.72639946824091 8.055154547484308
As 8.683560255932521 10.113056247529672 5.828021442166901
As 11.279207171874361 12.965230455517366 7.388757498778656
As 8.745585172387761 12.4354877939844 5.824974247860698
As 4.469521374336393 11.326713262141858 9.945036811826718
As 16.535512462420225 11.459138802959863 9.24760579736433
As 14.464782598208803 7.6952910981323015 11.38466230439824
As 13.729062977646565 12.494273415831326 7.110883588540297
As 8.077747489246923 8.68274505372233 10.487133532142849
As 10.440746451257741 5.778922519323316 7.985414962677769
As 14.09400881176631 11.138015714048098 9.179689347645287
As 16.759713769862813 7.224602547719508 12.169933733309337
As 9.26095996367249 7.749282413956399 14.603784069069208
As 16.28310868696044 7.322440958273405 9.761887355523683
As 12.135467136023548 7.5021075504592805 8.545418034360136
As 15.433603539613921 5.441706254663436 11.109701850139425
As 7.283466736205354 6.670070757949086 11.685710421797019
As 10.466762631071228 6.541255371112484 10.145066572227787
As 11.265684469733264 9.568108775640892 7.362227239244456
As 6.193197339342424 7.3974832621382065 9.597076070823864
As 13.724028764215184 10.053280204631282 6.9599181852743515
