53
Energy = -236.51151447 eV
As 13.900640472206435 10.780016054169664 8.538326731411633
As 13.800224484868977 8.408609973076086 9.33678933128853
As 16.030152005654877 9.241957098280524 12.819684364564814
As 15.699284460351455 11.571196974733445 10.05391745317207
As 14.36626809326992 10.955897410565369 12.141538405854424
As 15.529520293429982 8.054270028171455 14.982284447414694
As 11.687043801672367 7.809804299923424 6.604831550336382
As 15.340028108500366 7.493119203473131 11.166681305432778
As 14.938690044070126 13.27051305758726 13.009910166144191
As 12.0174339168247 11.684624470441785 5.234826893976111
As 11.295261844233496 9.378341618259178 4.688789166213085
As 12.31292909075592 10.075431393268818 10.367046740775974
As 13.439058979164322 16.286373705676922 12.253205906180728
As 13.354244000284668 6.280331830491506 12.005518121702845
As 13.811616179053742 9.2005196213602 16.362655141190466
As 12.513088788844028 8.38226110709613 13.076213663914112
As 15.171482788827495 13.955070184352973 10.611732545975382
As 12.90345854442115 13.887743739116743 11.741035102413903
As 13.238462475658109 10.935209949707307 14.881429885055844
As 9.46023592814273 6.787426485974888 6.226167463377073
As 13.497622916147332 6.687664610757274 14.541807680905482
As 8.923246632483107 10.109321338706131 4.399643928259304
As 10.56136131452111 8.956836351838943 8.53818545174977
As 10.100317079638348 12.192189098941245 3.693772813879624
As 10.4952312633182 12.145496286229692 7.219835268791937
As 12.670531198112426 17.119857548991472 14.437955367234135
As 9.502969078113795 5.305932491439921 8.253898618657624
As 9.916699612872467 8.927120715663866 15.972078588315991
As 11.548179995569308 17.86324736572958 12.309662868003242
As 8.819705247660822 15.230528106457584 5.660013044197727
As 10.867466756316205 14.686015111560753 6.924572920902837
As 9.378246246047931 16.794924053598397 13.123987809002665
As 10.842705909210311 11.374245792648745 15.40991012002702
As 10.30691189803853 6.888256923177871 9.974152502445117
As 8.514259066170688 12.199099824823621 5.761126645385113
As 10.506562486222847 16.00201838433813 15.198999615070194
As 10.31365458264756 11.111968230371184 13.048987083600954
As 10.097883340981507 14.44037841641483 13.334336696700204
As 9.055842048535892 13.019002396164224 9.973575653506144
As 10.038498779441113 8.55806720623066 13.513851381874199
As 8.44493590719634 6.381774794568681 15.723842512772526
As 8.231639606465347 8.580239378689964 7.546184405671178
As 7.158838273950815 12.689958143888095 8.481328158444406
As 7.864749084260624 6.859737673111726 9.343855203761292
As 7.760060425316169 13.845701051307932 14.044214008545163
As 7.628915756530881 9.863232261357364 15.69174169426995
As 8.808866407437206 15.567590616008545 7.942968724889681
As 8.369058246512136 6.5816296127162195 13.356820139296252
As 7.9367877762778685 11.391280489827052 13.68590739765782
As 7.921031313995184 10.778006803521688 9.789099800746891
As 7.1417295011149395 13.795728589651477 11.538508309350085
As 6.369121798129094 11.434932850647714 11.682025768943438
As 6.649440446595024 7.735233015494228 14.730754965457045
