55
Energy = -245.42363024 eV
As 15.495831799982414 13.804261306119832 8.184882956711803
As 12.573117404083755 10.260579653106188 7.306955938208678
As 13.992905897629527 14.92941923236996 9.883690505482106
As 15.528972151784297 9.040919581967906 9.278128887286252
As 9.652227343726752 12.048150433009557 9.19051809522921
As 12.125794311474637 11.981994974350279 9.002471449996525
As 13.78793002170001 18.7433328532368 10.110703132930084
As 17.477323453949648 14.56696098178455 9.514904897174773
As 12.635236107163877 16.86361744876872 8.968993243843128
As 15.332465275859398 6.854957889825293 10.450830506901458
As 11.55263604607381 8.095003526828213 8.133809728947254
As 9.61356173419973 13.373306287188965 11.31288466034152
As 10.739396929775324 16.889130777499584 10.669511559482965
As 16.003861921333733 16.196559059471898 10.713991414976775
As 14.795167367216743 12.890272244757266 11.928570059597803
As 13.054485826682775 9.619265665052772 9.666561040369157
As 9.49992573571437 7.969630584161291 9.22402083815749
As 8.903827209637251 10.029413493366388 10.420881566108102
As 14.493012367466077 8.223823305783016 12.397883862234327
As 16.410736468860396 12.416437656256825 10.069977386039405
As 16.738314232545775 8.632727692148308 11.420918450933323
As 13.40354615572305 18.37087751554088 12.53305517050088
As 11.526608124824005 19.247312254056933 11.1337874657334
As 9.15227800923973 12.36507481601265 13.574941365732661
As 10.86034512513297 9.79546411663852 11.960149276907908
As 12.4527518260299 16.05038860394528 12.360359075644304
As 11.44444604157744 12.252789893112748 12.541846443852014
As 15.333725122670232 15.158669589129069 12.855366920657593
As 9.370523523217516 18.353131020285982 13.501070701100229
As 15.311824975510453 6.566960175862076 14.11543786366318
As 9.028595764794986 9.825193483332555 13.67392095670047
As 13.594026188794851 6.68100173424318 15.993193180155718
As 11.147562634856355 18.245202345527176 15.212889323179459
As 18.08854642035998 12.851302662393282 14.25114080456483
As 12.004969756689876 7.92166648853317 14.529167334696602
As 7.58759400403752 19.736293752413907 14.456050341665138
As 7.344865345877895 17.243634673520262 14.33788421980626
As 17.072438900216945 15.132918494680908 14.618892247838675
As 11.322832965379238 15.807372759477877 14.60871482453985
As 12.999949752704499 14.503946096660528 16.028102110513704
As 16.20035722920433 11.399337035969381 13.514284741051325
As 18.02745799327509 9.577681940644208 14.741322559050742
As 14.941774314931832 8.308029195520064 17.347153158363337
As 16.822411474651854 7.733703174457319 15.793675625909072
As 17.729368789374867 11.482648998801068 16.336484544232324
As 10.480026903077741 9.491785812606118 15.750594238300932
As 15.422755494440056 15.012063292777711 16.518533638595045
As 12.606828500409174 10.300605424506136 14.76620075463685
As 9.849552635921714 18.088152564021094 17.30329937424311
As 7.923432244795055 19.581237870371996 16.97068497302908
As 7.654892052894515 17.093826249842824 16.843947379258193
As 15.342011688271764 12.059469636491544 15.787813471401778
As 13.80233008048561 10.45411801583203 16.933112520433983
As 12.730845950032272 16.379664758260535 17.712134982482798
As 14.80364229755051 17.290558801291507 17.335546124421917
