51
Energy = -225.39660538 eV
As 5.852571910256424 15.757999052415027 8.9842774872316
As 6.35350159338616 13.115056959801622 14.302046345002035
As 10.85358275020177 5.981184647385991 14.346833935326174
As 8.64533551291656 7.014215580422265 11.032847730351426
As 8.293296249136558 15.316581360643875 9.352865743208058
As 14.640194523353697 13.26477723757829 10.112875515137572
As 14.606567442103026 9.442796927335483 10.748808697514617
As 8.420426861509833 9.306380538004877 8.774889660335143
As 13.054696922225562 13.043972884226996 6.811781372355954
As 12.526698670638472 10.01686050376457 9.559032641209619
As 11.504137356445705 10.234567985777097 15.236242223129596
As 9.802388223633912 13.543728276130805 5.368937537236915
As 6.630086413188111 7.251927573105193 14.105970592590415
As 12.17898151070947 10.265387911369205 5.44932874164022
As 12.792603610575828 6.451517465440849 10.683960128609536
As 11.330537912492849 4.461109011090694 7.73101364987526
As 14.656101530279159 11.097878411164118 8.862572863012623
As 8.91298881062659 11.092605893968189 13.58459591883049
As 7.888007982114443 12.824147625653671 9.638722119199928
As 6.628102991547095 12.220210723140854 7.577741939129515
As 10.040742311948472 9.22811539419733 4.789776683490823
As 7.135328667997416 8.284430405120318 6.943330518594826
As 12.626754927561777 7.243480957054212 13.555366098188523
As 10.962429585837427 6.956260989726832 7.550463342353214
As 8.511829737623513 12.56602204103183 15.610934386754908
As 13.880931196520711 4.23231174746589 10.798870528077915
As 13.704208130408478 4.825454562714581 7.078011775459169
As 11.474378514889128 4.376063307296082 10.202081675318432
As 10.691459168192244 13.24474601027861 7.692760467832993
As 12.644933786481257 6.698369543023439 5.734039727558577
As 6.438360415071661 9.585984089372982 15.018592830041063
As 6.760790370374972 15.809904830946854 11.261203521438024
As 8.339067415889643 10.420233744451945 6.512672688548626
As 13.815563819130078 14.67995613937249 8.509362824499792
As 10.147956281969298 13.140478551061934 12.680824385068572
As 13.880644828234923 8.796038305242108 5.991127480866765
As 10.375530453255298 15.522030740565357 6.699761907507412
As 6.473185502156284 11.037698593505041 12.949695054553228
As 9.087294416808122 7.59932998511086 13.707200268587464
As 14.637190954124474 5.876071532903077 9.098446350903352
As 8.423677593270364 14.476773137788612 13.964599066812847
As 9.3021999930508 7.129631655489451 5.7202224217134585
As 6.047745880271823 10.101472093423043 8.62767978705344
As 8.936379749359984 9.169543264375088 15.630039679259268
As 6.249705365817619 7.455061955552454 11.59848277991885
As 5.657524299515255 13.714650467784695 10.42717816410073
As 11.264181303407158 12.649778240366608 14.911801025411387
As 12.982944322394582 10.98605653412263 11.815166258939325
As 12.048629904567678 14.590493062095554 5.067207762948138
As 7.182685546132492 5.227946954329119 11.333099410012803
As 11.397113215451398 9.364881030866865 12.94683272231475
