54
Energy = -241.27862847 eV
As 11.326877178241904 13.290022076079376 6.735644033916803
As 14.492440502288371 8.506466860121646 8.755538598456969
As 11.185710515078915 16.62754899946112 8.725714316168748
As 12.382377841161194 14.36967518233582 8.764189127495237
As 15.010006209871285 14.265805679231123 8.480703892389716
As 14.488821373186656 10.816421941523059 7.647496636007673
As 12.002109663266825 11.089089916454736 7.74327604780553
As 12.012990107442972 8.162553016656405 9.031873608177463
As 9.503517395120705 12.604001894124766 8.391629115961754
As 14.790121486160439 12.150406700197813 9.745624787863129
As 7.936597709687749 14.24062033855382 9.245329919468094
As 8.866547139568052 16.492031323210583 9.513562666504459
As 17.165686513258997 11.688717149976338 10.341786012109461
As 11.53383194076172 12.28870137747613 9.931200767588816
As 16.544551063570893 15.527760323865936 10.047833207888665
As 13.322555336623639 9.261495856336493 10.816742409269768
As 12.247373905131862 17.756884749249405 10.694517507869767
As 13.221566815837253 15.511432356322183 11.392136693886382
As 16.102256467219735 10.627561216056487 12.379235283780877
As 7.752852294865575 10.532471464659146 11.717696724019593
As 8.944119613006476 16.515960637861106 12.00384761357867
As 10.295751113252962 7.997132108750803 11.817920962380123
As 6.887856836159686 12.780730423427595 12.233396888569354
As 15.217362572201306 16.8989605715191 11.734395150863309
As 17.484447027593344 13.833278532615852 11.634632287722324
As 10.618087912915708 18.188236797413346 12.41670627607488
As 11.026902066424727 10.01870187466764 13.093781760349977
As 10.033303944370468 14.241277905106621 12.156321798499608
As 15.566498105577773 13.294099018925756 13.159982928055936
As 8.324738047701324 13.882757196702853 13.962087027890027
As 15.907538301301079 15.784000910403412 13.882193919328307
As 18.1036028169439 15.577357590960217 14.731304583184787
As 5.775050566544993 10.796212117218932 13.252428563253641
As 12.189118902210756 14.569121641055968 13.437335806087779
As 17.83551008317276 10.409108097637416 13.99740892276702
As 14.542809015937932 8.089649418646987 14.782755221950122
As 12.52155397566291 6.945438704414068 11.180011782167496
As 17.463518000218187 13.15285542930179 14.87043081592312
As 8.04958419982519 10.041473681734693 14.108632548672075
As 12.669756232009387 8.844071009208962 16.260683541683328
As 14.300550385298967 16.450982495850074 15.752687667128853
As 10.00776785005979 8.158466752879608 14.2854181357826
As 11.853126928901961 16.433381507597705 15.045135193302578
As 11.212869673791934 12.39964755789986 15.612149769918243
As 13.317091967112964 10.198823262053626 14.2452193753829
As 16.544744825513142 9.285913066878937 15.828035706847759
As 8.712118312445803 12.015080492131819 15.546731272697437
As 10.820991969553264 14.674080836620078 16.688514316334853
As 15.049582263885732 11.209660574454057 16.358455028801778
As 14.169620761501665 13.988819819832617 16.1562893834543
As 16.371341655077394 13.188584264945986 17.11109405845363
As 13.675762331840808 10.229018091628587 18.128579226505448
As 11.695570468022789 11.81617853135712 18.033347333304715
As 12.73829919893298 14.096610039718081 18.205693159767446
