5
Energy = -19.39283767 eV
As 11.136163843310646 10.830295800184562 15.904007059063597
As 12.805995036834954 10.570621038765825 7.3235615568604135
As 11.272895407444066 12.803568030189876 14.660848998600276
As 11.139900389637708 10.94025218989806 6.068801948544546
As 10.08024039084036 11.084736660337402 13.652798512826001
