50
Energy = -222.74686498 eV
As 15.847302591067336 12.258020625997345 13.77026443743438
As 15.677725608111285 11.843523657138002 16.336978410852737
As 13.293253063155076 11.787834512278879 14.01338775168256
As 12.90100955301855 15.224017338663407 11.315907181193918
As 14.33524180762687 16.294616758658435 13.065496705242087
As 15.737551282650111 14.706819039689746 14.330881853770228
As 17.399050620059654 15.026639820480677 12.018975681790028
As 14.078458407729242 15.581847568021413 9.179942349065461
As 9.849651547508483 14.947560123483116 10.487262740736385
As 8.676868388843676 15.978820643926896 7.381067805266954
As 10.597494315066122 16.65425835430257 8.773979222841792
As 9.580723170117935 17.31786019303732 10.980085515501605
As 11.943954124346487 17.50531864803506 11.790721896248364
As 12.042988517335262 16.53721477144347 14.121677287115837
As 10.910789299454137 14.288181269153315 13.711762019207914
As 8.77748624847736 15.319827999777633 14.477273063115769
As 7.637194057508131 14.92388216947284 9.318168013159976
As 10.210109384646707 14.135183626567848 16.071055651178657
As 9.178208501929996 11.521214927115686 14.827794187497961
As 13.94045028391277 10.138656326051775 15.794884344286443
As 13.870705168152362 13.453108196540274 15.779811911587768
As 7.121754598087556 10.277606013894475 14.457099798609793
As 7.300570168028732 13.291381691518335 14.641519344184267
As 6.523955032690366 12.006021713375706 12.607265212003107
As 8.544900226710475 11.79840797197755 11.1276948902565
As 12.959355919826304 8.458591673100536 11.745847619767346
As 12.039540586945762 11.917437098176746 9.603005955080443
As 14.4816344034172 8.429549357221479 9.816034236115154
As 10.890838342539295 8.221892314792036 9.091234107475858
As 7.68998436349337 9.628037352718389 10.259540662041532
As 8.964150206320998 9.537285523780897 8.05525048461091
As 16.270957270772954 14.585691190762123 9.855911377251504
As 13.41923906183214 10.200248691774487 8.32626047030437
As 15.502237266018463 12.329190468378458 10.637155923798717
As 10.090448860266244 11.778424213910691 7.900507247402317
As 13.349289693444588 13.426771646233384 8.006789794858586
As 9.72012473902002 6.483541704377889 10.470314214582105
As 8.54207585622033 8.142085492085299 14.675904940285557
As 11.908318851596851 6.170734697713692 11.691122195796673
As 7.83676439792348 12.487425606738055 8.837238834255777
As 16.87537616790596 9.59587174696617 13.123654882318833
As 16.371232809622732 9.68448447300121 10.807543753350538
As 15.3154742798546 11.852323881200538 8.176067962861074
As 17.728003738092653 12.641142464946288 11.854869117384398
As 10.804544153311378 9.037295874054724 14.227944208562619
As 9.71232666599464 9.409803069180873 16.435158521783606
As 9.810773274243543 8.783253991833961 11.281954682462112
As 11.77932912898061 6.646755011295298 14.19835241337262
As 14.143522064883218 6.966514234306841 13.383148653012855
As 15.487612058563515 8.438374006195298 14.828780340108228
