52
Energy = -233.74120841 eV
As 13.229067480537946 15.825530662856288 7.915200028837326
As 11.550327586934271 17.28091515627376 9.10002365937513
As 11.905370438240343 14.887828341567483 6.025334326190524
As 14.848440790789516 11.18126689782696 8.33047922291029
As 12.74510896670265 14.105697439801833 9.635842787529956
As 10.45563546730717 15.53266493743001 11.962850142622923
As 13.675389030171548 13.220717028837417 5.6262288866404955
As 12.708067742755231 16.18080872259602 11.07905896285675
As 8.675081417055473 14.718882310267405 7.811349610298239
As 9.382294235146562 16.14296735255403 9.750986866467665
As 14.978808515122173 12.289653154651019 12.24237029271239
As 11.100760851335504 13.119830086914048 12.148964940545047
As 8.393525967596775 10.658945016974098 6.504367240156276
As 7.17499944270836 12.927260416591082 8.777018781299857
As 9.484538545812077 13.415818189288498 14.14200338485429
As 13.025895278415472 8.211988675354796 9.579520521005795
As 12.36058429337839 11.16271494382599 5.344397800993413
As 13.226685319178488 8.255680252642241 7.105542157706605
As 13.556670968336894 10.341338802115416 11.749640353446372
As 6.833556031507816 13.885791355507266 11.010410064264425
As 6.723899187323798 9.365325630077637 8.867753049870652
As 7.36523303582352 6.910754315722883 13.883199962479653
As 10.020857828187502 12.12147928911447 5.298205426748012
As 8.373452154313187 11.475509509839938 15.225831658366014
As 9.479849624757978 9.515704492875631 16.317443511165962
As 8.980605480598921 8.315510663994726 5.971234795120492
As 11.212862836165552 12.996949626209272 16.117344134222915
As 6.493238109717965 10.85681953550751 13.542739917832497
As 13.194928808639004 13.543341912148195 13.49139312907139
As 6.318096415481848 8.222083492378419 11.0699335388313
As 10.627857885482177 13.262491449106818 7.402937484531198
As 9.69246367929164 11.665997852448118 17.50373886465129
As 7.913543416364621 7.327037422361693 8.04568926186352
As 12.114755604997349 11.415961982380697 14.412645771150778
As 8.747478891856968 10.90144211246815 9.00763885007827
As 8.006106768440377 12.034561601218638 12.02954220268411
As 7.982079558575907 9.05071468560448 12.669754434078929
As 10.04013064081584 7.867197497920339 9.334907605040303
As 13.664319495240965 9.824135927435794 15.557291373252399
As 7.05417232777569 5.841681553384478 11.58806882311778
As 12.436890294528643 10.554758820154266 7.795027276324483
As 11.017802158804658 8.108561980387199 13.315568254448646
As 10.790973890821228 5.5485229392013995 10.00836639723132
As 15.043407383546242 13.191390380228512 9.8658486322138
As 10.946426817897757 7.234461142509841 7.107265948932705
As 11.624751904822194 8.369046844384131 15.71980694787913
As 14.607338138290096 8.798591254605974 13.429012916497804
As 9.769434115730254 6.094493825341157 14.07753592099797
As 13.199090848131007 5.998573839245993 10.772656543709486
As 15.153631882652604 9.391902425790802 10.103169923980616
As 9.36970362881052 4.889467057831841 11.912528272904005
As 13.108354117614269 6.76236345211433 13.1718895437142
