6
Energy = -24.44144955 eV
As 7.452853352215868 8.843454485200045 8.004423820528661
As 9.184291351533412 10.339032861538401 7.656863771116014
As 10.361838848638332 10.051158172377228 9.682490139577375
As 12.423946442618986 11.11356504322438 10.029544922061826
As 7.669729573951934 7.745420365209577 10.095591215209113
As 9.55541407639239 8.461714301174133 11.230010795725812
