6
Energy = -25.05942335 eV
As 9.193056592815122 9.401922762236003 11.053006828947687
As 10.785269426899363 11.910370611758104 8.887006589444065
As 7.490930874353075 9.548430301634923 9.239540024070758
As 8.405954522182101 7.357446854429899 9.861809768750176
As 11.193775645640766 9.6484490969047 9.481903480376936
As 9.415937122353215 8.618304373036507 7.961657124166733
