6
Energy = -22.95766929 eV
As 13.230453727631485 16.445686624868287 11.09751757622623
As 12.375015122037857 15.289130508946728 12.666929156140093
As 14.360588871725227 12.765082960801312 13.738083283314142
As 13.318095051426116 11.65890653097062 15.240387821987635
As 14.136013250373804 8.529741767122657 15.898211208575127
As 12.69619721698712 7.49468780831147 17.073763577012183
