6
Energy = -25.37112164 eV
As 7.4086510988374945 6.389985182092579 8.564992054742543
As 7.575857586478889 7.747296368332308 10.540923017783717
As 9.426141667659566 7.7138413480960155 7.615022347264478
As 8.697292406522314 8.377917559686102 5.420453185270073
As 7.108214282260073 8.58387274304995 7.21470206645088
As 8.474141305582876 9.53387504903951 9.223533686135227
