6
Energy = -24.5566515 eV
As 8.539753075831817 7.472657528089944 7.764665716687028
As 7.1536060395792855 6.710920399986744 9.749474850726386
As 10.306218757204562 8.831492101121945 8.881299921458211
As 10.516031464844822 9.86996622283512 6.68037576678388
As 8.361151336864566 9.959759548394368 7.867462350589518
As 6.677053028317274 8.726460599832793 10.579802988356507
