6
Energy = -25.49516207 eV
As 4.783498076743618 6.206255106872647 3.981482123716564
As 6.193075870790652 4.443553386599092 5.00854146301761
As 5.17324025376699 5.457507076490336 7.094346445905585
As 8.191731637210298 5.577951971880583 5.942611902583559
As 4.097607181736811 7.281282882438584 5.897778479888127
As 7.194436152161577 6.667038748128961 7.7088287572981145
