7
Energy = -28.44060232 eV
As 4.611072090872508 9.485398780130089 9.544371776805004
As 9.138885643715984 8.5721862283811 9.110158751519664
As 11.202588686778075 8.550225610601911 7.790900811434543
As 10.510808436509823 6.539814954699381 9.080297700887554
As 5.155122044379162 8.575239682004971 7.62112413976356
As 9.266400853659128 7.197737039694064 7.055536818605748
As 6.612362388367614 7.557996371152695 6.260194138698946
