7
Energy = -29.72555485 eV
As 10.428195198243104 9.30931943506443 8.024239527097825
As 8.883537715169007 8.773601455330848 9.859794213263887
As 9.202625296923534 7.018200619002562 8.1197091954158
As 6.581656457916375 5.8879427360978935 8.887782060445318
As 8.095752853337613 10.132479599628773 7.924273326007066
As 7.5624007850089665 8.091917992326122 6.540060254998669
As 5.434521114436901 7.1433163393044135 7.416614535621072
