7
Energy = -28.84694156 eV
As 8.189371653175945 9.593074060520586 6.286548236619787
As 6.077751422025412 9.249919418403735 7.506681147668532
As 8.650633838288442 7.21228042466822 5.858397233316135
As 8.959815805083057 8.773197734414795 8.503185216485821
As 6.813919436962421 8.414298005563348 9.73167661009837
As 9.394368492832752 6.348909476129281 8.0706268357167
As 7.777138061977128 6.196667886425067 9.86362477422192
