7
Energy = -29.94900098 eV
As 9.994674863777124 6.27711471806613 6.904649163256087
As 9.171003257567845 8.469176564673564 6.256215470278545
As 9.253463606927836 9.661896514578574 8.573985265641776
As 7.71411765870856 6.586211970413455 6.961522130703872
As 8.103545531877932 7.823399126140627 9.743452521997197
As 7.363222287759987 9.79091207494732 11.066155220660134
As 6.7956986289391565 9.6688704243037 8.702739366237312
