7
Energy = -30.41927122 eV
As 10.057542152102352 8.388034522737906 10.897897190958217
As 8.953826077439727 7.214091945668753 9.03220558869015
As 8.789678757427911 9.051943680467696 7.293595164337322
As 10.917387005923077 10.202847642722459 7.647387851435181
As 7.579289181848901 8.53978055762201 10.639496588196538
As 10.322883187701473 10.727742516655296 9.958960329407526
As 7.953865258354973 10.55687178746171 9.13044450420586
