7
Energy = -29.79218855 eV
As 9.528825832744017 8.569075599175392 7.239213821683536
As 7.927967331602802 9.538069991200018 5.8437165628470025
As 8.801839681447495 7.103454200684292 9.052223195420956
As 7.5441494520734285 5.154951767484756 8.115832347384117
As 6.377529069423024 6.740141779986101 9.560297270622959
As 5.830322905914177 8.531533343399051 6.0043758382505406
As 5.584451926349438 6.423019999026371 7.207563278139726
