8
Energy = -33.64039201 eV
As 7.523235465667529 9.118731144003704 9.152834066220464
As 7.003149958903477 6.7970030168450295 9.695185643083283
As 9.91066388819742 8.28222860056092 5.115379213691736
As 8.341567601926 5.683261492629634 7.691711309152793
As 6.0096694389643295 7.667807004086076 5.9661860601754695
As 5.379210639867452 8.159881629033633 8.492355422621495
As 8.302420155296755 8.008711075936773 6.847232276137388
As 6.578777653466039 5.33107083919323 6.087810811206621
