8
Energy = -30.01090284 eV
As 6.61785961587943 11.067872804993423 11.712646302481446
As 11.79273089364909 8.616837216005212 9.602873220051539
As 11.23933908926436 11.437346333671973 7.160953245642473
As 9.283665518351118 6.078757481207152 9.923395950663602
As 9.984753223213229 12.089634625684614 10.564849722759956
As 8.683121151095909 10.248745780837819 11.293949148491967
As 9.436620114480963 8.350539518018223 9.32759186253343
As 11.943378667891139 11.082006166606964 9.42589924900925
