8
Energy = -32.34224288 eV
As 11.221492961071124 10.998763268162495 7.542068910080478
As 10.63228611159569 6.687044035267147 11.235795441687493
As 10.903746439994428 9.01816232855382 10.700999417221261
As 8.586808381264673 11.959251790106137 10.211821022941615
As 8.458917354330397 9.59059995871098 10.881456274481451
As 8.982587514630142 11.347065638140437 12.523715219012288
As 10.888257546229495 12.446488822040603 9.40514146921063
As 11.097820790605933 8.798429025759502 8.250343771860233
