8
Energy = -34.88273751 eV
As 7.9811691776261835 7.5185285365720675 12.09711458767598
As 10.73888243010077 9.60784611769303 10.809446414322503
As 8.259942719629464 9.52985565566599 10.643025294884708
As 11.013734172483604 12.10118580998761 11.061829480519728
As 8.065964753322465 7.172519630462531 9.866911713297645
As 10.532921645921137 12.563602912317858 8.653302805640639
As 11.342602834660767 10.210976579980244 8.43461820192132
As 12.818720786762665 12.012585651386985 9.336661580035914
