8
Energy = -35.24094435 eV
As 8.805398539685843 11.521214268137863 10.434287828253675
As 7.723068326096841 9.533460339945623 9.495852395873097
As 9.87056959476535 6.908644048731703 10.011605239719758
As 8.295569605118883 7.946775013999143 11.32031978775375
As 9.510599083782784 8.49125106140061 8.114960618504696
As 10.438993638055573 12.229096800770481 8.702250888615477
As 11.434873646741128 9.961136464910066 8.50972495280435
As 11.220184027283889 11.039056537817718 10.727342869698443
