8
Energy = -34.40578321 eV
As 8.273329961097781 11.576299696684583 10.624096712908958
As 8.083916282515649 9.165023533177443 10.903726431210007
As 8.061915989332148 10.124519288716975 8.66624914289561
As 11.956345043300743 10.026873908023768 11.036484558197266
As 10.388779898691066 8.057452949361933 10.915728466979699
As 10.736389161740506 11.985356054504928 10.299993146020284
As 11.638711429171375 10.450880505371158 8.575059135453698
As 10.479900302400537 8.228825328580456 8.495740912407738
