8
Energy = -35.42246612 eV
As 10.584765036036323 9.368707334274402 9.463305297822776
As 12.728091876864028 10.738533687301691 9.207296132164892
As 9.20578932727935 10.816725248886291 10.89104121605606
As 9.032418690457478 7.332179815697174 10.250100451529311
As 8.747654988019123 8.628310940355776 12.278754533998692
As 10.95323390169669 10.886265512940788 7.4904380151178716
As 11.018313342040583 12.427202226171211 9.36827171825765
As 7.344677894787285 9.114896495399881 10.355804472022351
