9
Energy = -39.09072817 eV
As 13.144161150378602 7.981554631816671 9.708033983090973
As 13.850467943156238 10.081553353758501 8.852993622056786
As 11.104816786664731 8.13857356223467 10.790933917689479
As 12.318133184974524 11.7510968353305 9.318904483545117
As 10.658967469430749 10.48774163107335 10.518484412154379
As 9.872097965112161 11.675192519861389 12.641014471039469
As 7.536516297910619 10.94014323228893 12.198368788725674
As 8.261638462256542 11.038079065707345 9.820211726482865
As 8.334529095115762 13.064153811729758 11.263184723037941
