9
Energy = -39.043999 eV
As 12.582702436992546 10.542174141464642 11.768014188535442
As 12.761927467376283 9.883223361783957 9.284839459932323
As 11.34412888724351 7.864350715643545 9.71969062518465
As 11.164157689679525 8.523381808128159 12.20033424341938
As 10.494914672177629 9.734573010689546 8.419119936609272
As 10.215755839702004 10.76064023692304 12.278634250522863
As 9.169005168363071 11.064408370081802 10.046246168989487
As 8.345267829156793 13.19661454673272 9.416731412096384
As 6.823333847056497 11.31255978125222 9.821918679160328
