9
Energy = -37.24344206 eV
As 7.409314973057353 7.942958672466862 6.506073982488217
As 9.937138320580457 7.943342340454944 6.50599190338332
As 8.672879631336219 10.132903902973995 6.506124276309255
As 7.202881312181795 9.521065565651238 8.673043634635228
As 10.1431205982277 9.521449850403402 8.673024676684394
As 8.673432428354817 6.97571899954708 8.673326160193744
As 7.409342054033309 7.943472131949217 10.840367508662407
As 9.937166608610408 7.94385661584161 10.84042873026706
As 8.672907313762861 10.13341542071178 10.83980223759394
