9
Energy = -38.64754208 eV
As 8.845206179002059 7.945517530539371 10.616604891391813
As 10.772683978427343 6.9535793185851045 9.462275710384914
As 9.726074586148298 10.204020624794016 11.023138716407905
As 10.20586134090155 6.427711607252372 7.289334375897447
As 7.240251128616687 8.31449648441998 8.752320230321525
As 8.489927926903556 11.75005959152885 9.84084438197736
As 8.07110584031354 7.332322997625665 6.567760205352466
As 6.958650565654287 10.777172004707799 8.224123871058616
As 8.933701519665675 9.558561240641765 7.30109400834227
