9
Energy = -37.6156799 eV
As 7.94418900922556 11.802866432049672 9.466429802988682
As 9.562355515121718 13.288336591639524 10.136216956795954
As 10.514899206098596 9.252332714641796 8.371352069812371
As 9.793913697532917 7.299404749479521 12.17225750543225
As 8.677897275111192 9.53307129113205 10.048761414193264
As 10.30215106642593 9.74553833326677 11.937597696987643
As 12.273755160056194 10.82834907813874 9.055003176904272
As 11.461303632962089 12.10196853140264 11.007574418453459
As 11.97133722844412 8.671977827860207 10.327200583252347
