9
Energy = -39.38155961 eV
As 8.493090783869036 7.715343112143266 9.572336832947814
As 9.019779998416375 7.2659011038860255 7.215288110736088
As 9.61262347529153 9.432740712237377 8.22005285441532
As 10.826609498177394 7.397722720299463 8.873440696869828
As 12.264841912728693 13.247432820277432 10.967734579145981
As 10.19321101771722 12.1496934109023 13.223536940107245
As 12.469621620299849 11.32228699921399 12.565087308492412
As 9.806432202301535 13.015591661101992 10.943214041255116
As 12.246747407020576 13.574692941485866 13.456570509117748
