9
Energy = -38.18737496 eV
As 9.719495640832752 10.497108751238313 8.718908817759393
As 11.492584781152024 10.774047672044786 6.950744381225128
As 10.272516053687884 9.122632777092395 11.868933207814905
As 7.9550541904930325 8.796422874933816 8.609595964402166
As 12.999180488200022 10.026233360128181 8.50673448183448
As 7.991251246538616 8.331637482617984 11.034650894000572
As 11.128645451850092 8.700305494091058 9.530680962547034
As 9.538020951242773 11.442910317862438 11.508521733429108
As 7.3555162558307705 10.66062181457966 11.754115394152704
