52
Energy = -114.33735269 eV
Ag 14.470713575443499 15.723417410073655 15.418618483931485
Ag 16.090578456342268 14.9370597180907 13.236554400890242
Ag 11.999679574029656 17.11122456066803 15.06504350711572
Ag 12.781798179527708 16.346976725176855 17.595367103359788
Ag 12.54558289228469 16.815993687477548 10.215088787187806
Ag 11.30156278383124 17.874874520309778 12.453722362066596
Ag 16.253501508118998 12.042440866872626 12.55749120944751
Ag 17.33092878488931 13.97603710932019 10.860410392817773
Ag 13.70047159768883 16.477007586618733 12.814068799341364
Ag 15.100226484699187 15.602134789788824 10.486382303591931
Ag 14.713411689066803 12.92593294934103 14.77755189339122
Ag 15.163561027906347 12.590056971059916 9.79808384052547
Ag 17.59080065440631 11.25925245283778 10.239889182637478
Ag 12.064109934554757 14.252569261646672 14.413667786065144
Ag 16.52130194591977 9.20783403836089 11.879614365690081
Ag 13.858292457237575 13.653747693964352 12.1262806268164
Ag 13.089972879187926 14.300118929304269 9.000207971751607
Ag 10.760864813884107 15.717302422878923 8.31427164468173
Ag 10.525206041857427 15.041621115345736 16.56881245168413
Ag 13.094394558634367 13.665969675888178 17.028037935355847
Ag 9.69953298648647 16.086947866849364 13.817388294407884
Ag 9.463551367269014 16.577874548837382 10.7655123628933
Ag 14.922935351133905 10.125940452687525 14.10152647420102
Ag 15.49916293115543 9.731014416292128 9.083148941376892
Ag 11.322470917277519 14.81171817593439 11.778416102338522
Ag 13.987469622241594 10.321257840918257 11.392899709112807
Ag 8.029398981301288 14.504409013156023 12.225745916700962
Ag 14.039693467452304 8.20406320705588 16.01522319147334
Ag 12.408808328468124 11.619014637051785 13.509729862196444
Ag 9.416967725401912 13.857142540750857 9.819638608678154
Ag 13.422715916899401 10.957221730541642 16.289231913717295
Ag 14.874859689483463 7.403443585896107 10.511560401521304
Ag 13.303011096417729 11.260786097180103 8.223524351568638
Ag 12.045438685678478 12.252670940013022 10.528741389377707
Ag 10.868545358605946 12.122586854799252 16.267341893000395
Ag 11.191760367912057 9.812980292634151 11.676745634701753
Ag 9.094020123282696 13.52383565224107 14.728740677709931
Ag 9.831679887539027 12.310237681765667 12.227239595818293
Ag 11.025600832878471 12.78854373290813 7.7868189397879535
Ag 14.639833232272784 7.464363129801257 13.275029858399899
Ag 12.26729373051587 8.732162868500614 14.031077266041539
Ag 7.307448092728451 12.210017458515585 10.680381964893074
Ag 12.79884235106108 8.680710558927956 9.19937132442818
Ag 9.80145791948319 10.323016523254783 14.282631241492522
Ag 7.397497083084922 11.767129673543032 13.463343138396459
Ag 11.217516398797988 9.32939531944793 16.541746882984544
Ag 9.599038068245854 10.996989188536539 9.524047489023527
Ag 12.291901284954402 7.215183380298483 11.564657990927934
Ag 10.994241474776588 9.857987839876902 7.445451954515587
Ag 10.05922659479536 8.210823979034547 9.753588389914785
Ag 8.350185752800314 9.727685511578892 11.72022900704907
Ag 9.886349179080902 7.714379046820816 12.963004377700068
