20
Energy = -40.28409514 eV
Ag 11.213986860874957 9.855647737528393 7.32858235181616
Ag 13.394552944201124 9.849555870639596 9.057739513343265
Ag 13.087405040595835 12.624919249247958 8.963755075025912
Ag 9.20961896145491 11.856059561794268 7.460538600163768
Ag 10.396822481744392 13.7776552328621 9.215945993887884
Ag 8.826210709547338 7.055394980986436 10.428346580236857
Ag 8.743091138341374 9.387551049846842 8.723479925778879
Ag 8.18961879606861 11.930479581745457 10.100345799379994
Ag 11.195010048089408 8.31993903815128 9.779230977384673
Ag 14.1956254153084 11.27719405826475 11.27626528471322
Ag 9.064905840576069 9.622240810146574 11.46452708639231
Ag 10.872389032951299 11.12292922542324 9.749937676270841
Ag 13.507410806122964 8.474811769588005 11.489617474228433
Ag 12.026199594829732 13.076192947877724 11.537229846857079
Ag 10.850061418640403 7.721975762774354 12.482689955947272
Ag 8.023859161374839 11.719183970045604 12.925250705016401
Ag 11.768953757104407 10.400248851544273 12.395410870200587
Ag 9.352284052955365 13.873767839824831 11.80603896547006
Ag 9.69166234118686 9.79203257175651 14.169113154354894
Ag 10.600683220272103 12.47257151219206 13.856305785772028
