28
Energy = -57.75224619 eV
Ag 8.615766398469962 8.932008808550354 15.560232547682435
Ag 9.980804649250322 8.341020913403101 13.22131379854459
Ag 8.82127450013742 11.076920176643469 13.837550518316153
Ag 7.236112287330384 8.871383601721833 13.055144602760725
Ag 11.187853832800684 9.997447177867889 15.109675246938021
Ag 8.85733685155432 8.47823675480541 10.6775267866634
Ag 9.2438530099025 13.231070812903678 11.981460616887867
Ag 7.613604717885745 10.946756495765115 11.22582711794256
Ag 7.888505612970701 9.97731201972924 8.482048920408793
Ag 12.67985702498249 7.919764781884916 13.776227635006773
Ag 11.171238433927908 12.563123258272661 14.001446788355022
Ag 10.510193011394804 10.801214562538252 11.495178122225916
Ag 9.170936613507406 12.272672169735138 9.342327131984673
Ag 11.161975883282043 15.097920758889671 12.597367135722603
Ag 14.440286608020427 8.491025636237957 11.668966841644606
Ag 9.802953296218185 11.486250895365684 6.800787758248136
Ag 11.750508998050009 8.319777145794681 11.03654075720407
Ag 12.991101351131833 10.540606859470058 13.005651767306533
Ag 12.154990786211647 11.662236570776335 9.415576361249187
Ag 10.989646360102322 14.304063917306811 9.847589795728773
Ag 12.698286800153191 13.012996809873977 11.733528424107766
Ag 9.438961396393578 14.279234848897646 7.446073248028444
Ag 14.604035791074654 11.162337944964191 10.740389290521177
Ag 10.612307493105394 9.428383323810378 8.686342857257056
Ag 12.423114635627066 10.53481125954118 6.804264362927175
Ag 13.555806031780044 9.211298279817225 9.010496472263652
Ag 12.013906597478782 13.332550138942166 7.256355072431919
Ag 14.522690244502272 11.928345697523964 8.051556396630222
