41
Energy = -87.74279833 eV
Ag 15.237491498890726 12.14202476312263 9.33093594516401
Ag 15.308281828432905 11.318966138751607 12.027447788945654
Ag 15.54004539705865 8.85134780665502 13.171773575438854
Ag 15.916862819208262 9.069738332271093 10.280264192635325
Ag 14.746140381174724 9.942086521678213 7.539157275901826
Ag 13.009719826150736 12.555311664389242 11.052370822944367
Ag 13.42956583107161 14.465542751792173 9.08451618424815
Ag 13.89031790397122 10.162351896328708 15.294121907302092
Ag 12.825865930119908 12.012576148932157 7.960188908666816
Ag 13.480627871413192 12.628988377186872 13.815199254826702
Ag 13.712268261816282 7.521609347982049 11.4910827260497
Ag 13.405695851996391 9.990250663911025 9.9690965756317
Ag 13.474799031006333 7.478710679509113 14.32519064334001
Ag 11.982889762183875 15.10475323443472 11.582824060485382
Ag 13.782794222227537 7.562144168104096 8.678581591339338
Ag 12.812871752451205 10.000358117606423 12.769091151804515
Ag 11.286245374376023 14.20104986527419 7.150903022728609
Ag 10.143284801160455 11.681896150672348 7.375017122202519
Ag 11.216130627159279 16.204219652421838 9.061604786383562
Ag 10.534005767751527 13.337447673373397 9.810120279472473
Ag 11.310688250018373 8.819323511073971 15.422809523578666
Ag 10.001628388123416 10.169253966467469 13.393486242544466
Ag 11.772180739383415 9.413461860336772 7.680408981065688
Ag 11.3357755945703 11.632914405458733 15.389755525530717
Ag 8.713980607466866 14.800647519487915 8.334455251852797
Ag 10.844833264577634 10.66633064236122 10.706055331988917
Ag 10.813602772774928 12.907825137229656 12.890872280828576
Ag 11.15383510306849 7.5854976469734465 12.782093955927776
Ag 11.224941402790906 7.903915388780284 9.987507525070754
Ag 9.288064978888913 15.817484931789018 10.954113772243632
Ag 7.85531506170423 12.126047270819848 8.844882988238767
Ag 8.545139077103574 11.92363839527298 11.5909778831305
Ag 8.763879624014747 8.475843221137534 11.452092566642168
Ag 8.795726218120622 7.876190119238393 14.282441667929637
Ag 9.057435361225197 9.514936214094568 8.846794502431157
Ag 8.32361307893669 14.403312797280845 13.084564068813393
Ag 8.529016762401227 12.106668406455313 14.621453880352066
Ag 7.054520949165513 14.159087618530524 10.57826287085813
Ag 6.679881395843475 10.16649430508105 10.51573315271135
Ag 7.127147808506899 9.920009237121285 13.317567995482834
Ag 6.193607002240313 12.537364235750825 12.785570380184492
