28
Energy = -57.97865755 eV
Ag 14.52384455080166 8.41881220359276 10.475046773938782
Ag 16.422054677880094 10.55506132988881 10.617448790851265
Ag 9.787137554872034 7.1732446166908 13.080588645327783
Ag 12.238039066322692 8.466710601706424 12.32654161151588
Ag 14.483648446126606 10.218958609136168 12.581651893047448
Ag 14.571474375221259 10.632438974698273 8.589193663157143
Ag 16.29287417795098 12.460680523740773 12.641329293443121
Ag 12.531673952668363 10.265463827611185 14.566412154493678
Ag 12.236132275572785 9.81485303473431 9.79438303364313
Ag 9.920393998747496 9.811639390991473 13.94983207156479
Ag 7.492431624302351 8.886072254198194 12.899661046011074
Ag 14.300820491694042 12.484838662491901 10.723587171262915
Ag 13.70012010480133 12.667170144521252 13.790744527779147
Ag 9.732880101176018 9.179796379389284 11.18651665127835
Ag 14.767860816729888 14.817199324757526 12.30375488050343
Ag 11.659175502082727 11.374949072259444 12.036173080095969
Ag 10.754898582730485 12.49864465106989 14.40572698179173
Ag 12.430823872549887 12.45464816870464 8.66012739595869
Ag 9.96024824294222 11.45400651899158 9.68250711177551
Ag 7.9049502273964025 11.714834256338792 13.983193960852898
Ag 7.6101756590172 11.042877994653217 11.213289555065485
Ag 11.986738607090286 14.252534619291511 12.31645568618639
Ag 13.35087981075347 14.968925343937492 9.910091901459133
Ag 9.337377479140365 13.27264976774062 12.148472285379043
Ag 10.655697161983479 14.26212234164099 9.881705706453946
Ag 9.894310521733434 13.107069726306655 7.492839512111826
Ag 7.916099482546126 13.345837791457834 9.641867879385472
Ag 6.596089043124853 13.456810277416944 12.159707143625143
