10
Energy = -92.74459967 eV
Ta 9.513239240996542 6.664793141502609 9.610129256577245
Ta 10.52033245480613 9.100310504290295 10.107232597204083
Ta 9.314573258729686 8.251686476584421 7.615036199710713
Ta 11.207361315581753 10.078503503735947 7.718190354145843
Ta 7.470576462885589 6.676525480965937 10.981662485604883
Ta 7.118728590437508 7.100196342427546 8.517590986235117
Ta 7.912929611434381 9.080408014061666 10.373469720632245
Ta 9.132916590176634 10.658874299208545 6.483147042004287
Ta 7.04576162150703 9.728735185608258 7.974127605899146
Ta 9.144343794119584 11.040885438489394 9.001322662670928
