15
Energy = -143.24771323 eV
Ta 10.746528559457515 11.19431717317783 8.010794937536708
Ta 12.374473253807516 13.083998323242962 8.754119026718358
Ta 12.944149734214367 10.47340926217225 9.142972195425177
Ta 9.83572075924988 13.284242082405802 9.392160458935384
Ta 10.642294037784705 9.273106254124796 10.05287357632892
Ta 8.694973279059727 10.935872732075882 9.684577409514263
Ta 13.706071760155915 12.331962958497655 10.840125844913482
Ta 11.64259887817439 13.961662373317203 11.170612180693638
Ta 8.62301433109766 9.593809555620936 11.991870650148334
Ta 12.555868009829947 10.014103782616075 11.759970035281501
Ta 9.760174835138079 12.131694673186061 11.850629641712402
Ta 10.661206593427398 8.177245355774037 12.577080542237454
Ta 12.195012063036456 12.158209717247226 13.085799863959995
Ta 10.033255494768003 10.537359865670366 13.943336388533828
Ta 12.11623822722191 9.380585707293998 14.274657064483765
