10
Energy = -92.78563099 eV
Ta 8.644403608221824 9.498411196230158 11.05111326397316
Ta 8.644335723674718 9.502642563707232 7.951894225772312
Ta 7.741729794972884 11.462750320848176 9.505797258532215
Ta 10.375024020243185 7.9535949005412485 9.502979531925167
Ta 10.371064495329119 11.051757287006698 9.500077706364047
Ta 6.337060818277727 9.497420298392523 9.50170727394445
Ta 7.746845270381695 7.535871093440992 9.496997520172224
Ta 11.256390736447228 9.509155330055126 11.504443928380157
Ta 11.256372287249674 9.49845677632864 7.498775553289421
Ta 12.642248120542575 9.505415358108975 9.50168836366873
