14
Energy = -134.41614057 eV
Ta 12.152762825099 9.016876803848973 10.107860371838502
Ta 11.151781053013032 11.534863383854658 9.104608644185374
Ta 10.820894749990135 10.586196144147445 11.843843574440955
Ta 11.429419605743151 9.120013238736023 7.559557990201842
Ta 10.196464119812116 7.967651226399175 11.655894458718166
Ta 10.429800157540253 7.043427545173211 8.903543425751165
Ta 9.498951600297705 9.640849405471371 9.535591381054335
Ta 7.912308560914686 11.349804651737628 8.731055628112491
Ta 9.18349439502529 12.17953415128379 10.914972565821433
Ta 7.995979877046583 9.79635785591329 11.594511087077974
Ta 9.73682069271591 10.810840169673833 6.852994540634818
Ta 8.10622846731973 7.2841307884673565 10.186586512447548
Ta 8.575829276574407 8.37577192974358 7.495461485428657
Ta 6.615734892123277 9.094573590497143 9.323296899208644
