10
Energy = -92.24164454 eV
Ta 11.421972006019418 10.245201350801253 9.131426341601676
Ta 9.682515458719386 8.781344350869023 10.88133301873117
Ta 9.502398667676287 11.287906612473627 10.64433567026702
Ta 12.114077813274509 8.15278449577736 10.026857432281654
Ta 7.292765293088782 9.959321010798192 10.376883999368854
Ta 10.272447416753348 7.828620007291618 8.229267577711477
Ta 8.960986589895597 10.26000847106698 8.23438513776722
Ta 7.872277352150522 7.553455472737957 9.31772652202337
Ta 6.39122515409639 9.341136227384323 8.028567566088729
Ta 8.103465000283782 8.206426547486705 6.743785822784772
