15
Energy = -147.19436688 eV
Ta 9.156671039397358 9.15667655921077 9.15679248271182
Ta 11.766297453847644 8.872619321953826 9.197407197890099
Ta 6.546978608078243 9.440675993968362 9.115894071688784
Ta 10.263401384043322 11.537014149044403 9.112697504278453
Ta 7.671030322962049 11.790231166510816 9.110348178185518
Ta 10.642272968589841 6.5230900215610115 9.20299873634778
Ta 8.04993023667528 6.776317092358432 9.20056988315055
Ta 8.418709655424365 10.468189313375822 11.30814808822691
Ta 11.009891068404583 10.204262187573411 11.304332206870193
Ta 9.913503364416915 7.818259321374129 11.36912420782399
Ta 7.3043063085795765 8.114091881008758 11.30751225429516
Ta 8.399811555567831 10.495066986419108 6.944108543612156
Ta 11.009021275559977 10.199233777608498 7.005807036368421
Ta 9.894617373780282 7.845085506112216 7.005127374820182
Ta 7.30340488467313 8.109034221920702 7.008979733729858
