15
Energy = -144.25753029 eV
Ta 7.106376002629818 10.911056484474887 11.108601990385669
Ta 8.297054703899958 12.25183215242053 9.269785729964978
Ta 8.701644860662212 10.791880499614026 7.23814654482278
Ta 9.246753704748508 12.074728863312258 11.894185386592836
Ta 7.678637457826987 9.295310641056641 9.133067462594443
Ta 9.9722030193959 10.311980766294843 10.0102705785586
Ta 11.099635713544595 11.479575806874845 7.973698131425352
Ta 12.186952554022485 11.289134783760467 10.94496304250366
Ta 10.297546438109666 8.851654654885492 7.618882790603378
Ta 10.815245772764355 10.411756518222525 12.979725588936168
Ta 8.745150450650135 9.104372101027339 12.043144809371023
Ta 12.737398215754713 9.649750070257335 8.954573348931865
Ta 11.69679289883695 8.596649721045084 11.430828468121911
Ta 9.453436459459041 7.406252781220031 10.024868032766085
Ta 11.75074223530704 7.344928295566709 9.151771960426801
