12
Energy = -112.86904699 eV
Ta 8.297090972590379 9.347080373473455 12.759498384100036
Ta 9.359758398896828 11.60343267630114 12.093817301800893
Ta 14.362813905771327 11.110000482418634 10.872610592470748
Ta 11.260963302906333 13.686334977483254 11.66260927840135
Ta 12.973186034581081 13.016375394082035 9.594242971375847
Ta 13.80995370949951 13.32279175368728 11.938523499340816
Ta 10.478744383686756 12.395076093912254 9.573555197205854
Ta 9.89534145941464 9.908777068727403 10.173582420488836
Ta 10.706710898167232 8.778562575588994 12.276702846203554
Ta 11.978794426620011 11.14182159536772 11.974356673082383
Ta 12.410210415293893 10.448848400021909 9.329498482603617
Ta 10.173083866739187 10.291988028476924 14.216437651630343
