10
Energy = -94.11355717 eV
Ta 7.65176711829648 10.522161989909062 7.118385552261668
Ta 6.257907198312099 9.007470854353354 8.678149491014658
Ta 8.202325939921785 10.56996104420602 9.598155655538259
Ta 10.163740656696174 10.428331030985873 7.820786368133708
Ta 7.866024523654945 8.144584249146314 10.589155177096577
Ta 10.398974231309595 9.01182837659556 9.985222870248307
Ta 7.123605295375486 6.5815991559175435 8.72716949450443
Ta 8.536146705148598 8.121402030142132 7.224587621138772
Ta 11.069579674290637 7.992293235477869 7.749588047591677
Ta 9.644409652084857 6.593272539724208 9.420922341390703
