15
Energy = -145.09346818 eV
Ta 10.418799508154137 10.945783598460247 8.266722001246762
Ta 9.118440839439954 9.99097410361814 10.128691752141258
Ta 12.632592389924284 11.904930421771217 8.761010873732243
Ta 11.914057211990446 9.35368572804499 9.879978709544822
Ta 9.973946318022097 12.931166701552307 9.896573649982761
Ta 12.515636405660969 13.780371301732666 10.598342877164338
Ta 13.665589692523378 12.789288646828796 12.659468140075155
Ta 11.390927212556273 11.39258797130351 11.390818393492186
Ta 14.043863804043704 11.054139572796245 10.721510362150005
Ta 8.739153132618902 11.735088238562788 12.059433338469534
Ta 10.279652872177275 8.997890127467896 12.18561751932732
Ta 10.871108110653454 13.431556786886865 12.902677171958695
Ta 12.80909410397262 9.853813943045997 12.888118929733396
Ta 12.35971849800838 11.838050167247964 14.519151470728453
Ta 10.146133953579602 10.879386744005178 14.020598863577877
