12
Energy = -114.09900396 eV
Ta 11.404402004223638 9.694901247512716 11.725523352832568
Ta 10.05017462911096 9.936885256826084 8.99742011411462
Ta 9.646843967077526 11.628750991654641 11.50792262865816
Ta 10.488411115775842 7.429112481886478 10.505158355171654
Ta 11.824660482238041 11.671349821432232 9.966844302858421
Ta 10.43191723775291 7.7485615653153985 7.923399265624743
Ta 8.04349879483417 10.349213420346674 7.623508233192546
Ta 8.030515208593611 8.138895811737557 9.345933393737258
Ta 8.781713336739198 9.08488531383449 11.672246083268414
Ta 7.444787811876889 10.772300847245033 10.127961820412073
Ta 9.27010302643268 12.415752199779313 9.026038511284083
Ta 12.427256570981745 8.973675599340215 9.422327567571683
