14
Energy = -133.33096542 eV
Ta 6.46583712584727 11.805780821628609 10.050669938059938
Ta 8.89838189495879 9.137718646676667 7.175461239338618
Ta 7.338925471065491 9.749185888661755 11.312100694333783
Ta 10.778914235270467 7.252525021430487 7.961853763506109
Ta 8.794842728900415 11.129533002465958 9.063591708199596
Ta 6.658987860987939 9.464391461930857 8.784095159961641
Ta 11.128872751451526 9.87616607358654 8.599101838887895
Ta 11.421850262099806 7.5548074723264005 10.498479206065355
Ta 12.723747500926233 9.822434409130148 10.805802428701233
Ta 13.149841458801667 8.214313399565205 8.719441726993113
Ta 8.862065540773468 8.159085108067632 9.629174408350682
Ta 11.066863849626733 12.000086612796279 10.336630376120977
Ta 8.607924750947562 12.03578562082788 11.624442285942484
Ta 10.105117658695836 9.802144865588925 11.443586108331267
