11
Energy = -101.83842507 eV
Ta 10.817695012512253 12.81084485365568 12.614806647590793
Ta 11.297454540859457 12.733553844924316 15.223474038919878
Ta 11.557209328583989 10.534010761429364 13.235861899926835
Ta 12.508971210878654 14.420646391834747 13.83362807759864
Ta 13.223695694948127 12.580531866320062 11.623723282737235
Ta 13.253508586954165 11.34959533358601 8.947961275908266
Ta 11.096547345432656 10.09918353023816 8.799935958388401
Ta 12.767884104644072 9.950087682870793 10.93069829061432
Ta 13.455143263771909 12.078887188886378 14.141480446300765
Ta 11.164314487660034 12.49096044875336 9.806934856212392
Ta 10.015728102489357 10.453802345798952 11.054759888906336
