13
Energy = -124.02544171 eV
Ta 9.306547693599507 9.30653210051203 9.306316812720942
Ta 9.320019812598353 10.70006466734555 11.572942967547881
Ta 9.30963346412756 7.9114377234036475 11.56010078779208
Ta 9.303562418445136 10.701615232312303 7.053232752769436
Ta 9.293149441386577 7.913278177176108 7.040409145452792
Ta 10.703415135716316 11.558647787160398 9.304254429644272
Ta 10.703078928066159 7.034520561729073 9.319328239466719
Ta 7.910093702262962 11.578654265217699 9.293822700455653
Ta 7.909783017378366 7.054583742366831 9.308862954608914
Ta 11.55822455595963 9.311713732096196 10.706392898971975
Ta 11.573287415895594 9.320485029706509 7.907507076967151
Ta 7.039803192071844 9.29270856469365 10.705705669798194
Ta 7.055116536855139 9.301473730643018 7.90683924944111
