13
Energy = -123.47913937 eV
Ta 11.749833722118941 9.471853808409886 10.895179742038906
Ta 11.665958011033743 10.137079786618052 8.350593536231031
Ta 11.473070520364091 7.606825883497729 9.037424001201472
Ta 10.288935739084664 11.650068045768181 10.164458601011656
Ta 10.098800995920783 7.436931109566889 11.273489591491648
Ta 9.407559902569512 9.856814177479865 12.029496553819348
Ta 8.91954399105587 6.92003253381854 8.963489412224229
Ta 7.648385320636134 8.277094598274862 10.810862432851618
Ta 7.75042660842803 10.858659143238192 10.204464878268581
Ta 9.893468408740441 8.549608508861892 7.1575339036936825
Ta 8.416945886664049 13.196453418604037 9.120855071043717
Ta 9.227382940558606 11.035865031633994 7.79693770840341
Ta 7.499014437198686 9.049464701581243 8.250298849915495
