15
Energy = -143.96203278 eV
Ta 9.448429374408558 7.860061273949394 9.520103705915693
Ta 10.925550173830873 10.8759467384811 6.4756321537737636
Ta 7.188749244281409 9.016439509659232 8.925360714307876
Ta 9.87990870813366 7.897337544433603 12.294912616067318
Ta 12.487740046336382 11.08246003856663 8.622227954428148
Ta 10.843850295512695 12.956030556318291 8.113069252919411
Ta 10.438692989474854 10.288859776497352 12.980444696140475
Ta 7.965065329230251 9.435700518808934 13.305403650150824
Ta 7.449275138997809 7.76384468687043 11.35078209354665
Ta 9.048953458164325 8.80251720166421 6.934851496435468
Ta 11.34027332498976 9.481671577389857 10.536286020231685
Ta 8.509546035017504 10.307681099614209 11.037625483383616
Ta 11.487770380392616 8.694417401388622 7.875725611614059
Ta 9.443601989333864 10.72277058546306 8.686612439402884
Ta 10.815036547186217 12.08987039349044 10.610561813581308
