11
Energy = -103.90728942 eV
Ta 11.678418528357854 11.124334193450963 11.069552522712277
Ta 11.934565136723586 9.663056344450565 9.00150822795949
Ta 10.45604875693498 11.920324658578693 8.994450481965055
Ta 11.103219801467539 8.641427970785326 11.37107819446385
Ta 10.314992077381508 7.5832508308988 9.092889755033948
Ta 9.798831439606982 9.882790159829 7.43803856012626
Ta 8.338758431704385 7.62131649876792 10.823363740297998
Ta 7.903247487220742 8.193803171466541 8.205769108111253
Ta 9.185832353234392 10.042112992527857 10.260836697548608
Ta 7.54117702421337 10.855778257721008 8.430269371720245
Ta 6.483165705158507 9.212830293152747 10.054533092717195
