10
Energy = -91.32673819 eV
Ta 9.739060686149076 9.215601261200504 11.466690783520203
Ta 11.212985016204648 11.336010766588823 12.037099232408911
Ta 9.570544430351509 10.730487151844924 13.732253426249603
Ta 10.139210151365218 7.910655337606076 8.949630148654746
Ta 11.70084370916677 9.926447366112656 9.617163128939511
Ta 11.854028465125186 8.490537660155683 7.307862735847649
Ta 8.507342041860083 9.90827873389056 9.14676899959746
Ta 8.272232381316334 11.30181999421124 11.68918729126066
Ta 9.953770116312985 12.01592866545182 9.881486486183954
Ta 10.389092732962057 10.48693764166693 7.485956163124096
