14
Energy = -132.15035675 eV
Ta 11.798154820889861 14.861147876395856 8.89952353639449
Ta 12.649434536933649 12.477308061131868 12.328479220892156
Ta 13.24849375737759 12.087033064609592 9.411713722475422
Ta 9.14962809723044 10.03755444428291 13.80916457179896
Ta 11.068019998305383 14.882849789425048 11.503292521065621
Ta 10.832144597753562 12.782680299597605 10.010135201927996
Ta 9.232221819565353 9.846149274881192 11.35219966356523
Ta 11.8316068956791 10.25990803615014 11.01333850437428
Ta 10.971558687113419 8.488533178663165 12.87933251075434
Ta 13.39898698278971 14.374897167532636 10.690698269683349
Ta 9.88445808995823 12.23906741435643 12.349110006876048
Ta 14.530351982653784 10.859756580535032 11.198150015135491
Ta 13.382388798429973 9.715020021778827 13.125377652132615
Ta 11.454871813551993 10.948099208931538 14.212304063391235
