14
Energy = -130.90677115 eV
Ta 10.511199951573431 12.76891524625561 10.026309077696054
Ta 11.934279181234798 10.805826911043559 8.673344414530668
Ta 10.664969000694398 10.340275156883083 11.051457220065451
Ta 9.214071922605255 11.025131376590283 8.514391679018964
Ta 8.209908301943116 11.54234266659288 11.001813621183974
Ta 12.688324668462947 8.764801837751325 10.402350124316683
Ta 8.847051570446515 9.52412507606447 12.796818769340538
Ta 10.463448514788363 9.810602498980884 6.529071275946903
Ta 10.647274536403641 8.398738981588538 8.762187083362813
Ta 10.335706930206776 7.648127003977379 11.374203737983684
Ta 8.135362572558513 8.891380944995797 10.332703867443557
Ta 6.642151730630774 10.561829222492042 8.925281888301322
Ta 8.181912999675578 8.658498337694612 7.611382399343826
Ta 8.83814821316078 6.552413507641016 9.310133721522474
