12
Energy = -110.63875283 eV
Ta 10.76077522108421 15.151486151842322 10.481392673840878
Ta 9.369425708444597 10.427066435364045 10.260717956848808
Ta 10.712506308321741 13.62768064649649 12.642599124979665
Ta 10.95389241699276 12.407730582404128 10.140353434793779
Ta 12.87273861793775 14.315358154100302 10.750079225142256
Ta 12.96848085031158 12.231589515297605 12.48445939993831
Ta 9.977370588323668 10.986100767215081 12.544958538194859
Ta 14.187461397812063 10.099480524745985 11.741547136313924
Ta 11.509681148327221 11.86202721755961 14.534042978639032
Ta 11.792675306164751 9.727442501620832 10.720909210602668
Ta 13.451284227484479 11.664083434546246 9.846384068188854
Ta 12.192245001558524 9.679960926127325 13.372639694172827
