15
Energy = -143.87495086 eV
Ta 11.980111121828584 11.868610209440838 11.08306193088908
Ta 10.26010418068858 10.071019194154523 12.2053893976611
Ta 8.589018842851994 11.889259921197219 10.685177850078196
Ta 7.519396887368474 10.520576926051444 12.53148278043114
Ta 12.78025300301984 9.41166207285735 11.076462470872553
Ta 10.490187715958502 10.38785611082964 9.530002210962131
Ta 13.10891833968744 10.835016595800756 8.842006698989769
Ta 8.258584999229019 8.828326410251304 10.662693900985554
Ta 10.746151568074769 7.760105462871137 10.70351117233815
Ta 6.3297054251299585 10.694282676337647 10.102115618132833
Ta 12.309536248486278 8.29976956276685 8.604883236988854
Ta 8.156493928213985 10.685213744396927 8.207596322357237
Ta 11.192827667946986 10.034408131458909 7.049039589279108
Ta 9.524586494111146 8.183607701561263 8.227623316902081
Ta 6.785404173312936 8.558960409686513 8.520199414104164
