11
Energy = -101.61027184 eV
Ta 11.448955989763567 12.860611659253987 12.49384342066379
Ta 10.701196086384424 10.07657865097477 9.380630593815038
Ta 12.006738558296677 12.362358890222717 9.814687851564944
Ta 9.527666863498599 12.175540237034719 10.920920412012656
Ta 13.704589259928904 11.781427704691676 11.55478717089645
Ta 13.33166701622429 9.757939480347932 9.916582002093087
Ta 11.60795066379125 10.102752326330432 11.859638925403024
Ta 12.691955819890357 10.842859424017876 7.796903567136172
Ta 9.917414500656962 11.028623262443269 13.650497610065557
Ta 7.727391504000358 11.662457921220145 12.634508781407495
Ta 8.942434327542408 9.626425360463365 11.721021025229948
