14
Energy = -135.09615673 eV
Ta 8.662903936156706 8.966190833694512 8.722332462719086
Ta 7.8456214605031445 9.529387434389 11.116176270930646
Ta 9.801906906833318 9.220828556390822 12.880009585045045
Ta 11.597356785845342 9.125508337292235 8.668418182715984
Ta 10.374549920519103 10.449055253353922 10.40792548690649
Ta 12.151223934767211 8.764224187998737 11.485377480561864
Ta 9.765288355274487 10.859326696477885 7.50033061320866
Ta 8.696669176602505 12.047486715002826 9.485510888389031
Ta 9.12955291635253 11.802629664295692 12.250574213668552
Ta 11.720360629283181 12.057649256080499 8.517242348991646
Ta 11.305794127068545 13.028258122966099 10.884010634825767
Ta 11.756266320293419 11.197377942526156 12.748965251627473
Ta 13.127785142626331 11.025756628354133 10.443201674929417
Ta 9.83862913042258 7.700228371177772 10.663833276753941
