14
Energy = -133.05179797 eV
Ta 8.899080116168516 9.757894026390789 11.475800399730966
Ta 11.543229228118985 9.964308502420018 11.913130667180706
Ta 7.897836896195253 7.313079196528635 11.703859921553002
Ta 10.453785141145362 7.532768137537945 11.561853075730264
Ta 6.627989335658396 8.847493497372389 10.082320916922924
Ta 8.856937841008692 7.542288931082562 9.242550147050094
Ta 11.052024000744996 9.086390929736194 9.385842573024684
Ta 8.433816554424125 10.574502305508588 8.957566650762708
Ta 12.710028786609888 11.040397427055712 9.763517339321561
Ta 10.40706750413581 11.849732994293742 10.40471661151678
Ta 10.771548313770527 11.233136215983558 7.759941222474787
Ta 8.379839249929177 10.809901162681227 6.378843202815695
Ta 7.191710007078615 8.673933978603692 7.460507315825223
Ta 9.804975993795296 8.80404160115655 6.939418956090998
