10
Energy = -86.94906627 eV
Ta 16.702195513765844 13.42057321100677 14.486277302706918
Ta 14.28793222730321 12.854310692658746 14.85381355249307
Ta 15.290302484088947 11.621536543462843 12.822304795931343
Ta 17.004596096671094 15.471535222755522 13.120629910965938
Ta 5.013854081412269 13.289939108184765 13.999339646153429
Ta 17.53845887264836 12.662885525396689 12.278888690345232
Ta 14.606392140052671 15.232617537034363 13.910353070547362
Ta 15.663551491162197 14.111629152051842 11.538102598075877
Ta 13.457784042475483 13.40725056467713 12.500189075660096
Ta 4.117447688126144 11.575193648029524 14.1166503363751
