10
Energy = -92.53643709 eV
Ta 12.245120378449926 9.268506394667797 10.322067342767108
Ta 11.83919301749942 10.973610893228239 8.507273366949157
Ta 10.976219695802994 8.59438867347057 8.218614985450508
Ta 10.097782122063007 10.638674059141898 10.335750194580548
Ta 9.40163735730672 8.101706369781716 10.268660976421312
Ta 7.326682144148783 9.708289913419597 10.083369817455782
Ta 8.90064561421475 10.200766438772149 8.033255638764864
Ta 8.204726994668588 7.664229739571086 7.9665173483511005
Ta 6.056375852565167 9.032995219891879 7.9810745478316045
Ta 6.463717034487374 7.328932298055068 9.795515781427891
