11
Energy = -102.49729144 eV
Ta 8.130824800184115 9.323881890130428 11.015873736736026
Ta 8.132373237663758 9.317064734051836 7.948469349168285
Ta 7.016227889078887 11.160557316259508 9.475861860947688
Ta 10.035390220505779 7.964249660546552 9.486782890704067
Ta 9.659672795785557 11.089277574369467 9.4795353685668
Ta 5.871941073021622 9.048811848985046 9.483989232860575
Ta 7.4840984646538296 7.268526611771854 9.484547504052012
Ta 11.203127420685302 9.693410278439005 11.03672743157239
Ta 11.20540412596378 9.686511532849542 7.931446405514829
Ta 12.93775767317256 8.624171206203924 9.487454589285612
Ta 12.635687455524979 11.136042346392973 9.481816786831617
