15
Energy = -143.34045997 eV
Ta 8.879998898780029 9.69487586197602 11.244916087860178
Ta 11.56978276123811 10.034686700966168 11.729518398301735
Ta 7.750288152562529 7.191239633336037 11.451032358510753
Ta 10.39565676550259 7.630333872001993 11.53866057553443
Ta 6.477493770069442 8.909526179190772 9.950704322554602
Ta 9.011759448435438 7.574093015120103 9.037897685685063
Ta 11.073817157644612 9.109388235204992 9.18803180702925
Ta 8.459600157876215 10.500252564216131 8.784591097434765
Ta 12.737419217589757 10.973779535473744 9.550994409138907
Ta 10.428954491851627 11.85156315578008 10.238290683774439
Ta 10.772038981425817 11.290440068612371 7.589324046616465
Ta 8.37141749166192 10.869987987369548 6.221136910709688
Ta 7.163506403935168 8.604319926284239 7.326691321159928
Ta 9.809069628708347 8.894280654855473 6.664461689212923
Ta 6.727701548059026 6.499737609612062 9.112253481817238
