12
Energy = -115.13469031 eV
Ta 11.157771542404053 9.560063856986952 10.088143858951971
Ta 6.747602790929359 8.345358476346462 7.817242974381263
Ta 7.417170428579771 10.851958855651693 8.411892592099282
Ta 7.875637217224394 6.802705994074009 9.669215383579136
Ta 9.02160007551527 7.060759621990942 7.311266020866854
Ta 10.029777116108937 11.102687339259397 8.236243449754108
Ta 10.488277904753573 7.053487477681599 9.493548241234118
Ta 11.0185904438078 8.756431412868762 7.559243828222878
Ta 9.169622834792179 8.342118911271067 11.36694024477715
Ta 8.883854257817983 10.844622711342298 10.594117812466429
Ta 6.886801889525451 9.149009920464398 10.346236005110542
Ta 8.735837498541361 9.563339422062292 6.5384535885561474
