12
Energy = -111.55534602 eV
Ta 12.262310242701933 11.630698334916573 11.78719462620084
Ta 11.280525807362453 10.511076007413768 13.687213045700627
Ta 11.599994255318242 9.039998799337281 11.378479303449016
Ta 9.59933119614795 11.404524743941424 11.710293021622725
Ta 9.453150115223478 9.080334715284142 13.023754970514748
Ta 8.98246090333424 8.945727628747285 10.517228784857423
Ta 10.93614376506439 8.454472250801537 8.660311129865137
Ta 11.285581891337047 11.037463861150004 9.503528603073107
Ta 8.606809958428034 11.2120314149461 9.059692376483817
Ta 10.470891797939016 10.423409426071734 7.051583532065063
Ta 8.458742518385582 8.594817780515937 7.93769150884959
Ta 8.059444228250436 10.663143711790472 6.684804385412433
