11
Energy = -102.54838771 eV
Ta 13.791121619355897 12.74550423461814 10.272518488359111
Ta 11.32821595123006 12.471962319678472 14.00667792196039
Ta 13.241789859916217 10.874952155998061 14.321719868229867
Ta 10.791476438554945 9.483126707005804 11.053417918762705
Ta 12.190869495418404 14.185298123358038 9.260334746861526
Ta 12.914355942731456 10.773606267704308 11.744151633848809
Ta 13.718045801952734 13.111763931295087 13.01820742065426
Ta 10.86554644894857 9.924378190989735 13.538270404832714
Ta 11.579195442775946 13.78414326771675 11.737889710320877
Ta 9.827546686171964 11.763336106335268 11.856428754665814
Ta 11.317218701036342 11.722938842423922 9.680689468078736
