14
Energy = -133.17506567 eV
Ta 8.594804607669234 11.308686232036106 12.440564852634417
Ta 10.996346439961213 11.443306271403658 11.235044972185772
Ta 10.250526954047881 9.174351864709509 12.259141178858746
Ta 8.966725176604891 12.651214173591715 10.312497739588052
Ta 10.581138253793299 11.440640378546302 8.585391067200185
Ta 11.192668146301116 9.142273244590438 9.566628597422989
Ta 11.31577635900025 9.158716142453423 6.839896278813336
Ta 10.434229228984943 6.993768078687187 7.988974766959619
Ta 8.433166272896221 10.060172419051918 9.858668005098842
Ta 7.760480912424958 8.901581994087081 12.146193903469381
Ta 8.917149086114494 10.127432031760673 7.121505458196872
Ta 9.266063254097633 7.437816577679167 10.427889246085073
Ta 8.963817931577703 7.8746321992863475 6.197109654460095
Ta 7.774144069012269 7.727699395435996 8.456608154652542
