12
Energy = -112.4205552 eV
Ta 10.17698139761216 9.584028526993881 6.414629603345426
Ta 12.359382275056362 8.795722020433756 7.542369481946747
Ta 10.12498468282899 7.608625307455753 8.165686913384722
Ta 8.404563581300808 11.815541546990513 9.462006452038878
Ta 10.974080040779162 10.779514167671602 8.419055433247262
Ta 8.32174249030824 9.53151503853838 8.416925407578821
Ta 9.254569654810918 7.892794489318257 10.75420425190108
Ta 7.217397568503582 9.674213536972502 10.780484375411847
Ta 11.783499074859042 8.433556078382471 10.04259778529951
Ta 7.9782137605126335 11.7189056802124 11.970008284945965
Ta 10.220005791562645 10.443235183027195 10.910499577883693
Ta 8.89807311829399 9.431162279368625 12.81916425619285
