14
Energy = -133.37335309 eV
Ta 5.264737076632783 8.49519528579971 9.488215694306593
Ta 6.362048714148412 6.442277585111829 10.429306783852438
Ta 6.447001101376796 6.546514334114638 7.924133677009387
Ta 7.559525417980699 8.554799575124544 11.068515516309509
Ta 6.18091914368614 8.999155234634275 7.141330955694431
Ta 8.817625809852432 6.645461199383169 9.462738478829975
Ta 11.083683923072401 11.151726150996142 7.99689882914507
Ta 11.054363632792068 9.111001048170106 6.5533498120847415
Ta 12.293282033857093 9.261639356109026 8.956816009305985
Ta 8.706998254990632 7.691367392502911 7.07228471099479
Ta 9.552175780290149 9.27137014691536 9.323646708812722
Ta 8.516800937741584 10.314732580428608 7.209659505129054
Ta 11.24134434396304 7.167292384714678 8.116450742015259
Ta 7.005220305148203 10.433194201528027 9.342379052043368
