15
Energy = -144.76800139 eV
Ta 9.595387820496862 8.290255214262759 6.505594124877234
Ta 8.649711407806011 11.012459627078755 7.273268724687459
Ta 6.671681709936111 10.713718771978929 8.882722923781914
Ta 10.794569811694043 11.35480404287337 8.541029249094036
Ta 7.28611647331825 7.516475647810359 8.106063644782262
Ta 11.677841452728153 8.402377248241892 8.095072647902969
Ta 9.810931460234135 6.316522581754457 8.07985574454764
Ta 8.406395140958656 12.851570027248318 8.994248759175155
Ta 10.962857626625857 7.15691004496427 10.35199705392775
Ta 9.15723065067053 9.025622802257935 8.954273052953015
Ta 8.787565689322177 11.121713481828882 10.646758183505836
Ta 11.392134469343759 9.799922812865788 10.487799456187181
Ta 8.28922921727101 6.605250655364837 10.331171075471643
Ta 6.895256968782181 8.878813374210552 10.624238067972815
Ta 9.296673125031527 8.627166691478157 11.799490315352347
