10
Energy = -92.70698318 eV
Ta 8.299179690641735 8.566151959436757 5.668514447090596
Ta 6.545603584496392 9.769961341919657 6.906571350898396
Ta 9.597738848487817 7.637829456411282 7.609124870882685
Ta 6.8162371137509465 7.182851352881007 7.342340504899359
Ta 9.051735543875914 10.40342844598653 7.403399517128413
Ta 7.2619026192484055 9.2211130113856 9.24984061977065
Ta 10.320992413709487 7.099040216038204 9.955577936794587
Ta 7.811106788933565 6.451545645946875 9.450676463197148
Ta 10.03954204513271 9.680479442630286 9.517939176792643
Ta 8.551876216222789 8.283513991863698 11.19192997704542
