11
Energy = -102.53227629 eV
Ta 9.164983584960254 13.768615906540191 13.154352966526153
Ta 11.92871708840147 13.410168593279167 9.833940643611296
Ta 11.222815864326233 11.5195570206291 13.961727950858869
Ta 11.653154056966642 13.661650309809902 12.463740592786175
Ta 14.28164379924236 10.469021486586357 11.195289088693755
Ta 12.865241692093113 9.562166158641157 13.074159480698176
Ta 11.78120261216167 11.110243831537096 11.148941865325476
Ta 13.758936446534774 11.936310775983195 13.419571651143384
Ta 9.544925606857229 13.301328578840167 10.637120402445285
Ta 14.030030408870076 13.003665056282008 11.124936476357538
Ta 9.30916395866428 11.435703069119302 12.269887185821304
