13
Energy = -124.04895408 eV
Ta 10.36170131258068 10.477903081003957 11.735353325904816
Ta 9.983078267737966 12.0427739419131 9.581027586188862
Ta 12.026693592811805 10.518342883556555 9.758946968064084
Ta 7.926570125156338 11.175559011556102 10.982309525849535
Ta 10.745543924610132 8.032811070775542 10.557024759515155
Ta 8.434886432215668 8.671462411305711 11.732248016149866
Ta 6.768405512034693 9.250099810636224 9.739811680732679
Ta 7.930379297267791 11.205933543961743 8.29331610630796
Ta 8.356364886526256 7.141296623759227 9.575568368554514
Ta 10.380998160534865 10.179159715379338 7.58797034347036
Ta 12.252235581439269 8.417934521261264 8.55261448273627
Ta 8.00554195682072 8.780062837339528 7.468457785824159
Ta 10.169213796819024 7.447453839228148 7.761370826401318
