11
Energy = -101.86407032 eV
Ta 10.174634175712416 12.913909570526396 11.448873024126417
Ta 12.010167585732605 10.718806919133057 11.41546186869324
Ta 12.551323653874846 12.997382329283203 10.466484684143538
Ta 12.166642429999602 11.152484460996876 8.640557575857946
Ta 10.521943813375064 13.183703920250393 8.898792832889097
Ta 11.399466322420476 8.910199675820902 9.34256073035252
Ta 11.13319206206912 8.353630804630988 11.885867549358311
Ta 9.38469982011827 10.620726755154813 12.184716952740466
Ta 9.47963209456094 10.9680876141559 9.465909809649704
Ta 8.935565963245828 8.58745667787382 10.211468465527268
Ta 8.814079775685125 8.164958968967944 12.610654203455907
