13
Energy = -122.79338426 eV
Ta 8.540297639325862 6.735741275944045 7.749050386657584
Ta 6.421705457760759 9.533446389511443 10.552474696393439
Ta 9.563596488993534 8.54842842536511 6.215881983656563
Ta 10.207288343796234 11.335834804407146 11.994191724040547
Ta 10.572392606469277 8.869288870204327 11.562966997454868
Ta 8.240246827674724 9.569477390926448 12.389086638405496
Ta 11.882218641659488 9.569917107503015 7.0686778586250005
Ta 9.725526148404946 10.870135315801633 7.307996535881663
Ta 11.40142111196617 10.683298711224275 9.569885670822162
Ta 10.381228347867383 8.357154924632466 8.840718079993643
Ta 8.780666688475142 10.643444622706756 9.908877601514176
Ta 8.257383930307967 7.712568307680508 10.339292062000643
Ta 7.581214767298636 9.126450480114165 8.056086764554212
