13
Energy = -123.80648485 eV
Ta 6.904714248277172 8.940256631693554 10.711604325880735
Ta 9.524877240217783 6.208172746365353 9.900059628309146
Ta 7.263638378680096 11.254497752700368 9.843758135681561
Ta 8.657831840959723 8.420154935728085 8.808239115079003
Ta 9.0552403897258 7.975421453046989 11.74685866309062
Ta 9.515769584849544 10.372182595796186 10.631497217044947
Ta 11.267686555275908 8.111831193812563 10.47750795438886
Ta 10.166067713108196 8.989645038587463 6.470408433953185
Ta 6.275457063338075 9.84398572845475 8.028155156859633
Ta 8.906111944088316 11.058875641568834 7.769956416227573
Ta 7.690812524683119 9.132448307743049 6.26760061797808
Ta 11.228554331321591 9.956647095561383 8.615928090589499
Ta 11.051467085555291 7.172945534294732 8.08827135314872
