11
Energy = -101.76806814 eV
Ta 8.986449682027368 11.758186026222765 9.72546725029955
Ta 6.898262457648017 10.11159532421338 9.433714370272568
Ta 11.36113173295837 10.317017073250327 9.948160404444602
Ta 7.814663971822142 7.590738807227302 9.451091754863368
Ta 10.473652169368046 7.681075477947471 9.760269502962984
Ta 9.086419000590523 9.471517737436066 8.135263731388973
Ta 8.743301751591135 9.36714598212255 11.145763658250813
Ta 10.199518243377657 11.33845057878463 12.072343902244114
Ta 11.135525383173794 8.825159356152414 12.089954567548682
Ta 10.710981107850888 11.486994417482192 7.6925230049381375
Ta 11.624612732428751 8.96620718853309 7.71078089705519
