15
Energy = -146.44131146 eV
Ta 10.569824428554828 11.949434421374065 8.405365647276952
Ta 10.262130071614926 10.263867700269158 10.259660869466362
Ta 10.636704184256306 7.566641754960287 9.448967839065512
Ta 12.884181121669787 11.308546065269908 9.875023345704006
Ta 12.521792401006806 8.649707957488564 10.918709922864144
Ta 8.665868890209103 12.609930986658874 10.48962619258305
Ta 8.183546217896573 8.341055806745613 9.920044401772182
Ta 11.265674796718397 12.796604695999122 11.082136323453714
Ta 9.606618793565062 11.41677479608127 12.768521885029234
Ta 7.688141384636096 10.162568172184642 11.486737886509127
Ta 12.03186946623417 10.470096905215769 12.487290681023556
Ta 9.952608747527771 8.57760063964745 12.120395946138784
Ta 12.148441155011282 9.516318392638203 8.267075680349016
Ta 9.552965885366088 9.341202239291679 7.662484299851688
Ta 7.957599770095761 10.957616966174957 8.735926207638585
