13
Energy = -122.59562959 eV
Ta 7.294125556401358 8.744026874836589 11.172990966848168
Ta 8.260625422918311 6.658956151507577 10.04792855071565
Ta 10.923735037345729 6.903437233705611 9.612905888320713
Ta 7.181846663614044 10.75299767873558 10.078781756770399
Ta 9.370106740687147 9.137425784638918 9.258281189064155
Ta 11.406656341366327 8.213512073344528 7.673209320407832
Ta 7.903780180766705 11.018272748201138 7.707095749990699
Ta 9.227370607248536 6.598166039532005 7.527936788389338
Ta 9.160407588523977 9.104154570709671 6.44825690978973
Ta 6.83658712612671 8.451815734552438 8.401955361155226
Ta 6.688615934344399 5.893334534495288 8.005046042649804
Ta 6.541720216957033 9.653954943099286 6.002599767728462
Ta 7.219111255267646 7.257617968781571 5.836063612055327
