11
Energy = -101.95989367 eV
Ta 10.795322282610698 9.70366962128277 8.46539475904
Ta 8.272250197737614 10.119488352446508 8.927903024899432
Ta 7.580036097993161 7.32531907878922 9.006952998798528
Ta 9.121590345413152 8.219766942531248 6.87710407125618
Ta 10.791467738104066 10.816977281607077 11.134729692033483
Ta 8.338050915662857 11.30907696347312 11.283435565046911
Ta 10.099719445321776 6.964537880045208 8.853849836030358
Ta 9.076677855877167 8.576938579458409 10.869743449711413
Ta 6.762063145608436 8.602591301787042 7.10021621048691
Ta 9.848017946937354 12.248083529748737 9.357925753605468
Ta 11.635329905514334 8.46051134271495 10.458900333219994
