15
Energy = -142.5153663 eV
Ta 9.441316672506519 9.725259099859516 12.733055242382893
Ta 12.186084252127467 12.333570556818923 10.900937432379258
Ta 12.71405216632684 15.075743227045535 10.955625057451327
Ta 9.770178205424237 8.57846719531774 10.484185319012434
Ta 9.671641986315954 11.296110335720341 10.450653620279384
Ta 10.700335132219962 14.887981159434757 12.39896079347404
Ta 11.803627804934106 9.868700561606458 9.522829554505092
Ta 13.696955524155241 10.05123356172552 11.030731860173683
Ta 12.739318877340441 13.640872032773796 13.467148137122981
Ta 14.604217159138214 13.44618411897547 11.568340078819318
Ta 10.300631225881036 14.029326182168244 10.10624122817858
Ta 11.806814814612437 8.381919621171356 11.869344894507538
Ta 14.231101615793255 11.574497446242535 13.115206703490124
Ta 9.923104949011078 12.470566830496743 12.713984744305431
Ta 11.817705477831344 10.634878889756502 13.245417021886565
