5
Energy = -42.83506677 eV
Ta 7.836302238345266 9.383896629727417 7.2526484083549825
Ta 9.672588270328319 8.250349602240519 8.715594220764675
Ta 7.594936017479107 9.292028776964585 9.71487307080787
Ta 8.667434604248742 7.127173085508429 6.676643731947809
Ta 7.329659905555018 7.047472941515381 8.741161604080746
