55
Energy = -566.12824793 eV
Ta 10.82904782689469 10.227404335988233 13.085717638768292
Ta 14.896146617231755 6.821726378328563 14.97919741249236
Ta 16.216186641191104 10.733366935692104 11.600701181771257
Ta 15.427156173060316 18.79678680237937 16.813320856369995
Ta 13.411154426828539 14.622944833783563 15.60429502247686
Ta 11.566466964619877 15.122761337871234 17.928569130991182
Ta 15.859258739019857 16.089337791858608 16.517544186112097
Ta 13.463009472491553 16.961093180017624 17.49699772833817
Ta 15.461813103316619 8.384971542270737 13.03277824027772
Ta 11.344749481236196 16.799674374927932 15.487859693991398
Ta 19.100100395655975 12.462927191801016 14.358231109899105
Ta 13.008593810821077 16.69346590899852 10.369297095988362
Ta 13.683640069470934 11.414053086613574 18.500573679569495
Ta 17.756753970672097 16.27473813421135 12.330809607168254
Ta 9.805054368706235 13.461403608048549 12.898554981594016
Ta 13.85982241135566 17.38196917847789 14.754699680289146
Ta 15.42384550719825 15.288607591235886 11.05715444709982
Ta 12.025474485585963 12.484398375402161 14.296816752895403
Ta 18.240371180448733 15.25755287254759 14.76158763842973
Ta 16.422927330574574 11.018575695499788 14.39043385919728
Ta 14.730912404050287 9.208104736636008 15.85180581411279
Ta 11.615639555875742 17.703571881021585 12.715908403212817
Ta 19.01700764523616 12.115972594462376 11.381357238557612
Ta 14.217083693028616 11.91249126371933 15.992451663582342
Ta 9.581265292547167 16.07365296851797 13.242174661937234
Ta 12.961395241039273 19.416614198991336 16.053643842754948
Ta 12.049933257850244 10.055373846659837 15.958005603615803
Ta 13.651882460134667 10.456154068617607 13.321734204170957
Ta 14.162859651506247 14.151953379375517 18.15350235675844
Ta 12.668347718724581 8.15056368446034 14.021495670097652
Ta 12.303956862386675 13.108595547803516 19.67424399129405
Ta 16.770620971649194 17.802104028374927 14.538688485557095
Ta 16.01588473285275 12.831437545414893 10.122947997520996
Ta 19.76082977653417 14.3307144481218 12.747341542308677
Ta 17.13523548224523 8.438069561644317 14.956369997882677
Ta 18.482774261938214 10.267173627092136 12.970638967193317
Ta 12.564604237988881 15.139609216968609 12.945392228434452
Ta 14.500097935348357 12.958384243347824 12.910152940201188
Ta 10.719567134882409 18.053197084558494 10.12293332458794
Ta 10.715983669900734 15.286544098347527 10.96951865604005
Ta 11.622646163724902 12.607118634295505 17.11061717421652
Ta 11.776329957267794 12.45132283290822 11.524078154145684
Ta 13.872496279457646 11.201775543007154 10.454972377458331
Ta 14.665156719258391 17.860346657523603 12.231664342689692
Ta 15.245608547104226 19.93118594351382 14.45132244697966
Ta 16.43112982506028 13.49535124653163 15.554610124899753
Ta 15.504781331190767 15.474731239445104 13.76985715256309
Ta 13.015123435522957 19.976412220086644 13.23193755842135
Ta 13.430797167160891 13.85693349308035 10.151512245207446
Ta 10.73394313491611 20.01926361385133 11.766383864331452
Ta 12.944003818370609 19.41417207676056 10.560528671656634
Ta 17.149010681548564 13.499836921417115 12.599422838652236
Ta 9.73061761377597 11.326853013084849 15.310181189056877
Ta 10.354086218792368 14.421301987789585 15.35209734692724
Ta 10.064312968754438 8.672852220619804 14.982865803259617
