5
Energy = -42.83656911 eV
Ta 4.583197129481261 5.436150391365444 6.098485753585539
Ta 5.264502900697452 7.810448584305459 5.99384681645905
Ta 6.597315251874835 6.162109054671141 4.60927172267692
Ta 6.740431405437157 4.228421870826151 6.242518482662655
Ta 6.955144202201037 6.488305756546606 7.199006932500714
