5
Energy = -42.83486415 eV
Ta 9.879873927715837 10.17938135382358 11.036291974657784
Ta 10.245944071490289 11.259522561843559 8.77499097544233
Ta 8.200931457581884 9.89781615445201 9.05264698207084
Ta 10.81925517673904 8.87144179728381 8.957279572473576
Ta 8.987739137335193 7.925330313671132 10.314121316530622
