55
Energy = -567.35786639 eV
Ta 12.303672603646083 12.303672603646083 12.303672603646083
Ta 12.303672603646083 14.252834310141317 14.417322844859642
Ta 12.303672603646083 14.252834310141317 10.190022362432876
Ta 12.303672603646083 10.354510897151025 14.417322844859642
Ta 12.303672603646083 10.354510897151025 10.190022362432876
Ta 14.252834310141317 14.417322844859642 12.303672603646083
Ta 10.354510897151025 14.417322844859642 12.303672603646083
Ta 14.252834310141317 10.190022362432876 12.303672603646083
Ta 10.354510897151025 10.190022362432876 12.303672603646083
Ta 14.417322844859642 12.303672603646083 14.252834310141317
Ta 14.417322844859642 12.303672603646083 10.354510897151025
Ta 10.190022362432876 12.303672603646083 14.252834310141317
Ta 10.190022362432876 12.303672603646083 10.354510897151025
Ta 7.755083739633282 12.303672603646083 9.426341690056855
Ta 12.303672603646083 15.181002702872568 16.852261467658884
Ta 12.303672603646083 15.181002702872568 7.755083739633282
Ta 12.303672603646083 9.426341690056855 16.852261467658884
Ta 12.303672603646083 9.426341690056855 7.755083739633282
Ta 15.181002702872568 16.852261467658884 12.303672603646083
Ta 9.426341690056855 16.852261467658884 12.303672603646083
Ta 15.181002702872568 7.755083739633282 12.303672603646083
Ta 9.426341690056855 7.755083739633282 12.303672603646083
Ta 16.852261467658884 12.303672603646083 15.181002702872568
Ta 16.852261467658884 12.303672603646083 9.426341690056855
Ta 7.755083739633282 12.303672603646083 15.181002702872568
Ta 12.303672603646083 16.571731346058005 12.303672603646083
Ta 12.303672603646083 8.03561304687125 12.303672603646083
Ta 8.03561304687125 12.303672603646083 12.303672603646083
Ta 16.571731346058005 12.303672603646083 12.303672603646083
Ta 12.303672603646083 12.303672603646083 8.03561304687125
Ta 12.303672603646083 12.303672603646083 16.571731346058005
Ta 13.988704761901444 8.327595873597748 14.671521645721278
Ta 10.61863963102798 8.327595873597748 14.671521645721278
Ta 13.988704761901444 8.327595873597748 9.93582356157124
Ta 10.61863963102798 8.327595873597748 9.93582356157124
Ta 16.279749333694596 9.93582356157124 10.61863963102798
Ta 16.279749333694596 9.93582356157124 13.988704761901444
Ta 8.327595873597748 9.93582356157124 10.61863963102798
Ta 8.327595873597748 9.93582356157124 13.988704761901444
Ta 13.988704761901444 16.279749333694596 9.93582356157124
Ta 13.988704761901444 16.279749333694596 14.671521645721278
Ta 10.61863963102798 16.279749333694596 9.93582356157124
Ta 10.61863963102798 16.279749333694596 14.671521645721278
Ta 9.93582356157124 13.988704761901444 8.327595873597748
Ta 14.671521645721278 13.988704761901444 8.327595873597748
Ta 9.93582356157124 10.61863963102798 8.327595873597748
Ta 14.671521645721278 10.61863963102798 8.327595873597748
Ta 8.327595873597748 14.671521645721278 13.988704761901444
Ta 8.327595873597748 14.671521645721278 10.61863963102798
Ta 9.93582356157124 10.61863963102798 16.279749333694596
Ta 14.671521645721278 10.61863963102798 16.279749333694596
Ta 14.671521645721278 13.988704761901444 16.279749333694596
Ta 9.93582356157124 13.988704761901444 16.279749333694596
Ta 16.279749333694596 14.671521645721278 10.61863963102798
Ta 16.279749333694596 14.671521645721278 13.988704761901444
