5
Energy = -42.83546032 eV
Ta 8.233815201117825 7.538616303568054 10.105643364479418
Ta 8.026789188605868 7.008180664118386 7.640889546313278
Ta 7.084131330407914 9.203807604828528 8.674007621684453
Ta 9.844831708688915 8.657609709044419 8.623266283058529
Ta 8.50788654719026 9.287536521709828 6.65271906275825
