5
Energy = -39.97369667 eV
Ta 7.638831109071639 10.982813032491656 9.787884981720033
Ta 10.043590582748598 10.86802774922069 9.607946270690059
Ta 10.592423588436871 8.200926106020715 9.756948476130237
Ta 12.136680592894477 9.660136792014946 9.44447633193071
Ta 8.177247456804569 8.918493402081301 10.024631198881991
