55
Energy = -573.40032758 eV
Ta 8.277915613884595 11.213468411390197 14.385581644328157
Ta 14.976679417571582 13.22693764223867 10.971411425759385
Ta 12.879913186749844 8.975172499823227 15.934343941165066
Ta 10.388569003951881 10.852717702024789 9.54591155426935
Ta 15.012993912853752 13.43177652421393 14.218310595251864
Ta 12.650877063042946 12.874193814583364 6.445419570794005
Ta 10.487850521032108 11.108449484547283 12.789409290895609
Ta 8.24150662415212 11.013133018918552 11.246803209911102
Ta 12.711451921278238 13.129982075615773 9.445388919266918
Ta 12.776485990209101 11.367316657070862 17.491292908391774
Ta 10.463251346222929 11.267009492322273 16.04048691383582
Ta 12.754360338365164 13.48213956151276 12.612155897301179
Ta 10.38693823530004 15.304561304346395 9.267802628497837
Ta 8.347744476340802 15.449829074835906 11.017744123034023
Ta 12.784251550319144 13.53340794726613 15.79749099274695
Ta 10.550941152863475 15.654797244571029 12.499817043225603
Ta 12.669324043631114 10.76714587333057 8.040969741201955
Ta 17.15922643591082 13.071810483420656 9.46592634124719
Ta 15.006709274302967 10.780676893167424 9.53794621339248
Ta 12.698037394884647 10.957149997056725 11.149230565123629
Ta 17.285446678885947 13.281210209423218 12.570439385754328
Ta 14.965206557753827 11.079942850128537 12.737662542268195
Ta 12.734366599542403 11.162874515465157 14.382735466568382
Ta 8.24151071945012 13.230278889542141 9.597148025738887
Ta 15.078883709903584 11.185324118424155 15.950238767880085
Ta 12.712278336398983 15.179838908358857 7.687141394125946
Ta 8.31345647596766 13.622929794835583 15.741071973714268
Ta 15.056276099654678 15.266360386001537 9.209366199016475
Ta 12.772380209981987 15.599501890749258 10.688760397312398
Ta 10.611874805436475 13.620967193484512 17.42332815628971
Ta 15.049616411461017 15.633646889583266 12.448557001004536
Ta 12.814038177885598 15.825960585375265 14.250007613545424
Ta 12.792914874964302 13.660298413430409 18.807318288084286
Ta 10.41468951570827 8.770066592450323 11.338927886457835
Ta 17.178447319785192 10.966785019976975 11.172365418005098
Ta 17.229490195620212 13.455682329079245 15.68085435270852
Ta 10.45096906453392 8.972985909461825 14.525347099318669
Ta 17.212574162060605 11.156412142486044 14.24955584166662
Ta 14.955894247427725 13.598047024798376 17.40696989632381
Ta 10.501331819116086 13.01192956752128 7.874088918909451
Ta 17.16837018270223 15.323149461022085 10.89311284046802
Ta 8.383728982022342 15.6441078722483 14.048333618685811
Ta 10.483502218885413 13.260171883491607 11.037978365848778
Ta 8.354235127170368 9.018644604688086 12.947794399098248
Ta 10.463541883810668 15.718583793876643 15.754593760778665
Ta 10.521250547052666 13.465075877277151 14.254808213953606
Ta 8.191006435912907 13.400058755537739 12.67157836400828
Ta 12.825395528682831 15.790874005664328 17.28203788470245
Ta 14.93536388912025 8.768017225623069 11.360872973981085
Ta 12.811225238992842 8.589559907825825 9.885034332047994
Ta 15.131751670045665 15.678055628532267 15.706722067336361
Ta 14.969816085280147 8.960470957191403 14.397424261806444
Ta 12.688860218860725 8.71090622693237 12.915228267964165
Ta 17.203860471199402 15.51536940717102 13.982282901315049
Ta 14.84608803585587 12.988905460084911 7.791539603672222
