5
Energy = -42.83541897 eV
Ta 8.929812454951396 10.226808626070914 8.694641071746606
Ta 11.15295518830093 10.727504775782084 10.003448731372911
Ta 10.873899014104163 8.60620407279996 8.775545890182087
Ta 9.386463430111926 8.665936299406797 10.7487200148842
Ta 8.959583191990488 11.076259505399443 11.080357571273098
