6
Energy = -52.79415814 eV
Ta 10.601048599839263 10.207929334721229 9.615884475373194
Ta 10.311076646503318 8.337637380737911 7.9406515838200455
Ta 9.864791347395213 7.845337460558742 10.41105743157844
Ta 8.83134734213385 10.454264528073876 7.809646445088739
Ta 7.869334122371775 8.756117289137018 9.29428925576306
Ta 8.522129511717253 10.399258984144204 10.931614349791241
