6
Energy = -52.82571722 eV
Ta 12.253626546466776 12.785445729890327 10.087696337850005
Ta 10.732756371812908 13.025888390903848 12.282478996446592
Ta 12.887056446465932 11.40942764175022 12.032318139951519
Ta 11.826692910649255 9.5715426422091 10.722406740168267
Ta 10.719135747583449 10.556230824306807 12.957388816675527
Ta 10.20606831166526 11.408274500680339 10.441827899942684
