6
Energy = -52.82817984 eV
Ta 12.447770725557852 11.186416971610658 13.80494690179638
Ta 11.428033403711558 10.14903630715193 11.532560389028207
Ta 13.497568810050971 11.885030384160256 11.688933957813445
Ta 10.537311659068067 12.230080218502554 12.59805924955029
Ta 11.594881382464092 12.265611319759165 10.108482883347452
Ta 12.207431468451462 13.97274450137019 12.104370789878349
