6
Energy = -52.85538334 eV
Ta 6.597592300043284 7.85314652881914 6.961926756001162
Ta 8.703796975831006 6.520856951668418 6.5926059565584625
Ta 8.721875358965965 9.161351056847458 6.6104809060743035
Ta 6.955615958603391 6.516319660583979 9.067246583092752
Ta 9.079990609586591 7.824293729324618 8.715667050189136
Ta 6.973895796969651 9.156799072756606 9.084839748084182
