6
Energy = -46.99094038 eV
Ta 6.982229710400433 8.247344243957366 9.119770907277154
Ta 10.977490583273045 8.891688316735339 7.4481759759110515
Ta 6.988976619877673 6.426647305314625 7.503319553879418
Ta 9.037258516179024 7.581958842018905 7.37810514312854
Ta 7.551985002103302 10.047156472502248 10.40617021703058
Ta 9.40450431884742 9.747649819471642 9.086903202773254
