6
Energy = -50.7006398 eV
Ta 12.187481056895422 8.552925128572065 11.082786866263064
Ta 11.336887301655544 10.379988501676332 12.293782551748548
Ta 11.590998975480844 12.06632176108154 10.363195461274328
Ta 11.001012806983027 9.755864059079217 9.424742198995926
Ta 9.355241238311933 12.828751141719525 10.381432915840858
Ta 9.1238381901883 10.56193229556742 10.978589001746418
