6
Energy = -52.8265203 eV
Ta 10.034786580868934 8.233640663703671 8.7897231712213
Ta 8.16531552371277 6.743818278540802 9.497047944621757
Ta 8.980438677931476 8.072007082095443 6.561408099497727
Ta 8.57451797375162 10.336501660198035 7.918746806013936
Ta 8.296913025104677 9.308221736489594 10.243626548808782
Ta 7.007859691844258 8.38307646822958 8.0557850886342
