7
Energy = -63.64657199 eV
Ta 6.908683517786992 6.572724700948119 8.334074886525695
Ta 9.03524171777799 6.827956549482232 9.610449801289105
Ta 8.763722938973721 10.012561451225631 7.194502482202324
Ta 9.167966949746162 7.507363803312235 7.169620624138327
Ta 9.801553446856467 9.212632082601475 9.345735860637248
Ta 7.298940422744917 8.949779009144715 9.28044928657909
Ta 6.733956006113745 8.627047403285705 6.775232058627971
