7
Energy = -59.58940066 eV
Ta 10.340031979695638 7.480227983467463 9.504720506219257
Ta 8.440098761939092 9.10803856739366 10.154406433265779
Ta 12.278553150002447 8.982810438936415 9.068207500651173
Ta 10.873684220294566 9.336552898811533 11.120353805682683
Ta 10.166048113332211 10.190113856142831 8.574332696185909
Ta 6.059207241695012 9.930356730322892 9.19253137093861
Ta 7.687566774685712 10.849839451190867 8.210389431279049
