7
Energy = -63.6462043 eV
Ta 8.913336615452089 10.410039331868079 7.623915129622783
Ta 8.00610833507249 9.902591806819117 9.967071398275506
Ta 10.382700595575514 11.361061438450976 9.451428189670624
Ta 10.83901631091895 8.950882715956034 8.924066528660262
Ta 9.418011960404927 7.5969337356494835 10.529229156713507
Ta 8.471844619183297 8.023904796322837 8.166627255639481
Ta 10.06137452489682 9.840612240234728 11.421907753272587
