7
Energy = -63.64176125 eV
Ta 9.013999129312797 11.51494101848829 9.606335358815294
Ta 10.889529910721556 9.770407475809714 8.887634616430281
Ta 10.145361067430784 10.096664248004052 11.308836126111787
Ta 7.969438153185433 9.11589745173067 9.927834878566868
Ta 9.941548716633298 7.692729167624053 10.558787104562182
Ta 8.462382942142082 9.997751913616652 7.59299369557117
Ta 9.546850082557215 7.798756724237534 8.079339556585179
