7
Energy = -62.28529364 eV
Ta 7.0054969654994546 9.67934561898093 8.664592297840318
Ta 7.843531033291832 8.122713355681626 10.54413285626198
Ta 9.29512695101428 10.102911210856877 9.774253261188578
Ta 8.803597323236604 9.459935431049237 6.9747461223300515
Ta 7.284030027452812 7.38122887096375 7.785477421060455
Ta 9.880340373209997 7.748011134352674 9.113462205032475
Ta 9.499014196334802 7.116991248154686 6.7544727063259185
