7
Energy = -62.33860246 eV
Ta 10.241768719752525 7.064330092368892 7.5970245432678265
Ta 9.147695069874333 7.468597246028735 9.757307099852746
Ta 8.420496487843995 9.931106447874724 9.963140641177162
Ta 6.659364207501438 8.079434359719361 9.411309098447525
Ta 7.237094012750683 9.899302373132567 7.6331282803164
Ta 9.772349229173257 9.468416414943723 7.785062443962433
Ta 7.843176061764637 7.428646904540704 7.1923822273271885
