7
Energy = -62.33401603 eV
Ta 11.148878533479559 9.222931842949675 11.51745135054739
Ta 12.196919834976367 11.590935418527916 11.721900622755717
Ta 10.730770211400253 8.688841407972271 9.15989252384246
Ta 10.333193247250454 12.665836588278564 10.234452435902371
Ta 11.888522213425198 10.853446948290909 9.261559482197443
Ta 9.117929611947844 10.403370580250181 9.868936598458872
Ta 9.670810478213975 11.189728249288937 12.280225376895649
