7
Energy = -61.55383857 eV
Ta 10.51327754718394 7.904674006848052 10.071908386495844
Ta 8.29820956454907 6.87066750481092 10.281429889147828
Ta 10.489390286385614 9.913102774554192 8.388983414399473
Ta 9.01905836429832 7.670401075829339 7.994368172247175
Ta 8.268507241957444 9.421003025275862 10.138554614057146
Ta 8.076839305488061 10.068569444091487 7.513151011863336
Ta 8.879075001881217 11.699674555579428 9.159736239264292
