7
Energy = -59.74259118 eV
Ta 11.454621418545713 12.587290859077838 13.743141338665243
Ta 12.340397465599334 12.895053880378361 11.356500160795424
Ta 10.975035855624595 9.727223137210602 9.24577916777649
Ta 10.937150242985044 10.734375205610718 11.776704130790575
Ta 10.778128105723548 12.16814737584128 9.48812630869213
Ta 13.010432661624572 10.831272842901079 10.01282576623537
Ta 10.320376919871455 10.905661732154448 14.357667012368093
