7
Energy = -58.39404598 eV
Ta 9.936038686317394 7.9767220685181845 10.92164920593065
Ta 8.6945013 10.126963586965852 10.922287392632242
Ta 7.452963913682607 7.9767220685181845 10.92164920593065
Ta 7.452963913682607 9.412280531481818 6.467353394069349
Ta 8.6945013 8.6945013 8.6945013
Ta 9.936038686317394 9.412280531481818 6.467353394069349
Ta 8.6945013 7.2620390130341494 6.466715207367757
