7
Energy = -63.64275001 eV
Ta 11.175150073794578 9.318607940793358 8.251348352552258
Ta 10.403479380051186 11.02081583908986 9.97818274922811
Ta 9.573360023798491 7.404115928927938 8.448957812962119
Ta 8.040475780781914 10.519054271430058 10.547303237544169
Ta 8.77301920750358 10.030351826488056 8.030871032458933
Ta 9.84536074253111 8.600340247782757 10.643167662606487
Ta 7.422900886744184 8.335999229873202 9.329504741171847
