7
Energy = -62.27000591 eV
Ta 10.134392996698468 8.55309138439291 10.33447119470294
Ta 8.236948643954642 9.504015376597206 11.287608015027073
Ta 9.565441039283602 7.054006776051746 8.155758851018724
Ta 10.427754005198091 9.467524789528019 7.969355130424863
Ta 7.554746018961968 8.368259679314027 9.127197989251165
Ta 8.494539081184978 10.779269515623232 9.057263981187702
Ta 8.315167050271846 9.003120582831562 6.795997592747714
