8
Energy = -72.50239045 eV
Ta 10.521346444826294 6.752901198839469 8.969310833447542
Ta 9.308264701313682 7.502914618130595 10.94859222662364
Ta 10.009180301481514 9.313665070281605 9.187666258140547
Ta 7.942202446589977 7.07577631245273 8.764835479086248
Ta 8.995114747449339 8.55181493924117 6.98224780766265
Ta 7.486665799456069 9.466572206735247 9.501262324147605
Ta 8.174718859718679 10.988545652601873 7.481291657105035
Ta 6.48747718561686 9.273298215476974 7.090331339707343
