8
Energy = -71.57646901 eV
Ta 9.760474677625945 6.586920446167938 8.844150962686978
Ta 7.907455767341189 8.033362669153329 8.169619176780262
Ta 9.665111963556033 10.521927147558994 10.594635927662045
Ta 9.16483688301114 7.977416085428433 10.773064177060927
Ta 7.274970903450635 9.624320021480187 10.12164840015813
Ta 8.403810304361452 10.579303050048823 7.992571451935739
Ta 10.629271548190912 8.855227327525373 8.47967591371272
Ta 10.683370698954795 11.31082599912847 8.513936736495568
