8
Energy = -73.98519983 eV
Ta 9.309974255232916 11.134268419413608 9.541223678990146
Ta 11.23777447898837 12.54568242695315 10.284508887230029
Ta 13.318392175504563 11.234147631739278 10.601355780787301
Ta 11.562419935853816 9.891130853521778 9.358883426535934
Ta 11.824777927478154 10.018652402124085 12.17068334529243
Ta 9.768428692767413 9.125302282345958 11.049303685994763
Ta 9.379630187788571 11.443763940358405 12.10791258868761
Ta 11.62896426073254 12.42522534948874 12.737701387412022
