8
Energy = -72.63432423 eV
Ta 10.378283273510021 9.896082385429063 7.501261609692819
Ta 11.054073796803333 9.48587210001867 9.962634626706969
Ta 9.14370986328288 8.014013921110001 8.534867235308566
Ta 10.172972382269226 11.963899773860621 8.907499289077627
Ta 9.93105121375161 7.080002613991796 10.623384880069683
Ta 8.618757482478756 9.006396997969247 11.274269228698177
Ta 8.187861492611795 10.446414827833994 9.074131352073676
Ta 9.67168120221181 11.246510059379503 11.254965339013712
