8
Energy = -72.07901638 eV
Ta 10.570120586765666 12.76997946620446 11.458468974242553
Ta 13.21984704370807 12.436323380177571 10.645507864309492
Ta 12.047650398744222 14.675618132436455 10.766695815001107
Ta 12.54070455178524 9.949277241700845 13.842800298386335
Ta 12.760198575192144 13.995980227369913 13.01777135678447
Ta 11.223879583247882 12.107709661471814 13.863313393252334
Ta 11.687999237834672 10.58223276744192 11.572397658225857
Ta 13.956362297993554 11.786481287067756 13.02819270919752
