9
Energy = -83.48116274 eV
Ta 9.82975460076217 10.25379225067882 8.700027098135639
Ta 10.451232623554525 7.705924427781178 8.970621583566802
Ta 6.534085438397178 8.108560473934753 8.927493096726339
Ta 7.599917211811633 9.51924241234183 6.949447277333986
Ta 8.21715495622481 6.978804009048009 7.221255599063951
Ta 8.340341701784107 6.465163951367673 9.738339414407193
Ta 7.347024674133816 10.519813098973934 9.302264036399784
Ta 8.755477805562926 8.8381568517958 10.659281039373647
Ta 10.032988364619811 8.718519461269546 6.639247854992783
