9
Energy = -81.90901645 eV
Ta 10.669654292388044 6.981307306375621 9.187607992541153
Ta 9.646684301791197 8.823433178801126 7.353006578556886
Ta 10.546605169372569 9.21365714935799 9.884572374256917
Ta 8.994048782984779 6.133265511364919 7.773432825355669
Ta 8.88761176184193 10.894587231037098 9.050241884208921
Ta 7.2699313869615 7.552650959494861 7.099179273054424
Ta 8.064410309953894 8.085617952709125 9.668495165432864
Ta 7.100627739411941 9.998967292497568 7.649951795272793
Ta 6.68682405711529 10.182915899851395 10.199914705654932
