9
Energy = -81.78483361 eV
Ta 11.798887489579045 9.978892829319467 9.916271694674368
Ta 11.042352497187087 8.162303595736198 8.540605813129416
Ta 9.472251880437389 9.100394395486331 10.785673090179044
Ta 9.996691093939464 10.86964712240009 8.607516546787693
Ta 9.340417308020323 6.741448745616163 9.805879765941098
Ta 7.85794363999725 11.069067900487996 7.532324993458737
Ta 7.400696814940375 10.351562407295397 9.777529057915228
Ta 8.548182653079653 8.545757270421037 7.816394814224259
Ta 7.1748066028285615 7.80478577502703 9.84020776061216
