9
Energy = -81.84838884 eV
Ta 7.475535217214982 11.355993232800785 10.29856363252156
Ta 8.591503287507527 8.532525580188176 10.644474506632598
Ta 9.526810832900592 8.955485686009295 7.718226226259175
Ta 8.731424386894927 6.609091539791017 8.903998955222827
Ta 9.822804373453025 10.6074777456897 9.786016773314632
Ta 7.2230057257663765 9.411226114404162 8.65137431394219
Ta 10.898521645364825 7.7386553618488225 9.868249375277788
Ta 8.34984984618531 11.659114880352616 7.936971357723843
Ta 10.88328764391623 6.60277237596612 7.685898253621857
