9
Energy = -83.64902668 eV
Ta 7.70776478910365 8.018897835049378 6.881391940066255
Ta 7.4046368860492375 7.804731322991207 9.425693972181751
Ta 9.645209531378525 7.014176537872764 8.243012529841561
Ta 9.918780343451003 8.2834773770475 10.557814312500655
Ta 6.6686892495006385 10.018079627650726 8.34371217777529
Ta 8.020927981689344 10.138749695811606 10.52842479105745
Ta 9.23591301743691 9.82800519481457 7.960976418948571
Ta 10.47656776237929 10.743930151421388 10.057839736331148
Ta 11.51609193901128 8.744533757341113 8.595715621297442
