9
Energy = -83.49041625 eV
Ta 10.246938623723427 10.789714937539802 8.010257066890254
Ta 8.805152560800096 11.69499948738449 10.034081533427981
Ta 9.777941485294047 7.933765358120727 10.688065361196461
Ta 11.376218729436314 11.777101871638822 10.095540833134026
Ta 8.115755702579154 9.449353148654838 8.819686467097776
Ta 10.28502878101745 8.22119078794585 8.181540928742857
Ta 10.463131284219909 10.183486409278396 11.89687455733922
Ta 11.908881310474534 9.273629556329293 9.87768365691336
Ta 7.999617970592386 9.654846923899207 11.37840976209648
