9
Energy = -79.85338367 eV
Ta 10.211450747520034 10.854596396335568 11.067844300604332
Ta 9.474078194005397 9.845226371397933 8.667863328620362
Ta 9.569002858527965 10.526341603337082 6.097375813235942
Ta 10.503708189462893 8.439053703476462 10.887868278161461
Ta 7.991610024934262 9.836036953771071 11.072481905635243
Ta 8.58717801620532 8.567182548691633 6.194511941803763
Ta 9.630139108833628 7.285702179724976 8.370959863621751
Ta 7.194009701835802 8.656001463658535 8.550686486035794
Ta 8.228366828027848 7.372065723863959 10.466737880693849
