9
Energy = -82.05495034 eV
Ta 8.53822762415418 10.036076097529465 7.19370700058507
Ta 10.598481476170878 8.796094332961967 8.01240081475195
Ta 8.032044921247289 7.6469705965980035 8.174780270488341
Ta 10.034419653437864 6.8553835130446465 9.579169228460637
Ta 8.113598441976876 11.890968770114265 8.792809383980707
Ta 8.159806304252736 7.524698401878785 10.971724901152621
Ta 8.093851063048623 9.737917090280455 9.947226996380808
Ta 10.437985790330346 11.058935964013914 9.110857234259099
Ta 10.58150705765671 9.042085838762901 10.808015793127852
