9
Energy = -83.48605211 eV
Ta 10.848880574980752 9.167907662314201 8.062983213510218
Ta 9.99006050784702 7.270508064391931 9.698517527879195
Ta 8.797235228036113 10.092138600641078 6.8203791835529035
Ta 10.572404177947176 9.619803260142175 10.577597558114478
Ta 8.910585200692116 11.031651863075682 9.213057917783308
Ta 8.058445605640694 9.13225706791169 10.84812694980458
Ta 6.934686845429043 9.43602594063672 8.468326576512286
Ta 8.871641264954782 7.570560778973173 7.321077236840002
Ta 7.43881268664302 7.096328197683369 9.402007860837399
