34
Energy = -71.56212544 eV
Ag 13.126648668373882 15.237213710131417 8.633253770000069
Ag 12.208094510340592 15.980867844842827 11.115267759772244
Ag 9.39782831821587 11.096491884025447 8.243581084111366
Ag 10.702300329204514 13.73804368190551 12.106244788119954
Ag 15.01142279410389 15.175592486472638 10.864464233858769
Ag 15.330257916957692 12.926552044343214 12.475719390962828
Ag 11.434756841270975 13.706258012814821 15.078592201166193
Ag 13.622814062259932 12.657319738815133 7.83472979164727
Ag 9.64630320389444 8.759693364027317 12.349608653676812
Ag 13.102633458204187 13.227548489070427 10.631346491818428
Ag 13.448392453096595 9.90039253869136 9.832501808772099
Ag 11.9623283497744 10.408452534505564 7.577767760102369
Ag 8.548640242904733 8.48962220331154 8.13282118675018
Ag 14.850596374613058 10.256424252366704 7.517428607903175
Ag 8.801303684801084 14.101912264317448 14.071811536609557
Ag 9.43894483978237 11.830247701417077 15.627780325388478
Ag 13.762410628477989 9.854376032077848 14.69955839256587
Ag 10.835285465017739 16.056637924424315 13.619028153455014
Ag 10.94911066105632 9.734839690034757 14.577191805228585
Ag 12.396084271945137 9.055424268538863 12.253744802054948
Ag 13.348753243127963 14.680725014772053 13.279829694425324
Ag 10.998137845144953 11.269031639879962 10.788705169049157
Ag 10.820619879907111 8.768405015251854 9.685765939545684
Ag 14.937398393554762 10.202315060374138 12.150970179810932
Ag 12.584089856708191 11.798827890801132 13.07452977320663
Ag 15.47314312333478 11.88860256922408 9.867125430482268
Ag 8.912569396851623 11.556775456300603 12.838337085244916
Ag 11.036166509564117 13.274655025092606 8.66827976549265
Ag 14.712234708483098 10.807480841894789 17.108807264715892
Ag 8.14544274910138 10.005316125872247 10.448671128842037
Ag 8.13400293833628 9.565880899140623 14.576680015885705
Ag 12.098868322600174 11.407647277616073 16.502781418935577
Ag 14.216326886597734 12.734935798881242 15.155330998103484
Ag 8.647462646203598 12.812987486132345 10.323391168295336
