15
Energy = -27.67088439 eV
Ag 7.268770906573233 9.203563029516506 10.623810600035606
Ag 9.878281049050772 9.66340182330596 9.554947686906905
Ag 11.334501381550064 7.637071884003459 8.334475271145054
Ag 7.927587888333623 11.739783883374809 9.590605079895123
Ag 9.024851492960032 10.916881729205711 12.11418478846154
Ag 7.746157302290807 9.512859013653962 7.785852177206199
Ag 11.24399217065999 9.760022687559768 13.330702341530023
Ag 11.66234355650606 11.443291730222981 11.130339710641376
Ag 9.689610065407596 13.407331445258945 11.019575374059244
Ag 10.304540110151223 9.942368242721713 6.83265363876832
Ag 12.143027650050804 8.609361180716707 10.923514355807974
Ag 12.524558340854812 10.250613350070495 8.661846165149187
Ag 8.754429292485716 7.156753064470852 9.209196732622084
Ag 10.512563007748266 12.235783032191764 8.585287473135015
Ag 9.535750861968012 8.061083025589136 11.854941230763261
