48
Energy = -104.58720333 eV
Ag 12.736135542934118 10.450098976619229 16.633226140340806
Ag 14.514544190787415 8.904904836595003 15.088348913018994
Ag 9.983727192897598 10.755606346273115 15.798678212529218
Ag 7.732670648654172 10.884092130651347 14.056509079880112
Ag 8.843070586099339 8.374591073244385 14.654899754442827
Ag 11.624183838873916 8.649465127117608 14.79067853718009
Ag 13.336624061376542 7.524653629920048 12.916430841569142
Ag 10.406686812061928 7.1399760852155385 12.716238512069925
Ag 14.80514593687029 11.713573287042735 15.1208118698716
Ag 12.00609479093613 12.454329277789826 14.905137791222396
Ag 9.152643434997971 13.277956676064512 14.685095637379817
Ag 15.722039406110044 9.312219579014512 12.55462664777598
Ag 8.30785078523824 12.655690377264758 11.975983471452261
Ag 8.586243883844398 9.172985054663005 11.931523826076111
Ag 13.992633345244547 14.361437801571405 15.405262934992372
Ag 11.247661294193263 15.157198066143298 15.31556769339339
Ag 9.632930637109839 7.647422963769864 9.827676838180968
Ag 10.394537531246797 11.06743464936475 12.956754333301054
Ag 14.162523074148046 8.394629638558401 10.372491901184455
Ag 12.14948421107182 6.2794713461759875 10.746213818712976
Ag 11.519910111122451 9.184187790486602 11.016540609173905
Ag 17.085146085858685 10.187613316313127 14.8212389198279
Ag 8.63227554694865 16.008812943758738 15.32180348189697
Ag 13.146013910750181 10.41320777460331 13.017994162373897
Ag 12.172690677971614 7.662665047525053 8.408490937356536
Ag 9.483236160534089 11.047949349314448 10.019295498847
Ag 11.109969763042127 13.96667091747291 12.639993473429126
Ag 15.856034537994374 15.024387154622593 13.322710054712719
Ag 16.44186709090898 12.098406072366494 12.821465064863872
Ag 8.712814346393634 15.349141154716005 12.612683403607695
Ag 10.346674525871993 9.632190077940576 7.806361063939913
Ag 13.831680777447046 13.184267254017904 12.800018977092051
Ag 14.864253590488014 11.170200677940308 10.603722240340804
Ag 12.116984447199536 12.005379484756974 10.789017681769527
Ag 9.93380108157498 13.94258759528892 10.070362817010608
Ag 13.004523875030054 10.309180877396832 8.615768457025588
Ag 10.536205437970066 17.31706919902289 13.659466713139853
Ag 13.138029449304248 16.067011894584603 13.3737427125242
Ag 15.669435394876942 13.898649223405211 10.692768641154878
Ag 12.934447756792107 14.792466681005465 10.628842290307096
Ag 13.856674585510214 12.96886803925407 8.583059910645074
Ag 10.699382550020342 16.50112071333445 10.955464369070855
Ag 11.094706973960664 12.340070519953537 8.06026216479914
Ag 11.834752432208303 15.077732054928337 8.150355720611362
Ag 12.56488387991758 18.373899991312665 11.998313050316542
Ag 14.814626482946606 15.586260913619821 8.5963275530749
Ag 12.865102603936023 17.418537903998278 9.408452228096165
Ag 14.900450602113455 16.75489949066973 11.267775535052646
