26
Energy = -79.34648114 eV
Al 13.220094775237698 13.611383599040588 7.38014672565226
Al 12.709939651167625 8.658125299009066 8.96318097962663
Al 14.092086590681436 11.619695298082824 12.10311230124025
Al 14.097103088192734 12.662593843113616 9.716907763106864
Al 13.481155040024813 9.06395490018328 11.557075366455974
Al 11.676404451477795 13.978414776232995 9.654018797569082
Al 11.908760392722685 13.198340040289578 12.176494250834772
Al 12.841958923911013 10.922066994803846 7.8211903915712195
Al 13.0258175861151 6.542263891585562 10.83436118311707
Al 9.824156190651712 14.891500032795458 11.532821617086208
Al 11.854215449491964 10.677632062350304 13.157464242855891
Al 10.623837091795666 12.420213483652127 7.649258179504373
Al 11.961017893373024 11.099651982448417 10.371772732469054
Al 9.742914182567718 10.01524822711683 11.405818608863076
Al 9.368774577951354 12.438321505927771 12.784759250979873
Al 10.602601938272935 7.576872146720799 10.07973394290501
Al 9.490062121643716 12.480493754738207 10.12724492099568
Al 10.165920724403913 9.899395444700367 8.708455884353175
Al 8.190867520354466 11.543130595792155 7.670234525088782
Al 9.671734540329155 9.839345076595446 14.24510364993371
Al 11.251001103271872 8.032518449583105 12.665194978905237
Al 7.493098720159368 10.654550364831616 12.916023556324802
Al 8.147930170299231 8.185353337369728 9.78503417704759
Al 7.412287258617689 10.787884711853446 10.050410345891779
Al 8.536112356441084 7.942427041679167 12.665996917163996
Al 6.158798598265169 8.807274076925394 11.52683564787933
