26
Energy = -79.18363976 eV
Al 11.71393622542791 5.815301228002433 12.048051194142989
Al 7.3607235324141 11.646649834321762 9.14540650926594
Al 9.693166013618796 11.49203482214089 7.0672019661576595
Al 7.638643840993239 8.91010427925881 9.450729321264554
Al 14.158369133828524 9.666782119271561 9.141468386379584
Al 8.763251940034477 13.866110722030573 8.28181785130762
Al 9.885979871554888 9.939990411652147 12.48491169198249
Al 12.017480178307242 10.67626089316574 7.894651708760845
Al 9.774975129312073 8.840281822985935 7.733790323177148
Al 10.226705995137522 7.961975396784711 10.55228378772798
Al 7.786059468985758 8.250217982777897 11.95636702588909
Al 11.790882415171291 11.076171892951447 13.995954087850018
Al 7.209251334884311 12.51000912150022 6.563959624181902
Al 7.384022810319954 9.851202144155085 6.972483420857096
Al 8.999163276901847 13.133261987872901 10.907312546546194
Al 11.15717324354669 13.041659599556729 9.018755642793623
Al 12.175226193225543 10.01187151565478 10.928696195278137
Al 12.077304275756939 8.531975805618556 13.220417817183039
Al 11.431470186590024 12.41971381508135 11.711149719002957
Al 9.751401521424125 7.145837285251295 13.118637376368643
Al 9.849657839465438 10.649539349418287 9.800675961177525
Al 13.276346931764335 7.625180639421555 10.876804747424853
Al 12.059070405219291 8.068750313444527 8.57930127115039
Al 9.326871095141142 12.360774603274056 13.535616702764457
Al 7.599684749732811 10.919313982742336 11.659206006012
Al 13.453972721866842 12.149818762288085 9.91513944597794
