26
Energy = -78.75892708 eV
Al 13.21580586677969 9.069408304276713 9.72138025209368
Al 13.11634422772602 10.024573133853192 12.271011844363482
Al 13.194325303300412 11.775430224476017 10.274806702661195
Al 10.54928022019273 9.90922462038752 13.299505090384208
Al 11.40843618835209 12.238553225606164 12.201296942746197
Al 13.437031898743333 13.545485936019423 8.27762297878035
Al 10.968935347163312 7.775889127545931 8.77991668678566
Al 11.387942147118322 8.003804128451142 11.413084044456484
Al 9.63008620477376 7.393946421659341 13.230342320451303
Al 13.177841011388175 10.963607761429005 7.665727149302438
Al 11.77229231312793 14.235921169534597 10.228336510512753
Al 10.712019557934797 10.447078332249541 10.036093392931322
Al 9.90027999539898 14.41803130695329 12.126294688594566
Al 8.776085601408056 9.21998863931985 11.319354433286728
Al 12.920988346352646 8.4422554709202 7.117742257539419
Al 9.050882661529814 6.688355856874216 10.351010456742964
Al 8.738423253251048 11.74094385932603 12.353006564700935
Al 10.980924386051408 12.53459431275348 8.078264332887965
Al 7.824539496678749 9.493649152779913 13.906243869829638
Al 9.185867042160199 12.978318694610836 9.991945862410168
Al 7.163010520940905 7.267826381688771 12.249574419531045
Al 8.502412961662841 8.971563384773434 8.558923585742335
Al 10.662115415213052 9.982881290898654 7.206719997849199
Al 6.400241394228464 8.605169636101218 10.080053818203533
Al 7.252675088653267 11.096161677783506 10.04947498652107
Al 8.509436107781047 11.615560507638628 7.650489368601409
