26
Energy = -79.3398987 eV
Al 14.142627938378482 13.68311720818593 12.510572595113011
Al 11.01981376381329 8.951607244604448 8.898275383029523
Al 8.74976393101151 7.519917424028201 8.947580348609982
Al 11.022695825882522 10.232673994436896 13.464401501407568
Al 9.07537782436389 9.102004716533862 6.829156705360865
Al 9.750209035024108 12.821098686621848 12.668496654365264
Al 11.732013208594736 12.387010929516757 8.664503667150017
Al 7.195403543930161 9.393870411750745 9.790427157262311
Al 9.438109710238413 13.442243898656 9.984486227609633
Al 13.204235680176458 7.376336319020445 9.516471138428965
Al 10.004509053619694 11.985507978725275 15.374895913655193
Al 10.785453178172304 6.649666237735424 10.32660176420552
Al 11.822269052840486 13.648883127835646 11.127565305715788
Al 13.981134810929 15.052235193837317 10.197440207259355
Al 6.641751275868507 9.366718525382462 12.329613344139293
Al 10.82486229310518 11.07364704209879 10.804626470310948
Al 8.399170001816497 10.66324555733455 13.730477259818333
Al 13.382494563627654 10.022418200716709 9.510092345182937
Al 11.21982243681851 10.59788976363124 6.806689662596172
Al 14.219480763796858 12.440259532980843 9.903735268602816
Al 12.00941558479249 8.65974736913391 11.602561370987623
Al 12.088959837121108 12.79307044744371 13.946799953987663
Al 7.996645332509803 11.498567024812626 11.158022630492125
Al 9.169235864975725 11.036713811771284 8.694066965506291
Al 9.307527657649334 8.911742688437698 11.51290987388214
Al 13.221492565211586 11.094281399035545 12.104005019588213
