55
Energy = -121.48874409 eV
Ag 9.45212696721114 9.232928360229083 7.287050359549422
Ag 13.832389449130876 8.014598947674942 10.81501971724191
Ag 11.163157540191524 7.788657368232795 11.586276922949807
Ag 10.464992340479673 11.250010995406123 9.16915976171862
Ag 9.115355500015442 13.686423465639788 8.756370978129132
Ag 11.454257368672264 13.35218794115359 7.113390720037979
Ag 9.188839524748142 11.893586197598651 6.610246337577022
Ag 7.137539079409757 12.203118045298321 13.72396649345636
Ag 12.34928858425269 10.693523169964013 13.61355923075298
Ag 12.855400794936577 13.212852341500106 9.646594659192212
Ag 14.459756806350937 12.482543849049911 11.898235207827137
Ag 13.131055594977695 7.89144865655382 13.633411956338058
Ag 7.658846141663444 11.11658617748512 8.923377228910379
Ag 9.452303011629118 9.11674575410183 16.66782221916207
Ag 8.021055469738442 9.649903642012845 14.295820198705728
Ag 17.127772815843706 12.471710706153132 10.966251024235184
Ag 14.535195039389382 15.691448366098642 12.883219291676145
Ag 16.479274542955793 11.277429109588505 8.428686547688743
Ag 10.76216546819329 12.898526119469603 11.517314357082101
Ag 7.352180528683819 14.878982290941163 13.09933149891213
Ag 8.941489313590719 8.760342303858002 9.915652519746864
Ag 12.410925267773495 16.25957082448592 14.554253720133858
Ag 11.927981419358332 10.53700529207668 6.839277704135688
Ag 16.59671833100621 10.931260392677782 13.284820974169643
Ag 15.676418074794185 13.849998070668974 8.955071233879629
Ag 16.605556887239803 15.222002883083587 11.158536663595507
Ag 11.31967390120673 15.484857709075913 9.047639882499974
Ag 12.538208191835853 13.540571286228381 13.62541417387936
Ag 10.002334310550626 12.1428126100688 14.31273441394632
Ag 16.022872392583686 12.133303998198521 15.756044015724301
Ag 15.787908541581476 8.229089654394654 12.881241923736896
Ag 7.138777581833179 10.248417496486839 11.610897212529016
Ag 10.659814059195513 11.598166195448558 17.05152428296922
Ag 8.425551318702114 14.074220942858473 15.657143914431105
Ag 9.931438865886818 10.286301838933355 12.118307384604325
Ag 14.14401436031702 9.745784115679635 8.480083812501528
Ag 7.570479178595914 12.964010098128227 11.035173033105666
Ag 14.133017484500371 12.235442018266827 7.159191303454029
Ag 16.4443207124798 13.74583876638515 13.537072685944906
Ag 8.41029033617701 7.725409890968233 12.379896383211767
Ag 14.744846886014694 9.75625576052144 15.01215064991041
Ag 10.445506599076127 8.173040196349756 14.246014824259534
Ag 12.192501189546736 9.31548594798088 16.08960187508403
Ag 14.091193819910693 15.916723191373746 10.07237127369429
Ag 11.955158619085067 15.667944160438791 11.761274039235168
Ag 9.203905454652444 15.262762894084004 11.019769811191274
Ag 13.255058486549562 11.961674127474936 16.086710226121262
Ag 10.049937198278572 15.069817917186747 13.709591735165652
Ag 13.616128530841841 15.026458129439884 7.464342775800722
Ag 11.360334347107385 14.137797828900208 16.115781184213038
Ag 11.657950162163715 8.60194107397625 8.963885909371383
Ag 15.726396034428323 10.038061412308661 10.786823991187237
Ag 12.623486284462626 10.601799368794664 10.805248410231783
Ag 14.430871027870024 14.474288361365117 15.482236146801666
Ag 7.947977317370613 11.460326792721915 16.37111025343061
