19
Energy = -37.12296091 eV
Ag 12.216204434907755 8.490848001346437 12.806211785219046
Ag 13.433659739431485 8.280415441140454 9.676450427088405
Ag 12.069888344152968 11.527228548066244 12.895219604268991
Ag 9.457041039152472 7.6586680796241 11.994147770135418
Ag 11.162644902457698 6.740947579624695 9.997253610703542
Ag 13.86605407550992 10.612785978327537 11.00486457319531
Ag 11.151693103090992 9.681041203028325 10.714002253815178
Ag 11.305118713631977 8.796296031165676 7.9998023296853225
Ag 9.799177991743395 10.020690367878856 13.425310032341663
Ag 8.875919844626196 8.121516086239147 9.267627653173056
Ag 8.02954978755634 9.95291766195608 11.294399707168719
Ag 11.960353535491546 12.39765367335115 10.142738063304988
Ag 9.645772566705931 12.273101694732317 11.732958912403246
Ag 9.743416676474325 11.05980505631219 8.880462039490176
Ag 8.92980232172893 9.569667767055268 6.72382130544188
Ag 6.967904446300727 10.06009200122754 8.690982728015548
Ag 7.4094657911691675 12.416969763527016 10.083517899617256
Ag 9.70636048077877 13.781100636100359 9.210527669624515
Ag 8.078026873584877 12.351242400296634 7.218309020733659
