39
Energy = -83.67101111 eV
Ag 13.335645647742194 11.80042318300936 7.030007321047702
Ag 13.804450207120544 13.018818878404623 15.49362263023127
Ag 13.28996842738544 14.41092931729524 8.138250313867953
Ag 10.94812917867252 9.234280045255868 10.246014522740248
Ag 10.774816635317892 17.42925606859642 13.599225687197322
Ag 11.051345161185925 12.605940964145692 8.542666392150192
Ag 14.784258089676515 15.272032178330594 10.385793862580783
Ag 15.178415567983514 12.60516268485713 9.057941530814139
Ag 13.570606206175484 6.21690638522871 12.811737445468902
Ag 11.029725820618877 13.34357265122202 16.146187263722037
Ag 9.51043446250391 15.817147689443242 11.68668448683398
Ag 12.476118732426123 15.556948763820724 14.833496481088686
Ag 12.37777348630605 8.402386902995458 14.039611304543044
Ag 11.460683651632033 10.799292380796008 15.105660329335162
Ag 13.122453201804293 10.694674798600303 9.521971846453516
Ag 9.257469756155583 12.193075496947406 14.084543407935934
Ag 15.042087196839887 8.813212110876817 13.26657209160109
Ag 15.416840438940817 10.55590303822487 11.054590847539597
Ag 12.725834277855878 11.49937632225213 17.55214428216367
Ag 11.054158501025256 15.247003197626325 9.511979164990208
Ag 10.001374742676642 9.649705117972601 13.020458382330423
Ag 12.387637070442976 15.864559201075501 11.950940006782739
Ag 7.89050476251381 11.162518678720247 11.800539606859335
Ag 16.402460031030227 13.192092316828116 11.474194886553134
Ag 15.520204069113685 11.695827035409986 13.626591847303066
Ag 8.931514132877101 10.799593316406463 9.194697272752077
Ag 9.654283415247376 14.993412060781658 14.364913322672601
Ag 11.198150717851743 9.9868687020384 7.562543263669853
Ag 8.721425246995068 13.659695888398257 9.925537644277439
Ag 14.102966820874377 10.190199965094763 15.503999530429494
Ag 12.80487947063063 10.753769041139748 12.436174088225378
Ag 14.481688087980833 14.326921129596855 13.111571558876186
Ag 10.95258723689747 7.130628826819346 12.026679620053912
Ag 11.839523558698584 13.260984089663067 13.414787830074093
Ag 12.895263251326094 13.311627701774185 10.785776224036564
Ag 7.732917783526034 13.866451747088698 12.526746278410089
Ag 13.470456406426594 8.329132153194873 11.039359182635224
Ag 10.504319018792895 12.010407822350576 11.314680812594055
Ag 8.459400998855713 8.462033617844222 10.973878899285198
