40
Energy = -85.30383168 eV
Ag 12.475509513241775 17.488952045886933 13.488416262465128
Ag 14.623567773722902 11.700287363578523 17.097661046169527
Ag 13.028629961157485 14.766110442615933 13.687304481996268
Ag 11.265431624733212 15.993797177511725 15.540287966718182
Ag 15.001585601911664 13.174721512444123 14.805015413394164
Ag 12.761146793765228 13.76508314516259 16.348265969094772
Ag 8.7021167238064 15.125532983104497 14.9449910878397
Ag 12.667269824276955 15.940466046168138 11.094749839004823
Ag 14.706516368485783 10.12751174345678 14.723973681472778
Ag 10.378656669990052 15.773926924809277 12.78737349144206
Ag 15.935080090686585 11.817817887684098 12.641462754772972
Ag 14.32221813722065 13.582083076995458 11.321754614795658
Ag 12.205413338828302 11.039174900185339 15.920624435084877
Ag 11.423716499514963 13.440962412912368 11.623690961435017
Ag 9.626833879521087 10.459827918898029 14.942602021911586
Ag 8.673500932339312 13.48872594340083 12.50702747245003
Ag 12.99791042627911 11.847133413713774 13.223044748795566
Ag 10.65538534904508 13.123963692328738 14.532528863566997
Ag 7.761064984824576 12.48919663110155 14.923754553895897
Ag 14.734047924223745 15.369715278319672 9.18451626622539
Ag 10.414189559871627 10.998932551430169 12.281429681536595
Ag 14.762712583236258 12.668439160573511 8.65311414591679
Ag 16.67044565851913 9.222840882899439 12.7165211611077
Ag 9.483694913649199 14.567400386829497 10.040127909577425
Ag 9.192560649284042 8.474522420908128 12.92344389362827
Ag 13.998426570041193 9.173816149539842 12.16405755400257
Ag 11.896294241232797 9.113029816960976 13.949387832813454
Ag 7.646297983611027 12.243148843544958 10.236216839801768
Ag 12.788561400922154 11.154437474156833 10.331345588749954
Ag 15.61871676328933 10.504073120012597 10.249942415132175
Ag 12.26646297654449 13.986270845882247 9.046479826390868
Ag 7.6275947190298465 10.792233037561806 12.663759919856801
Ag 10.237186482502203 11.936462632589437 9.351102991916983
Ag 14.576019513803258 10.155127706133197 7.581654395451024
Ag 8.817777128386545 9.628776076906698 10.300633873109446
Ag 11.389414896581616 8.572762798352462 11.19655566876828
Ag 12.306344328127095 11.70273473615756 7.43262318654109
Ag 13.605887424272058 8.440889742947247 9.501356599999683
Ag 11.05964235868367 9.35510589280505 8.501548887172595
Ag 12.96197892739531 8.051434332804147 6.8517272794105875
