55
Energy = -121.38423203 eV
Ag 13.33468642525571 13.72203149694669 13.250059209577152
Ag 8.768544121436026 9.314193435841148 12.265796665973902
Ag 13.254623080090914 9.319569082710405 15.811702904969211
Ag 8.617635558826922 13.677430705146312 14.69307359618412
Ag 13.461179735429871 12.258868732250226 10.767733900142037
Ag 13.28271556975669 12.284216354897776 15.76528876214057
Ag 13.272888598859156 16.610369695570064 13.203468430190023
Ag 13.426760114928406 15.25111146828707 10.693143440184752
Ag 15.530241615543481 16.534361226309574 14.934485016732912
Ag 13.373786816938734 10.82794431060588 13.264254700610262
Ag 13.520353536540872 9.273141017642576 10.714354357005998
Ag 10.918748184781428 13.736363407382239 16.517647734648026
Ag 8.647418131878725 10.744933527304083 14.700934818745964
Ag 15.797658943053454 13.748428991061479 10.03450152175344
Ag 8.631089451946792 12.234501048160165 17.088830610899976
Ag 13.405136321527129 7.949224695948541 13.238190184852614
Ag 15.836395532999841 10.799529706128713 10.043124039778327
Ag 15.752331171410946 10.894407192094897 15.010076213267917
Ag 10.99337535005108 12.242613000892673 13.968766620473106
Ag 8.720848431423114 13.59209240902185 9.729615638864832
Ag 15.619993977742867 8.090933525363466 15.011116953847372
Ag 10.939960253414686 15.233156025617044 14.03437970581228
Ag 8.7527268153759 10.753803358041722 9.733070098388847
Ag 13.201390466942929 15.248490639725151 15.7753674220924
Ag 11.009000427442327 9.257992159697704 14.043673551644225
Ag 11.188381284203444 12.22674209083392 8.982521796262896
Ag 15.724338463093202 13.724759841164914 14.984752688061388
Ag 15.801904216911101 12.29740700898411 12.501585650800909
Ag 15.795376067243105 12.273290721887475 7.618923743991779
Ag 8.885621296474211 12.17333738448586 7.206333832238218
Ag 15.659319242545655 15.185830301927096 12.447054958204353
Ag 11.167549669227059 15.205969738767738 8.957209489285685
Ag 8.867909319927334 15.00798229916791 7.28999838425563
Ag 15.75800252322704 9.420484449449312 12.499330313182876
Ag 8.757570812056997 16.39495879604817 9.770795440855574
Ag 8.961858693936545 9.352331085877351 7.274470501528223
Ag 11.074230832870771 13.674434220722414 11.484964551254516
Ag 11.256789197487635 9.258095091859355 8.951469278359717
Ag 11.208981333410863 13.701440615265662 6.495880908850732
Ag 11.013921331945568 16.56350700569044 11.51223289639951
Ag 8.932782934961555 7.954687756193241 9.765664344824089
Ag 11.252800841077137 10.759911685340436 6.483744360275113
Ag 11.121262317045582 10.774480919329722 11.487357754764677
Ag 13.520754387475128 13.818514609701527 8.242288670205134
Ag 13.558287559360103 12.258386085030661 5.910073772423391
Ag 11.164061516054401 7.894624136520014 11.53621685937335
Ag 13.562933416980819 10.694345372339454 8.248759042829278
Ag 15.59367355389051 12.330094128667142 17.5326967236534
Ag 8.652357429283612 12.175545361106316 12.229962969795988
Ag 10.93974040473258 10.769481711851085 16.515861055897183
Ag 15.549361844550235 15.141514246997785 17.40631652035568
Ag 8.69838391216631 15.050272088458332 12.263865449004498
Ag 13.234161329748417 13.752757652826519 18.204230331681416
Ag 15.574528560533773 9.49960826991535 17.470776119225327
Ag 13.244223359500234 10.856054396461076 18.222561778897276
