15
Energy = -58.34521351 eV
Ni 6.809086159414425 6.505779807368724 6.122315678232272
Ni 5.234782569223663 8.413406473600235 7.2621950406730535
Ni 9.760032500128288 7.716426178237657 7.934430250514621
Ni 5.797925148234912 6.489514158613809 8.443742122946238
Ni 7.978326889882757 6.871245696118821 9.580993694859403
Ni 6.145022693799578 8.543092259939765 9.547124548052636
Ni 8.420931883857408 9.263120479711736 9.29326811526848
Ni 8.850645106195204 7.944587435661341 5.629365495761635
Ni 9.73740900445617 5.501806837131014 8.769660036440232
Ni 7.509650256316231 7.950886199678217 7.6225137801697995
Ni 8.879530090457479 9.850133643534223 7.014319567530218
Ni 9.155635841358897 5.873604381781651 6.540615599328601
Ni 6.692199191691297 10.189328156201928 7.909726285178946
Ni 6.886143634102811 9.197666370980073 5.73488949437258
Ni 7.568360158954252 5.11508304951477 8.020521418745679
