10
Energy = -36.50086785 eV
Ni 10.598514167481108 9.582004125456319 8.320450431001113
Ni 8.972791987719487 9.375713043233302 9.977221310981758
Ni 8.718402319554448 10.999489750900198 8.304660863920246
Ni 6.844845613214599 9.71414777028204 8.911391971847662
Ni 8.474165830207365 8.84401985734208 7.516987748671905
Ni 11.195449973551726 8.711262434316826 10.317383813453278
Ni 6.249749341232734 7.9680284440682785 7.486067953000012
Ni 7.518549389531672 7.533762657515571 9.441762368099766
Ni 9.83688914923436 7.396331964609551 8.979983721968722
Ni 8.210796760231991 6.588913769072957 7.481799148966022
