14
Energy = -53.99877968 eV
Ni 10.084739882635013 10.067322301022495 9.9466135
Ni 8.731564757227986 8.894333009823537 11.644712083985661
Ni 9.448168676062693 11.107994381295237 11.968616709239562
Ni 7.878478825264497 10.357951357943673 9.9466135
Ni 12.25696979835288 9.341898105505905 9.9466135
Ni 10.055950470875747 7.840769866495359 9.9466135
Ni 11.019896628116948 9.283247537417184 7.922352617979821
Ni 11.658111465674594 11.426124558532285 8.768796945660014
Ni 9.677624074195009 12.328064257676004 9.9466135
Ni 8.731564757227986 8.894333009823537 8.248514916014333
Ni 9.448168676062693 11.107994381295237 7.924610290760436
Ni 11.019896628116948 9.283247537417184 11.970874382020176
Ni 11.658111465674594 11.426124558532285 11.124430054339985
Ni 7.583342744483375 7.893184287248834 9.9466135
