11
Energy = -40.62579941 eV
Ni 9.590843077331671 9.934362716923264 9.155316975713175
Ni 9.228010556390576 9.777686106846163 6.59496804830556
Ni 9.550133462952811 7.692109731642041 9.913928720657031
Ni 8.349147553005787 8.373364592129576 8.116702264028858
Ni 9.12074276396921 6.087166939388848 8.148270440924088
Ni 7.043921603293203 8.906786595505338 6.348513364406121
Ni 9.019620295371567 7.461674588178393 6.154017949454121
Ni 7.57293412197652 9.13461528869351 10.10326390235394
Ni 5.95844247136317 8.389908200989103 8.454036875055081
Ni 7.019460060209408 6.668848325044985 7.199221130106531
Ni 7.35422696195787 6.812356286223194 9.561033672244672
