11
Energy = -40.95451562 eV
Ni 7.356804913003438 11.195114644846061 10.60814694898665
Ni 8.735364971231629 12.66601974972763 9.592814543496406
Ni 9.700339427980435 11.030881004818735 11.054975339664866
Ni 8.958265336803603 10.355871147678297 9.04347643705825
Ni 9.769526481557893 8.145355097040596 9.500107816890491
Ni 11.185365128105394 9.670628668774834 8.481873511388297
Ni 10.50815577367557 8.814803401243084 11.515658753496389
Ni 10.845584550934614 11.892613418513179 9.125178405926212
Ni 11.932842838767032 10.330859506236637 10.499626633253785
Ni 12.099856781281808 8.034890606891937 9.93421937349459
Ni 8.245180685838267 9.109056700412985 10.992339994031756
