19
Energy = -65.55104653 eV
Ni 9.599328413669339 9.210913126166158 6.069483038287023
Ni 8.804525526493634 11.50546298087215 6.491663208653482
Ni 11.372661559416645 9.583785942221045 7.954586279872237
Ni 7.481057358841401 9.695212162196253 6.7059046436985055
Ni 10.85701606053171 7.395033336147957 7.00027739745892
Ni 8.376817467701088 7.378301254120214 6.497570335507498
Ni 6.949722679714734 11.413281225141374 8.339128728524788
Ni 9.04539052290436 11.009566751046174 8.761026631466482
Ni 9.421877423032617 7.771389079614312 8.59281901668667
Ni 6.9754480808824635 9.158864794311183 9.188019796707767
Ni 9.764862601145811 9.341657472397493 10.778345137399757
Ni 11.808542057187086 10.72093094827935 10.292034479888164
Ni 11.999972053764045 8.472433730692073 10.057617067217835
Ni 7.807745960066631 7.987576748762435 11.459450019073417
Ni 7.471394003042713 10.238872657751013 11.302142097819443
Ni 9.86667535377893 11.42081858911081 11.865508804208234
Ni 10.286436545646387 7.398457646574028 11.869153522913681
Ni 11.443787141896891 9.461355301868478 12.263570274570828
Ni 9.102209826538617 9.27155688898311 12.947170156300196
