14
Energy = -53.69604433 eV
Ni 9.606902042764098 9.119902738280159 10.09075247609707
Ni 11.473522026441529 8.009125013942397 10.842828481700714
Ni 7.572896096612307 8.274347085567548 10.719588933280038
Ni 10.907247235832857 10.852795881037766 10.883976770040993
Ni 8.427857170886417 10.969481931541718 10.808031423726488
Ni 9.780927601488196 12.855115131877513 10.459443567331741
Ni 9.433504484057046 6.801547652106257 10.564750270266197
Ni 9.719752943309961 9.817205005155719 7.900581637386108
Ni 11.810237875135632 9.593432781644532 9.110500158366786
Ni 7.528632887900193 9.834587956925544 8.941954124853103
Ni 10.959197144768636 11.720570879008331 8.75639640757656
Ni 8.647040964650202 11.837534451319483 8.681842306518298
Ni 10.723572277591288 7.591592283973446 8.664198354361767
Ni 8.415994256308943 7.730046211493032 8.58244008655734
