16
Energy = -62.74426537 eV
Ni 9.994498637139474 7.535412029152044 8.829011243049273
Ni 10.043992511152318 6.639366736880258 10.957440984446086
Ni 11.403454963748366 9.233745752560722 8.11181121745862
Ni 8.88357715175084 8.618902397470613 11.431530919068285
Ni 7.780029237280432 11.145653450826357 8.724615154858649
Ni 10.001032839348982 11.224310853320983 7.7899762572040565
Ni 9.438226181194734 9.75350985560333 9.519275180950999
Ni 10.3699845430742 10.615883598185146 11.562565108385074
Ni 9.59573605003277 12.18821157009939 9.90961202779567
Ni 8.035635910828887 8.696534514680605 8.043691394808429
Ni 7.962649963579722 7.110200811103835 9.85349528446846
Ni 8.06040667980904 10.906721696966464 11.16125493952316
Ni 6.984813572008707 9.239758315524755 10.00441830347208
Ni 12.267267918211566 11.249049414791022 7.41320596415157
Ni 11.621450895395053 10.988600638360277 9.618365992750363
Ni 11.249060202999607 8.658664420337201 10.512728021025215
