13
Energy = -49.70032473 eV
Ni 8.64957059082017 6.981549829347623 8.063415091128398
Ni 6.727223969228786 9.55398891101875 10.282013257837235
Ni 9.551428278868581 8.603249215181267 6.57812920085034
Ni 10.206425095922981 11.086071860826756 11.709093627679113
Ni 10.415317242524768 8.89007174444982 11.109420761030078
Ni 8.331940703402115 9.568177552534333 12.032973634203056
Ni 11.612454273600655 9.657783803378871 7.320694211154139
Ni 9.600783993848244 10.662949626827691 7.735501409549835
Ni 11.18332120723786 10.541552009808473 9.549694750633881
Ni 10.207102744929214 8.536257154056534 8.780130402142351
Ni 8.86047164328259 10.401132702662231 9.95795432096062
Ni 8.392591396103526 7.946313168263994 10.225115667222632
Ni 7.816555860230497 9.126089497931106 8.21105066560805
