16
Energy = -62.97689006 eV
Ni 9.596322197023618 9.597004451742698 9.839098876615848
Ni 8.513849606492625 10.447781854453952 11.808511579600122
Ni 9.401836319290284 8.240189231259118 11.79915439907443
Ni 10.875642987801946 10.10806046137589 11.801524503156735
Ni 9.76579720132842 11.832380285552027 10.220279230554267
Ni 7.517901925684305 11.011095550136421 9.800584021332078
Ni 7.575265422196088 8.626784285406814 10.213471234391644
Ni 9.416225832657608 7.080895460501058 9.80566738247082
Ni 11.451118521383057 8.338042130800707 10.20353987297938
Ni 11.86935174136827 10.705579272128812 9.80476176022598
Ni 8.873288518636375 10.7992705654307 7.936524120453191
Ni 8.896612011237005 8.364102934347263 7.945549746390838
Ni 11.014657353807412 9.604572697123507 7.949186303979744
Ni 10.86156328413608 11.984787986138144 8.134434377452864
Ni 11.024219452067538 7.28737072317564 8.129720377039229
Ni 6.8749952248893615 9.500729709363357 8.136639813219356
