18
Energy = -71.82807584 eV
Ni 7.914372356252815 10.867680533835808 7.638165982269955
Ni 10.152654002793541 10.380348930173787 7.193741426038829
Ni 7.854282828244173 7.373845115689185 10.608309499493538
Ni 7.117885245489538 8.978389789168611 8.939299943075492
Ni 11.662693793192906 8.508079550706684 10.460103005742663
Ni 9.339365830500624 9.271088052856998 9.395457081715012
Ni 10.08911710825708 6.861827294283275 10.231993150843069
Ni 9.513360297076218 8.811678881381722 11.629305843608682
Ni 8.581785497358398 8.73264192548603 6.977571279597513
Ni 9.567762400175997 11.542913400605594 9.28137922018143
Ni 10.665971585416527 8.450429487589188 6.007399621293636
Ni 10.864122948808692 7.976539403244882 8.212089068603495
Ni 10.97027550152749 10.647412961815157 11.0560296365863
Ni 11.652803239558605 10.232217420653397 8.907964156141682
Ni 7.185163635275399 9.456477907939794 11.323109439133589
Ni 8.588691827894252 7.006082550532169 8.469627402867284
Ni 8.77269619726989 11.131642220069995 11.545596284221453
Ni 7.229072786173162 11.223166067222017 9.81958265325832
