10
Energy = -36.39854402 eV
Ni 8.815012061158136 11.379109709804533 8.113179344811456
Ni 9.198268059290365 9.171132841169609 8.72128850761624
Ni 7.421355905615774 10.414519678387741 9.674686424131782
Ni 12.73992588672156 9.274877482504396 11.857455041604812
Ni 8.791148003691733 9.148661025812176 11.028364337544257
Ni 11.979147742909186 11.023495602719073 10.571285673487582
Ni 9.593776744385659 11.1895508140188 10.335034557196845
Ni 10.986967812111978 10.715054073123149 8.528230337259194
Ni 10.588237166585131 10.019387417343427 12.197455188750467
Ni 11.085177521364123 8.935354234199416 10.226655759124359
