18
Energy = -71.70448658 eV
Ni 8.599284475732388 6.589746790585823 9.827341695753953
Ni 10.767875474553554 9.19666804027743 11.85964331443665
Ni 10.649908200190705 8.29381915501993 9.675544682790914
Ni 8.689180705252461 8.458665663148857 11.238895681232885
Ni 6.588110078063322 6.54698055786218 8.490418101149663
Ni 11.928234437776467 10.234833749867112 10.161667972934382
Ni 10.336251127035089 8.419338815692399 7.169368233171249
Ni 8.634179679793519 6.791153925398829 7.380892258255005
Ni 6.583713133150913 7.365136509140885 6.320502496164231
Ni 10.793493593331883 10.406244856038793 8.1955652510277
Ni 8.540766339382674 8.606056407200935 8.779366733720723
Ni 6.412512033454864 8.893684255940649 8.125347129171084
Ni 9.578843599359589 10.424177532289967 10.197387867452035
Ni 6.631106940394024 7.876917429040166 10.361524785429621
Ni 8.183954908684944 8.997041819855877 6.375622135030208
Ni 9.860330248010888 10.538055841715384 6.114127735946123
Ni 8.414966996031417 10.760760608752708 8.025384910200188
Ni 7.247411380943687 10.127032633570085 10.056955346329959
