16
Energy = -62.94264173 eV
Ni 8.720701819103315 8.879058873789733 11.836337783428574
Ni 7.787557069422134 10.794973671535713 10.910301587523103
Ni 8.132037287947542 10.126568860545595 7.052373295941786
Ni 8.724397126055969 11.539678563511051 8.870541868644084
Ni 6.66265544497456 10.282272184550312 8.857472243718787
Ni 11.872231253675704 8.525636577830198 7.0101752008740466
Ni 7.591210993081643 8.048711982047752 8.054391677711516
Ni 8.840207288406509 9.279833991091923 9.41734571757471
Ni 10.292584124776791 10.45629983773738 10.620215643483183
Ni 8.702474872326981 7.112098077014599 10.215954792875674
Ni 6.823191844551153 8.549026975048298 10.402856759657778
Ni 10.388437987425297 10.140067729864391 7.891384891620175
Ni 10.739892193133063 8.154253100889166 10.909552306638489
Ni 11.993945981303865 9.205786133009651 9.273365436938265
Ni 10.338255067279295 7.686739510005936 8.590700722958942
Ni 9.558702410129804 8.391197938381664 6.5318816432390365
