17
Energy = -67.44088596 eV
Ni 8.79062209770683 11.909643282747789 8.745751273805116
Ni 10.964856104950993 11.244368062192517 8.364164569905608
Ni 11.952988655254869 9.699312957841304 9.75985748372456
Ni 10.078297189109326 11.016882824399287 10.649831517788181
Ni 10.786746979974282 8.826448115820295 11.54631993604582
Ni 7.618467833120741 11.046410235056483 10.534630033087533
Ni 11.278867389547493 7.4872657671996015 9.72003017999621
Ni 9.284912584282845 10.57789554580787 6.920668711585768
Ni 8.611929235930607 9.492512495226089 11.923113520030226
Ni 10.844707815135394 8.867156154685205 7.73122034458749
Ni 9.328065628482557 9.338329237267923 9.341958141393444
Ni 7.3869958957253665 9.934489160409724 8.345664178410814
Ni 8.59961466741244 8.37637264658235 6.888139428607079
Ni 8.967420174502932 7.475719239612542 10.57067732370468
Ni 9.5955083848631 6.831611350195372 8.290200825698468
Ni 6.920408328841769 8.839040974245492 10.483208926752997
Ni 7.4158131428228335 7.499675222323349 8.671927641624817
