16
Energy = -62.65335093 eV
Ni 8.766802798429978 7.040895173860985 8.949933780412529
Ni 11.318600499238105 8.942819729108843 11.649038709557303
Ni 9.87745592914278 8.1533383805864 7.19006276194476
Ni 10.671978315055545 8.383360427528563 9.426220448091376
Ni 9.34212178418012 7.472727416901697 11.157156896916177
Ni 11.05434047310289 11.693980625872936 8.900283321584517
Ni 7.218457443705257 10.730746717418508 11.23394931375787
Ni 7.125411358383102 10.676587609472346 8.939239592368187
Ni 7.634001141850316 8.690138756544611 7.751953932367271
Ni 8.955359118245388 11.849665993915146 10.021340757665135
Ni 10.998252705229893 11.335624712021275 11.209469480196933
Ni 9.36327892701971 10.154456964542693 8.374096288469438
Ni 7.498303916795711 8.652974489448182 10.095278384755394
Ni 11.57120417022554 9.718400341615705 7.663329807577045
Ni 12.346360798606888 10.003561544700393 9.842568310181454
Ni 9.324881964961456 9.786030276487503 10.899806242654542
