14
Energy = -53.6039506 eV
Ni 13.181121329708883 12.169487364110449 10.314512705694055
Ni 10.737903116231653 11.286796041265527 13.29845055521939
Ni 12.954630135555144 9.8195280720522 10.433338793118002
Ni 10.95811309074692 9.408428611442618 11.796402813989161
Ni 12.79820031802414 10.983198854559362 12.370610733165881
Ni 11.834437737256485 13.045619248949388 12.04842617710164
Ni 9.0494832565526 9.244006606034235 10.345209325943536
Ni 9.519913911619753 12.690468423828491 11.970081898906118
Ni 12.17821243161011 10.915805362315082 8.558376817251133
Ni 8.817294273052196 10.384077279251418 12.350098438020128
Ni 11.138985358425433 8.888342983147972 9.422283101641158
Ni 9.853658647167256 10.592839119386513 8.529162633237457
Ni 10.92314649480272 11.3841700693406 10.547267951186729
Ni 8.519878218975245 11.476196613820614 10.26111348333882
