15
Energy = -58.35708901 eV
Ni 9.295057009163884 9.91568879083902 11.206874420599025
Ni 10.193269196162468 7.789379210243516 10.974042381655762
Ni 8.719505029315378 6.4015892000626184 9.686613300661948
Ni 11.039556156527587 9.752121066359566 9.40339723558403
Ni 10.820434573656549 7.170486613111404 8.804320891673054
Ni 9.218895092009465 11.47827146955486 9.565321880071554
Ni 7.751967304624051 8.156500522940815 10.989343427696342
Ni 10.469726708439623 8.749338278080906 7.151277893715578
Ni 8.796128892887698 7.1078521615601575 7.405246036002518
Ni 9.101168758313333 8.744122665507126 9.116900617479791
Ni 9.823457554736736 10.895768961840123 7.49062708422608
Ni 7.6511912353022336 11.688246111068558 7.836225391599052
Ni 7.981616264317901 9.412520576616615 7.2394736221324125
Ni 6.969555666078232 7.778140539878505 8.771018511917989
Ni 7.302225689037533 10.078363407630262 9.55756502215951
