17
Energy = -67.61902697 eV
Ni 11.292329125373527 7.338740131598697 7.275217917327361
Ni 8.973413108545047 7.492942053236379 7.309104068810057
Ni 10.330928880852163 9.332231364321377 6.539885747812381
Ni 10.169288901021433 6.424754699562533 9.112495144906175
Ni 8.794256748772648 7.74163050577069 10.608851454303185
Ni 9.239191421186685 10.187434259198342 10.39521534164786
Ni 7.169034768878707 9.43088492753555 11.26391954384596
Ni 7.826479671562691 8.990132944378281 8.950036647123124
Ni 10.270015329699412 8.760336740064666 8.852919917603279
Ni 8.954213214790537 10.722692518564847 7.971136178696469
Ni 7.847158860767361 6.319653488069879 8.926339529387281
Ni 6.348427837180321 7.5094703899936555 10.168305555961078
Ni 7.264439215929158 11.247561985277402 9.657184789349227
Ni 7.999953952841726 9.301275309708844 6.29532738678304
Ni 5.551972123957407 9.563145403525121 9.47729047873677
Ni 6.410375117147507 7.916727771648222 7.658659142177331
Ni 6.500959977674976 10.451627411578208 7.56558807670597
