12
Energy = -45.4687683 eV
Ni 10.256676421282082 9.957657989481074 6.949118940859435
Ni 7.9042307996958385 6.879245084417479 7.101277680718406
Ni 10.69289084965456 9.762633112291784 9.221641119259303
Ni 8.909820819414172 11.090172831382493 8.476765025253373
Ni 10.182423225580159 7.687707317290796 10.313295032197544
Ni 6.453750810063661 5.688591994576084 8.434902231943198
Ni 6.678040172668244 10.30145843377814 8.830674056543195
Ni 9.834806113673363 7.916208396305097 8.022846705757228
Ni 8.309684528119615 6.65180489996316 9.394791586340808
Ni 6.524518230211884 7.987052789882296 8.631446603688099
Ni 8.465274622919884 9.07132128985163 9.628631370955471
Ni 8.042270181848334 9.25277406404659 7.263276732569902
