14
Energy = -53.8169256 eV
Ni 9.049847303604144 9.097154601596133 7.902079579042581
Ni 11.43593161265056 9.100799143287233 7.938298695076893
Ni 6.676708082869645 9.120354365366959 8.093402574164163
Ni 10.287914045217773 11.15196298394528 7.988397557627296
Ni 7.881611943742619 11.157177577143463 8.040720860596377
Ni 10.21093857044882 7.022610037754036 7.965862955841683
Ni 7.85445509995789 7.029336659498403 8.066433263276894
Ni 9.129771930993929 10.54224604632247 9.922501275925342
Ni 11.439900867473918 10.408459139694694 9.894134463711461
Ni 6.814283303830071 10.453521237646495 10.01591091274643
Ni 10.369678372570498 8.355079316856143 9.873184473073978
Ni 7.875203458949885 8.384634565450352 9.974663842566276
Ni 9.10116527360572 6.415550774651506 9.94917101417792
Ni 9.21440621384411 9.102929550786698 11.71705461193281
