11
Energy = -41.11106351 eV
Ni 10.539545369955011 7.633515040783508 8.351871517743986
Ni 6.90205929294656 6.966279111843893 6.688799110405081
Ni 8.705075291853342 6.120669895983207 8.122123887028557
Ni 8.466548798176191 8.349818372391967 7.655494244580248
Ni 10.259369302185384 9.715942621567608 7.174356832260411
Ni 8.843393222519754 7.419079494877179 10.081737031619499
Ni 6.791971132086895 7.204385735644972 9.000491476142027
Ni 6.307489248114161 9.122600167809887 7.6972282471292495
Ni 9.604154330801412 9.510005572037507 9.413862735926473
Ni 8.155788816946416 10.617282512691833 7.925592188609106
Ni 7.32345891177128 9.32334201731743 9.812494151399399
