13
Energy = -49.53677834 eV
Ni 11.86150202577451 9.651299768952475 9.84376859298515
Ni 11.859706377625546 8.048829055129533 7.8213831141808114
Ni 10.558224124624921 9.929473918836434 7.977700663787432
Ni 9.61073301443168 10.268062883819722 10.196218194250596
Ni 10.220590369617184 8.077983052255972 9.449487064043478
Ni 9.602541973633048 7.849917464824479 7.146495246821867
Ni 8.318421136768201 9.414225253319643 8.391081572287566
Ni 8.268496072519822 6.888670290812497 8.877942900053254
Ni 8.272707082374666 8.376723630537793 10.742779379327253
Ni 7.172296975137695 10.333971707127525 10.14093725370681
Ni 7.1584292092037884 7.911632878613379 7.1154941270685645
Ni 6.119793202990423 9.94207913930365 7.974631419931308
Ni 6.35244820270375 8.184707869450428 9.381432357068764
