18
Energy = -72.16487345 eV
Ni 11.245503972456664 9.959588002527132 7.314092576232818
Ni 9.370368784776732 11.32389618275051 7.522888599607666
Ni 9.058910885125957 9.066603828087132 8.309501864286956
Ni 9.377216956652216 9.562181490821287 5.897885328170309
Ni 10.358129011019297 10.465504111983096 9.564933101185865
Ni 10.411290563367961 7.7023906501134345 6.804113318973175
Ni 7.382485975569402 10.27048513172803 6.843653353682136
Ni 7.952358018193434 7.773004376841877 6.840674327794477
Ni 7.74816979122513 10.71380000286694 9.20660799368718
Ni 8.7348911411539 10.262390378585158 11.317492746144683
Ni 7.085252407550812 6.713635442314595 8.888404962337502
Ni 6.380172226911782 8.84670278358837 8.32748213203355
Ni 9.391928863207529 6.774025309848709 8.753877631274316
Ni 11.304003272781335 8.258857061720027 8.890230445619785
Ni 9.823266645902645 8.301991638863111 10.638434148170587
Ni 8.357844608580042 6.446158535187846 10.876010255537851
Ni 8.333157522851238 8.24304334869893 12.439017055885
Ni 7.475976080036995 8.537992280552292 10.314401127140473
