11
Energy = -41.42794559 eV
Ni 7.929831005489088 10.401315713599699 8.549619006435698
Ni 6.0897104463147125 8.93566262083441 8.311358172089387
Ni 9.946692602218638 9.080265428506126 8.75346330827808
Ni 6.88529231033157 6.713887490218275 8.350368588440515
Ni 9.245156858240236 6.7736325140843 8.618904601747204
Ni 8.051932594534948 8.364952905903325 7.253981534912678
Ni 7.765822987803226 8.306934858192374 9.757956422778264
Ni 9.010659959707704 10.034969902076407 10.62198019428704
Ni 9.813891051625458 7.819879002627445 10.673278409116056
Ni 9.454566281850687 10.117324150793653 6.7590690062490655
Ni 10.257558901883723 7.902290413164357 6.801135755666264
