12
Energy = -44.89482601 eV
Ni 10.419117 10.419117 11.654953544385437
Ni 8.565802320815317 13.820231249465063 10.419117
Ni 12.272431679184685 7.018002750534945 10.419117
Ni 10.419117 10.419117 9.183280455614563
Ni 10.576156370356848 8.069717754333983 9.269923546008338
Ni 8.828238655557048 9.209879305676441 10.419117
Ni 12.188118051140886 9.316300438731611 10.419117
Ni 10.576156370356848 8.069717754333983 11.56831045399166
Ni 10.262077629643152 12.768516245666017 9.269923546008338
Ni 8.650115948859114 11.521933561268241 10.419117
Ni 12.00999534444295 11.628354694323557 10.419117
Ni 10.262077629643152 12.768516245666017 11.56831045399166
