15
Energy = -59.01327959 eV
Ni 7.809856284489035 8.713511328938957 11.18932154710258
Ni 9.864019167314815 10.722885735994861 8.56245026373036
Ni 9.904138716732964 9.249704937834256 12.226189093285965
Ni 11.99667867597596 11.582630811498097 8.71952475350231
Ni 11.890563639513182 9.183460075722724 8.89811512981343
Ni 9.950966920016088 8.635215617650074 7.571900910179403
Ni 11.80601910646267 8.35818275775904 11.118866081792412
Ni 9.840136489984715 11.671957559660568 12.321794112691077
Ni 11.20574328399123 10.555677628159593 10.720893884653735
Ni 9.831430957225965 8.57836377853685 9.94061623115186
Ni 10.222336558644118 12.524479029491859 10.090317438415099
Ni 7.969098090641132 9.283991741819266 8.81503138159296
Ni 8.67028537883881 10.75710271752624 10.556203481385438
Ni 11.50154978329031 10.244673500658976 6.877452690262473
Ni 7.971254223130628 10.372240390623107 12.825400612314684
