19
Energy = -76.80571485 eV
Ni 10.891930874291981 8.383932044066013 7.7307970716159025
Ni 10.159342100264992 8.51410349404637 10.078105210765502
Ni 11.124678572048515 10.4061239837766 9.050736202654633
Ni 9.972318006711777 6.452874350812345 8.90963917180337
Ni 9.33239464773648 6.710592537449871 6.68100017880199
Ni 9.622791283977284 10.594328429248598 10.900248434519359
Ni 10.40904512834978 10.557293602458783 6.8242389333527855
Ni 8.205219785598361 7.133937228739377 10.29752681757507
Ni 8.70198255363353 8.681965618984707 12.016541568311498
Ni 9.375080337130525 8.766024000694308 5.797390356359832
Ni 8.65752681288294 8.475911423647355 8.210182375415425
Ni 7.657473756929756 6.197998520731762 8.185279979013766
Ni 8.884708848173439 10.789649494505198 8.59137878901087
Ni 6.424187982228428 8.033602812647917 11.43057552116593
Ni 8.028183933174413 10.477398379021906 6.405612174940579
Ni 7.608022381013666 9.560276771507842 10.198792672863968
Ni 7.112891407396467 8.093839975275362 6.644412741541085
Ni 6.307359698733462 7.894613317721407 9.033614605102203
Ni 6.597484971098941 10.008242273285623 8.13167399410614
