11
Energy = -41.10888929 eV
Ni 7.129416632650862 8.138866905062667 7.517875411765284
Ni 9.21757143412571 8.747826411982153 8.262344864231915
Ni 9.531789946995062 7.806312811254068 10.487214410920027
Ni 8.303757625452278 10.035073753772776 6.589041143178584
Ni 10.913043062942501 9.510033707784864 9.60359401161915
Ni 10.892352996086535 7.22845914544121 8.686016132716766
Ni 8.529348929794754 6.6092512319910135 8.705423438402846
Ni 8.805120065170941 10.023452788354975 10.520363595044074
Ni 7.337730620610597 10.148870741668901 8.717769825288215
Ni 9.501146572594664 11.028411496778153 8.418435482892054
Ni 7.294674193335726 8.179393005908832 9.94787384346086
