13
Energy = -49.15728857 eV
Ni 8.963674360509764 9.700387183654982 7.822152659125403
Ni 8.366273150578634 8.116361905940465 9.531764668987222
Ni 7.6060778675351965 10.329997722761222 9.623242025562924
Ni 11.295894949779536 10.297336722436233 8.479787011282603
Ni 12.364338403794118 10.227227834088097 10.76717960218827
Ni 10.573800245007831 10.569242648177816 12.210239852564602
Ni 10.034916781373994 9.576734010355564 10.171843682729977
Ni 8.830118736572883 11.586822815450192 11.087236658897082
Ni 10.322781851237478 7.9377450082797765 8.281982295870309
Ni 8.327201357372923 9.37010315001488 11.674096441495365
Ni 12.028773824504405 8.307881494994712 9.66971146778198
Ni 9.353466014953353 11.733208713406023 8.776878399947584
Ni 11.01403709643271 11.993663209478084 10.324935511059817
