16
Energy = -62.72102839 eV
Ni 12.341598995952488 9.895762865028914 12.576635483534211
Ni 12.263077336701658 9.53919430286012 10.198259771322789
Ni 7.962695223876321 8.51044657859893 9.101137286893687
Ni 10.976774307210475 8.276951983994618 11.676572287881212
Ni 7.663220501713241 10.47801292758725 7.800251319678291
Ni 7.191099435603569 10.452373707507183 10.162208798162322
Ni 9.37650009247128 10.449344400436877 9.37180084704398
Ni 10.331994644088347 8.254358935364026 9.427669369104466
Ni 8.471827864541064 11.160165223978394 11.988400661145604
Ni 9.42241120642735 8.947115013209983 7.3178847777200495
Ni 11.402544945261939 11.59993623050182 9.229557435757659
Ni 10.653519228783592 10.812188518281673 11.312368756230583
Ni 9.954830377873519 9.744909373695041 13.225021091567706
Ni 9.92763599898254 11.26858364005947 7.311747985808494
Ni 11.53655878536906 9.679762912058498 7.972634389735261
Ni 8.817799953371361 9.009123110311238 11.239738289441174
