18
Energy = -71.71496813 eV
Ni 7.512024118989816 9.272662347225749 11.94146548658502
Ni 7.5893985121348795 6.986364356039326 11.689167779894113
Ni 9.631737069350047 10.075337454670937 11.665311607366561
Ni 7.921652453907274 10.692949833867134 10.087656178518577
Ni 7.526284973358374 8.35790029548726 9.771132161313508
Ni 8.506114279241615 6.09820794393288 9.76412389343254
Ni 9.552159138949184 7.9584075928518505 10.811713900708112
Ni 10.163560527520541 11.658063744754338 10.12942579030894
Ni 11.357340538682116 9.517800372755588 10.017016658080228
Ni 9.514377889066944 9.606072721910575 8.77907745685156
Ni 7.900387783614959 7.201343573612666 7.821903222637347
Ni 11.402271172665545 9.04382897050101 7.50218255297637
Ni 7.648033536340423 9.617787995654485 7.56969293156778
Ni 11.231357834841518 11.285009762821637 8.146732308965705
Ni 10.141774971822565 7.3864680421505495 8.598937600995297
Ni 8.807920890738542 11.782191745221091 8.187088310166311
Ni 9.381641725596069 8.303174662066187 6.484604438183633
Ni 9.777258035667128 10.548058626711848 6.478921555520355
