15
Energy = -58.18535179 eV
Ni 10.492736192154974 10.473772375776493 8.754161780092861
Ni 8.090650009479033 10.250858034510902 8.456249946053687
Ni 10.129716428114646 9.419227760258465 12.66121738405156
Ni 6.0302500304288005 8.923936184398714 8.369914271699889
Ni 7.0958221360951255 9.070832628671397 10.337267895187823
Ni 9.037126857852483 10.394140168210203 10.683467254889539
Ni 8.259029964342083 7.994505302616697 8.571704780219266
Ni 12.711092993762502 9.550809580887545 9.02553376293773
Ni 9.296256793746549 8.145628061837353 10.755191949583603
Ni 11.273737511692044 9.454012711563811 10.74192697523475
Ni 10.670425925152081 8.216050774206312 8.74490701765732
Ni 7.3573024967762555 8.9957802471902 6.509587967855525
Ni 7.863789170317191 9.218642044725435 12.43858964693366
Ni 11.77367368050093 9.415637553702531 6.943767543945104
Ni 9.54654788564476 9.206070074355285 6.906042406946273
