11
Energy = -40.42759594 eV
Ni 10.289552784743263 8.874480080081234 7.987871182737434
Ni 9.775336302151969 7.033413092998392 9.354994931462864
Ni 9.611476316879541 6.876586355399569 6.931731917442539
Ni 8.426101958500666 10.369176820763613 7.9732395709034485
Ni 7.884174989750098 5.854772795714516 8.271371545725252
Ni 8.118660814072626 8.120679464720377 8.227473283778613
Ni 8.987696040587176 9.265810546160468 9.997008635508742
Ni 7.313910661631805 7.054295540248572 6.338497995808201
Ni 6.543383359778228 9.215008009108642 6.972051124119517
Ni 6.664626230464651 9.475828421094693 9.35929853625858
Ni 5.964922100933807 7.374575057884801 8.344412857308262
