10
Energy = -36.69085205 eV
Ni 8.465062910910799 11.513682815832793 8.8709812326628
Ni 7.880992126609499 9.67893066761759 10.068315637731354
Ni 7.952337115603074 9.807254451626726 7.538577398609925
Ni 7.53423622692393 7.628989989928123 10.956491430901035
Ni 7.420271990180044 7.579214526353123 8.735645578076957
Ni 7.644347810455667 7.837993791123202 6.500755830085484
Ni 10.129395058169878 9.964120734507045 8.806072939798167
Ni 9.596436965786392 7.739761869217466 10.008481326614959
Ni 9.663551995509843 7.862507823426152 7.481150516684438
Ni 11.451317799851 8.1254933303679 8.771478108835382
