11
Energy = -41.03166858 eV
Ni 10.062444107385428 10.477252391169259 10.02591301241228
Ni 10.56548835411016 8.204053790989361 10.247532709926414
Ni 6.964720487284687 7.347099855093933 9.174574987278056
Ni 7.518274809160375 9.301489780310526 8.01736373199308
Ni 9.155595421776614 7.66303761162774 8.406281872724374
Ni 9.255692519853449 10.783349098104907 7.862835073028299
Ni 10.92090202074725 9.208966888542832 8.170110474465213
Ni 8.824078339800092 6.703210195359337 10.490411576047245
Ni 7.811061884234777 11.131512135860483 9.62275187358545
Ni 8.30907266408562 8.960101793926276 10.20345514627559
Ni 9.304053303864292 8.911310371317974 6.47015336686937
