10
Energy = -36.85762492 eV
Ni 8.439386134866279 8.273846520663554 9.064884434824874
Ni 8.910673622992892 8.441970984989306 6.82256486862743
Ni 10.20360630043562 6.999261059631698 8.126512386491731
Ni 8.267907137156522 10.370149527684971 7.983822454094742
Ni 8.814671912622064 6.11827054611571 6.516372477065957
Ni 6.883167660873517 9.510017365763124 6.353915243287682
Ni 8.148486348058611 6.02474692048579 8.776683904373812
Ni 6.3582679033997564 9.134768508909831 8.623631872982974
Ni 6.9527628354101 7.342175944469217 7.322022972409987
Ni 6.3357948761763145 7.099517353278599 9.72431411783262
