17
Energy = -68.08217022 eV
Ni 8.153982379137206 7.911955463319109 5.780799383725186
Ni 7.388972327692986 6.334325844536597 7.567115628796259
Ni 9.69021721253808 9.520572291021255 6.908025907776083
Ni 7.335644410901147 10.128569878972451 6.216354005673741
Ni 7.754252311207997 8.641358838819166 7.9344921739142995
Ni 5.91336302997241 8.174851988418888 6.616470061212607
Ni 5.900067335688154 7.743070162789974 8.977835975967265
Ni 8.168528964819526 10.875929475756942 8.34776273831399
Ni 9.642882178962253 9.219930204723532 9.293270707101653
Ni 9.628101858207826 7.201450350118383 7.557981471207886
Ni 9.179647368486295 5.280266870501054 8.78679346473077
Ni 11.494190437357195 8.4603585728224 8.114130174334106
Ni 8.103996055876493 7.103553317361083 9.730901317758171
Ni 5.923662894775914 10.028181416788719 8.206899001408676
Ni 7.400229783123749 9.358419650165299 10.161201470069996
Ni 10.481068314010466 7.050841165606418 9.776309873207342
Ni 9.194960433642787 8.320131804679045 11.377423941202297
