12
Energy = -45.31967408 eV
Ni 10.12717318234275 12.217243725170533 9.921864
Ni 10.938229890940658 10.371647744055972 11.130494099880877
Ni 9.157943993618462 11.643533989023389 12.019807358901508
Ni 10.685784006381544 8.200194010976606 7.823920641098489
Ni 9.157943993618462 11.643533989023389 7.823920641098489
Ni 8.905498109059488 9.472080255944299 8.713233900119118
Ni 9.716554817657244 7.626484274829466 9.921864
Ni 10.685784006381544 8.200194010976606 12.019807358901508
Ni 8.097615980362564 11.319095560748645 9.921864
Ni 8.905498109059488 9.472080255944299 11.130494099880877
Ni 10.938229890940658 10.371647744055972 8.713233900119118
Ni 11.746112019637435 8.52463243925136 9.921864
