11
Energy = -40.72517413 eV
Ni 8.26939059926023 10.935848106471871 12.030759361290917
Ni 11.81267975243111 8.62849638318795 7.798809600030443
Ni 9.800725644876602 9.725935154013072 7.781486049483342
Ni 10.226711900636854 11.615573878552206 10.857327610214504
Ni 9.660801634427788 11.96470392774163 8.626947893592106
Ni 10.314141852823537 10.809606506630589 13.053562052621569
Ni 9.469771818107123 8.950584516443618 11.754577225233698
Ni 8.79888716867207 10.164397436557437 9.880516321813724
Ni 11.583655736853576 9.81160378213302 11.371433692335426
Ni 10.53393396649228 8.502945167838446 9.710974251923645
Ni 11.480138333662813 10.547603483665966 9.075442535970392
