11
Energy = -40.76787863 eV
Ni 8.189725508556 8.11706072082305 10.407531240840928
Ni 7.099842611246452 9.969123551569052 9.382282775866592
Ni 8.73519990586414 11.086152996560536 8.131072748663552
Ni 9.462847512062357 10.053892730985728 10.067136904884174
Ni 8.516177918429335 8.63303963829987 8.14129201571627
Ni 10.631837531358896 9.642406539452082 8.07145821736755
Ni 11.733095717396084 9.675155397869062 10.132886938257325
Ni 10.884760897868198 11.660192230083405 9.127671771207922
Ni 8.576959100062842 6.439341629363525 8.827572027356
Ni 10.377149312370607 7.810733524881814 9.552128161082232
Ni 6.531173984784958 7.651670974971435 8.897737329038753
