18
Energy = -71.8923944 eV
Ni 10.595219390879855 8.599858413924103 8.782805680725394
Ni 11.510813499376741 9.869102357469307 7.106256701822596
Ni 9.747393040878933 8.64473298871253 6.304595596062918
Ni 9.911136446020109 6.632490960944412 7.380122489415749
Ni 8.03404223957057 7.104288893436492 6.067752767812585
Ni 9.381868502670287 10.572914688831766 7.550150242195068
Ni 9.22382114407232 10.441402385214545 9.821728971180676
Ni 9.374494490413124 8.416688725380153 10.893759133261938
Ni 9.71914858963494 6.505791805318506 9.66850275062266
Ni 8.327550108456116 8.385210019370106 8.455302222123946
Ni 7.691764587087323 6.214876448258575 8.323700951357228
Ni 7.668983662400955 6.863716950181163 10.683798982096086
Ni 6.001767250069718 7.464530750813758 7.096410493078525
Ni 7.327714361469029 10.955141302501623 8.538354803295153
Ni 7.401805598787742 9.396360835797465 6.647050010442662
Ni 7.156187743594471 9.204571929375122 10.215896924909714
Ni 5.812961847364892 7.350014945238939 9.394178702364774
Ni 5.6460818154379275 9.392026122097924 8.31939215755089
