17
Energy = -67.62382516 eV
Ni 11.593575370646265 8.902197263499602 8.405148766266977
Ni 10.48980157409119 9.473278999859797 10.441002952293688
Ni 10.220431183652588 8.913217665215257 6.498818566436118
Ni 9.88756257460476 10.65576656603121 8.3264351108827
Ni 8.678410474875681 7.792270950444179 10.772816595229896
Ni 8.283286964475622 10.167741064766501 10.167917112230468
Ni 10.870333028129995 7.184931239494551 9.87554770161054
Ni 10.666500808011984 6.871758090542895 7.473861821477582
Ni 8.245714245239483 10.013429862230064 6.711085230377576
Ni 7.030424306676892 7.10735992297271 9.184146521022942
Ni 8.169175350943178 7.523805236281416 6.989285604837321
Ni 6.079340481964269 10.90217718180278 9.93285507109339
Ni 9.238971140262956 8.485884151848412 8.663588112010036
Ni 6.464238456743751 8.746943651513385 10.73200484205701
Ni 7.65347181118378 11.562596849535694 8.34525189099963
Ni 9.037203493951347 6.088303093026001 8.90040381676684
Ni 6.8995365508817255 9.280350607675715 8.430830867731803
