11
Energy = -41.11359035 eV
Ni 6.483778653956522 9.448019478231453 8.545837011206517
Ni 9.472086136402675 6.771728574873236 9.196485382050257
Ni 7.444557483129323 7.7237101826124395 10.020688457753192
Ni 10.223123899463696 7.708522497018056 7.104088989010498
Ni 10.972341187403453 8.577951675741863 9.151884590278447
Ni 9.478226286708574 8.482722399821673 10.932231581287107
Ni 8.310178380581572 11.059136502066504 8.272078941307525
Ni 7.833829987656284 10.030342059611996 10.344972192645516
Ni 10.336295129973895 10.081313076527206 7.458888864862219
Ni 8.69491984587872 8.8060536950747 8.43823813815928
Ni 10.030915508845156 10.590751657043961 9.814858585231972
