18
Energy = -72.10008389 eV
Ni 11.069656679699925 7.548614542117646 8.167681183735139
Ni 11.159870876207387 8.91920230734597 10.13498399829164
Ni 10.159680293180855 6.79250200490265 10.284480176659233
Ni 7.971990501740945 7.505693939778644 10.824550389604001
Ni 10.983261269794296 11.203160406739103 9.315563518070746
Ni 9.72743001367742 8.454464869182996 11.914190797845247
Ni 8.712807909823049 7.612904616094532 8.614663134519438
Ni 12.468436844668664 9.573019457729147 8.356193760702332
Ni 9.018113241498366 9.720093217589753 9.601717310908361
Ni 6.748563597255859 8.835038756177603 9.406577994406431
Ni 9.373958881333884 7.907151515046279 6.425798669641505
Ni 10.303354377591708 9.666215981374423 7.591510717326078
Ni 7.777973939769909 9.923911104421537 11.423797008911272
Ni 10.186802321111456 10.670100135982292 11.536402911224368
Ni 7.901719281434471 9.554124737049333 7.395037633855441
Ni 7.0222236369407245 11.075838905628215 9.199155309140275
Ni 8.993388578147133 11.58956723728955 8.028811595356297
Ni 8.857526560633099 12.055520784009444 10.331298662097309
