15
Energy = -58.36536402 eV
Ni 9.053908446291272 6.297052193238809 6.024026928580115
Ni 7.608522009643449 8.118622840171257 5.866836793921708
Ni 10.44773592777157 9.440066066515914 8.203532496657406
Ni 8.27419202535706 8.503833561593428 8.614252998585723
Ni 9.92826845642237 7.006548388170795 8.107018948770879
Ni 6.686025855450974 10.079258658269218 9.342376391189415
Ni 8.363810398357023 6.62739621441593 9.95861830181606
Ni 6.227055915413828 7.675972330462442 9.607659640285862
Ni 10.084129596562118 8.291398397347765 10.220366492168983
Ni 7.8645785728321185 8.750101305041353 10.959039057476
Ni 7.40348086915226 6.60747366564239 7.698129865285411
Ni 6.15576232261709 8.74073030186536 7.510607024584842
Ni 9.850320373927223 8.474948790490185 6.2289568876580805
Ni 8.249882232300966 10.128528782697261 7.1405603627474195
Ni 8.998421438169359 10.454162944347276 9.714112250541195
