10
Energy = -36.57675722 eV
Ni 7.778963481993077 7.442192556666179 7.570468805684027
Ni 9.952380863868497 6.6448764599107 7.944819954301627
Ni 7.432948747483134 9.786574777843521 7.592293656622189
Ni 9.611142928926087 8.903283974227813 7.948388237732784
Ni 9.28770983239883 11.168124624277402 7.97571241533694
Ni 8.320335418100653 6.398150037362842 9.589631233759768
Ni 10.171647526420324 7.780194202536679 9.972348203311004
Ni 7.990069449221386 8.656268923421557 9.603833413866298
Ni 9.834812000317159 10.115994959590777 9.99023407006378
Ni 7.668621876692797 10.9242696635268 9.632200099003338
