19
Energy = -76.69122617 eV
Ni 12.13387270021822 8.622655327222319 9.456793394444862
Ni 11.980306336793388 10.870700166377187 8.97009261817415
Ni 10.780457680772273 9.357456301378926 7.585275741230525
Ni 10.031987438156186 11.592466122064758 7.800649392212917
Ni 11.055336564654494 7.068356085218214 8.128913336455305
Ni 10.31519918100636 12.087702085122903 10.057121314114779
Ni 10.892168961588983 9.952035328743447 10.974169359182772
Ni 8.926576805438513 6.389207891149256 8.808867338418763
Ni 9.316099458633536 9.373320098637482 9.385598486710862
Ni 8.373359188304294 10.010983038411585 7.311457770372245
Ni 9.106966365331791 7.806784505669459 6.964155488112065
Ni 10.274765178712771 7.533917651821233 10.409065358645917
Ni 9.066469067695035 8.815876272779397 12.010174196937024
Ni 8.869074088043021 11.094378118022341 11.565253103059367
Ni 8.177029011598128 11.44288567935522 9.30104568815689
Ni 7.316117134024358 9.55375789982901 10.60975234254891
Ni 7.41509840642907 8.177588603081984 8.599294979302954
Ni 7.921586274337527 7.239810271588682 10.726345280600476
Ni 6.339739628027701 10.237179716935438 8.55403670729433
