16
Energy = -62.62173927 eV
Ni 11.73796232860203 10.524794453300695 8.599013006596937
Ni 9.615063251444655 9.651048552980082 9.647316342894989
Ni 8.762078951201174 8.058259701761134 7.618948851632342
Ni 7.330520600352677 9.563851601763652 8.596191146388225
Ni 7.873994335396575 9.770650627914218 11.035915673256621
Ni 9.427016181732741 7.821364786294747 11.371495373612087
Ni 7.7940747467702565 7.635714064217828 9.761320172777456
Ni 10.999531174965673 8.50000534074852 7.874042499863009
Ni 10.15564112005006 9.84928923740934 12.096902172738615
Ni 10.267795982625378 12.221737214613382 9.102255861255
Ni 9.298263085742272 11.803369564333556 11.24468947453815
Ni 8.066905363156108 11.59650523697622 9.31344338804735
Ni 9.448940098601312 10.448581046223321 7.569183172567319
Ni 11.524400989972495 8.71216349832404 10.315511133699472
Ni 10.041537522482413 6.989865168560818 9.316498782835264
Ni 11.542358321964857 11.149246233308748 10.801723861593016
