10
Energy = -36.53136065 eV
Ni 6.277487654541085 6.791973354970368 9.606978188289505
Ni 7.661280439916816 9.059657479379009 6.365523996763227
Ni 7.995154780721622 8.27608612514961 10.001055520323307
Ni 8.57601368944671 6.338304097689602 8.987373935084179
Ni 10.057347873464552 8.233000582149199 8.80840982615566
Ni 9.243017972285399 7.320467976818743 6.90871340663662
Ni 7.019661234757821 7.14309583026789 7.477641045976136
Ni 6.280216206299168 8.994830082355273 8.499803143826231
Ni 10.047371575458122 9.478975041110017 6.733006461869698
Ni 8.438149742068905 9.818649940029031 8.329058515302723
