14
Energy = -53.99117766 eV
Ni 9.409357644821283 9.999678364680678 10.752136361415054
Ni 8.652541105779887 7.658432361411139 11.068768010581492
Ni 7.9428186423900256 10.98811282543381 9.169145788824135
Ni 8.709710559412049 8.763244292427533 8.951046010490954
Ni 10.731808017909026 8.173591454737757 10.013306463285637
Ni 7.041172766028692 9.288958015382029 10.586221797383129
Ni 10.612758445691199 7.814117426129881 7.693636838511308
Ni 6.50675401889426 9.28730394513841 8.258218010478961
Ni 10.314773209208065 10.125616724725411 8.228685556211811
Ni 9.29717438979494 6.478655497722508 9.096376775182895
Ni 8.299652859766464 7.765305144726618 7.008552088739574
Ni 10.036141447962619 9.172785735680469 5.949944297655977
Ni 7.045496642572409 7.201576507076514 9.238357863583273
Ni 8.268532231619073 10.17572155816206 6.986702408123088
