14
Energy = -53.64463149 eV
Ni 6.377532024743267 7.483671964995199 5.904533868861583
Ni 7.784414244580346 5.618050573998459 5.995972320673467
Ni 8.578555540869308 7.850558894381898 6.558514630166586
Ni 5.544068501765271 5.672180422540709 7.040317654448484
Ni 6.931893754763797 9.421938125228476 7.1590449502520315
Ni 9.144875397513188 10.11695994257377 6.5231062898492285
Ni 9.709977573615808 6.1342362792823115 7.520314515033876
Ni 10.44255311587347 8.459883667457268 7.709920517760718
Ni 7.412723954867645 6.4248101197971765 8.122306242054407
Ni 8.645084794981347 9.655018058397015 8.72251483571842
Ni 5.097617091667944 7.992489091184611 7.741068813535089
Ni 9.08705436413324 7.471954098733853 9.338638495794834
Ni 5.429629966537068 6.3931742195379195 9.335733374457487
Ni 6.815331743395035 8.30638661119867 9.329325560700813
