18
Energy = -71.91417451 eV
Ni 9.74174782274807 11.051160862128448 8.654771172747953
Ni 5.995609760173922 6.834457765961085 9.738824542724824
Ni 10.21356284920995 10.114181752413627 6.60943900988089
Ni 8.748083674447573 8.457111836979514 5.881813737555048
Ni 8.147969607033223 5.775226159096407 9.556550454809091
Ni 10.15252868096794 7.201808535062994 9.350960998980348
Ni 6.104080596571443 9.079888370681438 8.939885983681146
Ni 10.760598463747728 7.79485538228906 6.969387776918965
Ni 7.932058983683472 8.02640508849819 10.14152593504772
Ni 11.375641615671896 9.288329371687771 8.633152937562905
Ni 8.98141397784129 8.83181410349825 8.229549656618751
Ni 6.564006289004907 5.8196140980117095 7.7839710971754865
Ni 7.673188934689973 10.364238006511592 7.325151710820571
Ni 6.879014628775258 7.997495322912943 7.132087139258131
Ni 9.84253493836977 9.40412539516884 10.390395817564285
Ni 4.750505335208469 7.3967114832144185 7.870358795364809
Ni 7.777462636861572 10.411549461868047 9.764110942888585
Ni 8.786934915286253 6.5779707143086945 7.4550060006933565
