19
Energy = -76.6912666 eV
Ni 11.361729465692259 7.721927715111464 9.102299500353395
Ni 11.855405481004418 10.191803159179178 9.226987614959056
Ni 10.297005344408465 9.436966661561438 7.614353668425502
Ni 9.813527927455876 9.147923092316118 9.941957864513336
Ni 8.687695924701977 11.009306334051796 6.971008110351268
Ni 11.834426531851939 8.921257803539028 11.208432284137979
Ni 8.547351136983151 8.817836150483409 6.096018562187807
Ni 9.227694664663485 6.6761595578997035 9.423473343796147
Ni 10.244225170256671 7.235270647101432 11.404252082225957
Ni 9.851250880145528 7.175882908863394 7.253064027750326
Ni 6.7017608564377 9.899798091582914 7.283183152170854
Ni 9.735566658064569 11.337767517848926 9.04603224766797
Ni 10.707721765173185 11.04782551839958 11.171445610423921
Ni 9.630436865523093 9.29431751837749 12.311524245659019
Ni 7.9819044706008695 8.153245616937104 10.882155407392734
Ni 8.126623022537787 8.421791052533523 8.355889004043068
Ni 7.404015457532366 11.583279194436052 8.842888681685409
Ni 8.283117209442025 10.65684544749794 10.875828111278526
Ni 6.5620569680651775 9.581591935875739 9.636831903398575
