17
Energy = -67.44846826 eV
Ni 8.981877769603587 6.988639536704761 10.041420728814538
Ni 9.473683361291735 9.017105586806583 11.248458170365037
Ni 9.400619571769782 11.351844887094266 10.797655511577853
Ni 6.361751509641463 10.123417529373787 8.272614745126363
Ni 11.240509586356904 7.671253851753703 10.36255105625549
Ni 10.1872795932076 11.000188993510463 8.64474841861565
Ni 11.224413940766974 8.839472854748859 8.363805172673274
Ni 8.397797223204309 10.32221064026458 7.17475927873674
Ni 9.014608100500753 9.039190060032897 8.991045008609834
Ni 11.403109464810266 10.018102383700551 10.434677634184226
Ni 10.49203084846397 6.572624965424415 8.32875947824995
Ni 9.43067089352975 8.161064402834054 6.897187133784665
Ni 8.191847061842097 6.445939681316912 7.852153799778441
Ni 7.460841372221475 10.025687402637894 10.376257193840244
Ni 7.0605840773561575 8.364186517802795 6.879014470043334
Ni 6.967655870788422 7.99588721008988 9.169064855817883
Ni 7.964023794046174 11.804973325058638 8.979605036356565
