18
Energy = -71.80471796 eV
Ni 12.42347662911938 7.506779057364398 10.30381923862911
Ni 11.764385380800306 7.784634976137574 8.089834586576151
Ni 9.222578110158018 12.813325134499452 10.831254066578463
Ni 8.293385291525915 8.80761203120425 6.515268412107417
Ni 8.28734406996376 12.921181737250548 8.70138247585823
Ni 8.283953564767025 10.88193691279503 7.567327893018368
Ni 8.256275856435092 8.822913483536691 8.88475382166033
Ni 10.390033440220451 10.811801386818761 11.299366342379988
Ni 11.582453295284044 9.62045091584634 9.631279156461497
Ni 8.771591861241495 9.133398134077357 11.245461048596813
Ni 9.707745137742855 9.792055659220626 13.30998373976277
Ni 10.178801135009019 9.507207790535572 7.752184563400023
Ni 11.089107913488911 8.640970013104084 11.840308560290604
Ni 9.524745158728233 7.182676056403487 7.661776470479654
Ni 10.139334023853813 7.794348202688714 9.863173599693996
Ni 10.150429704252975 11.488786134698366 9.0602442393136
Ni 8.211440652243297 11.245756011205513 12.257086649216921
Ni 8.044245610309652 10.931647439530975 9.913991662382514
