19
Energy = -77.11626525 eV
Ni 9.239074164914648 8.174871319856281 12.202254347043164
Ni 11.60024453253351 8.617803872566785 12.007583617345826
Ni 8.049635206850859 10.275929068538291 12.197851974056952
Ni 11.872649451691824 11.002080479674614 11.8847926063669
Ni 9.682621485501246 12.033580592845766 12.004889719309457
Ni 12.043716101328837 9.662232557905249 9.795469180891821
Ni 10.822327394952367 11.857609923540785 9.795236497716513
Ni 10.366307856971089 7.860419980122731 9.993516405981783
Ni 8.377978127183187 11.391326268669117 9.993097846489965
Ni 8.09023422327727 8.921486680636304 10.11522061921774
Ni 9.384738029269718 11.869473009844436 7.765350678161155
Ni 7.753090476643277 10.116704922625924 7.954914566884054
Ni 11.568764080710858 10.844570106171808 7.648499482026839
Ni 8.932836188667329 8.003782692445542 7.955685654885348
Ni 11.293547138773583 8.45176052024984 7.763126233569592
Ni 10.19488626673954 10.086388658136908 13.41439089810751
Ni 10.01441969881345 9.980842231334643 11.0547408366335
Ni 9.85991501170492 9.893692724255969 8.824394291867963
Ni 9.687459563472649 9.789889390579722 6.463429543444357
