16
Energy = -62.79328991 eV
Ni 10.956298051332874 8.965702984575653 9.660680252877738
Ni 10.491757272390581 9.845276890789524 7.182252978377709
Ni 8.831699959080884 9.89129565166231 8.852158655474543
Ni 10.705035009670254 11.359222684220496 9.005471459253455
Ni 8.649034232673722 11.861880796305874 10.095331024221917
Ni 6.517060924097349 8.551198302088228 11.299298920144762
Ni 12.542762318551716 9.931462615027279 8.271666774606603
Ni 10.142568754723529 10.527843429723903 11.261314945503925
Ni 7.8673173976373025 10.462266688306944 11.875417097812669
Ni 9.630712340594306 7.100104255620971 9.251119931816316
Ni 7.351050848582999 8.020895046934255 9.136993404628228
Ni 11.335228704371833 7.80115350894555 7.7143626893120825
Ni 8.919462970055188 8.11153948086388 7.360716013656012
Ni 6.8123894114823935 10.309832284120509 9.84947973087689
Ni 8.806939256346991 8.606261519631897 10.86035608717692
Ni 12.326336482036641 10.686403532014825 10.496565993492835
