14
Energy = -53.60470603 eV
Ni 13.884201455841017 11.29264584644427 11.82118634031225
Ni 9.03140747856639 8.147470546224783 9.798354703886044
Ni 11.87112281696811 10.4810622553324 11.017610184050362
Ni 10.402135097292007 8.748146650284522 11.597643155545992
Ni 9.917952735633 10.915615332129843 12.434547661893994
Ni 12.823717428123329 12.396886634115788 10.116232931271187
Ni 8.166236576902465 9.412509740430167 11.646567130713807
Ni 11.932130285941964 12.18325806384288 12.603483725592097
Ni 7.437372553703934 9.722710117759902 9.359160531777482
Ni 11.20145183753655 8.946763492568994 9.374037855324765
Ni 11.224863093065338 11.239454906898617 8.775732254227519
Ni 9.463335305830146 9.727829856944929 8.038833472775412
Ni 10.603103543047744 12.521568487295667 10.742401704912636
Ni 9.409508677654271 10.625770042819981 10.150033224556607
