17
Energy = -67.52112163 eV
Ni 7.611245420086234 10.642168846435805 10.432571637640605
Ni 6.20453116520852 8.655796016658579 11.036175691106637
Ni 8.578195053119142 8.653678700474206 11.164432963920193
Ni 9.650160586739208 9.795568376303484 9.383531754323172
Ni 8.114360885536165 10.903449033488995 8.096039979820647
Ni 5.656190680454038 7.2923895591141115 8.994749200249315
Ni 7.476397188913109 6.7724800455672085 10.353860795137441
Ni 7.305530277789011 8.867491258934868 9.028346198525025
Ni 10.280603271628783 10.50410214175928 7.127855721785999
Ni 9.529736368252744 7.42098493834702 9.386568741467743
Ni 8.776574332209773 8.795586116368813 7.210568162489688
Ni 6.509315103979803 8.129866012495496 6.908276814617649
Ni 11.11670098362199 8.522165996081638 8.023905311787912
Ni 7.783316940926411 6.582742337204112 8.00642758132528
Ni 10.5039450932543 8.427966120816523 5.731957154252063
Ni 10.020612110641101 6.6371198598392285 7.213076435988122
Ni 8.339677756692737 7.154035603087499 5.687573654312695
