10
Energy = -36.25531536 eV
Ni 8.236400921604814 8.634418693255968 7.043816376841239
Ni 7.747289561504762 10.769269579223437 7.787138040030988
Ni 9.259767994641031 9.596710807410473 9.007754545959779
Ni 10.135715059122395 7.701760078292255 8.036197009117421
Ni 9.948948853431 10.186146515545468 6.932742716376227
Ni 7.799986438391365 7.314837799816261 8.908301691784958
Ni 9.473048835475245 5.825623949621723 9.163748788684652
Ni 6.32024903126944 8.968220240053949 8.312204443440788
Ni 7.458309174584241 9.133821288939547 10.328769330134945
Ni 9.543736716150345 7.792643634015812 10.402779643803619
