12
Energy = -45.08841839 eV
Ni 8.507034850605647 9.678625103890827 6.190333315532082
Ni 7.860735681164323 8.104889189177825 7.734202906484905
Ni 9.469170726812102 7.1673937903054945 9.155554335058829
Ni 10.163365218598202 8.941611852422467 7.748499496470611
Ni 10.070411129592603 11.170226091806883 6.941353042893974
Ni 8.503542290363448 10.259813209921198 8.513689147821657
Ni 10.72718567995334 10.872815631969454 9.11724697110003
Ni 11.062258938656203 8.699213832574198 9.931808150630681
Ni 7.763710357312782 8.51205653373125 9.999801576407872
Ni 9.522337052488359 7.74496465884216 11.426195162412604
Ni 9.347690296694218 10.045153240187444 10.76699236863207
Ni 7.864890598761819 9.067316158668014 12.250148793220978
