12
Energy = -45.45564289 eV
Ni 9.281379591000658 13.554411882754987 9.379958834592543
Ni 8.783355733844543 9.043948589600125 8.456880155073335
Ni 9.538913444502088 12.023113680599124 11.083281546091333
Ni 9.000386309023305 11.318596337127952 8.899121039894869
Ni 11.124235394223716 12.17601237599668 9.360068226992297
Ni 11.44438501030623 10.5584647382886 11.07417371757016
Ni 9.276445642976785 9.64257247588575 10.63962460131585
Ni 12.424184480325552 8.61686909994198 10.188120575511498
Ni 9.818016111402887 10.415346325272788 12.744643527906119
Ni 10.328292266904405 7.726259712541004 9.729096123842012
Ni 10.923808939114778 9.854996785911716 8.880446475994646
Ni 10.865886883911946 8.426999378272672 11.903335693470236
