16
Energy = -62.46871904 eV
Ni 10.614065346962978 11.840277056836277 8.449739775204648
Ni 8.681049049211424 11.72109615562295 10.001474327212435
Ni 11.401359831611044 8.214648766745292 10.555805112907674
Ni 10.26095978418646 9.564803648306324 11.982320658905211
Ni 7.636043554470114 7.9993838247105185 9.629806516509973
Ni 8.609120692307494 11.06059852422781 7.6958342561389195
Ni 7.016133514146581 10.175686055263244 9.119373796937387
Ni 10.465157553306634 9.568870770414607 7.502982414772119
Ni 7.996852327819216 9.714333339830604 11.271691868016827
Ni 8.193201887284799 8.775330602491836 7.525156837496835
Ni 9.521423834910697 9.664392577550334 9.581066034989496
Ni 10.929999283057143 11.41307027436388 10.7746526702092
Ni 11.97362744078856 10.053300458390572 9.280070942767054
Ni 9.208077285972019 7.55489026062177 11.217874643456385
Ni 12.577216644952074 9.956050133822659 11.58660193507725
Ni 9.86063295076504 7.56808026337601 8.827795669124605
