15
Energy = -58.40278927 eV
Ni 8.679978392561749 7.655288327060593 11.044022672694041
Ni 6.776976977371591 7.565523236051948 9.708593438549961
Ni 10.661560733476804 7.6700600886969506 9.82255671516916
Ni 10.809793048713273 7.178906926380643 7.581374234164015
Ni 8.686530448300019 8.669839162210328 8.844588811701009
Ni 8.810779079005508 6.454894403123547 8.75687982801015
Ni 6.971897466448788 7.427789856213711 7.418045991077437
Ni 8.828870413732329 11.020106607383065 9.100628399127233
Ni 9.89309852480328 9.69405572839174 10.688531091364512
Ni 10.63142673719593 9.531769455403841 8.208612060733609
Ni 6.76384061180363 9.692310861023927 8.226540993817663
Ni 8.996996097881768 8.104976664877245 6.5801981529349485
Ni 8.681345166334902 10.35337453350517 6.912653958320964
Ni 7.449175590203789 9.705417985831083 10.556772228054404
Ni 6.9579750291919495 9.181408013769344 5.897022994487908
