18
Energy = -71.35188812 eV
Ni 10.655755938912531 13.148620432665682 7.590301967033812
Ni 10.570635166300274 8.172160349349678 12.039293171909783
Ni 9.110433051923442 7.099360955086083 7.89059395951314
Ni 9.219384456788466 9.52206915967416 13.288963520161085
Ni 9.399720938108215 10.884296028509837 11.373422620640095
Ni 11.205034197563089 9.760002085496824 10.354951775687123
Ni 10.071952223485836 7.845221407650316 9.798785898502992
Ni 9.58056559780183 12.220594106027884 9.421100556703012
Ni 11.44958995539466 12.06332421250745 10.843016160555205
Ni 11.304469750055576 10.438429709095027 12.57643872273849
Ni 10.575510195396753 9.132182795027587 7.949199802565613
Ni 9.511233649085531 11.177581353664758 7.269089358983079
Ni 8.403602049510631 8.700986236838467 11.249414224997993
Ni 11.485917942724367 11.247990108024291 8.57463461276384
Ni 8.327493202177433 9.174448355945236 7.099856455722586
Ni 8.819844633831531 9.999328115736265 9.259732199219044
Ni 7.466949500878276 8.16219031216621 9.08895376132856
Ni 8.381743291893997 6.445662896361964 10.284654617921015
