15
Energy = -58.13857933 eV
Ni 9.842258207442095 8.470632356330574 11.429184570187632
Ni 7.506642703939739 8.006339591653557 10.769490360532478
Ni 8.273779256759497 10.14486030254889 11.351360011776677
Ni 9.24457598501035 6.7938932656570765 9.891199754313615
Ni 6.701401556766003 9.84145601728934 9.62167249629969
Ni 8.50104897402198 11.501936392582548 9.512761652614415
Ni 10.847464023579251 10.411886305624968 10.010275231143494
Ni 11.381139703883203 8.01860017036749 9.779380935905836
Ni 9.192614653944222 9.201877373163393 9.209295578079006
Ni 9.359260822445599 9.15886286802943 6.744383084337563
Ni 7.642173204557117 7.953909152781473 8.26654798040509
Ni 10.169630078712572 7.351064418100291 7.879323743268937
Ni 7.652256081640163 10.407086903296644 7.6103808592084725
Ni 9.997196932944068 11.151015709491297 7.807195814240771
Ni 11.45965781435439 9.357679173083142 7.888647927686053
