13
Energy = -49.57423275 eV
Ni 9.776891569248749 8.33919537359202 10.661305120349812
Ni 9.364434088549906 8.93257528022623 8.391272655851957
Ni 10.309312480971316 6.824642135000145 8.90950925238049
Ni 8.71655221144106 9.453713769468619 6.144131152057867
Ni 8.733103298783071 10.386286356124302 10.150658414618542
Ni 9.80727987823423 7.401615697375321 6.663608894264958
Ni 8.57500956368686 5.756342274510151 7.762429182331323
Ni 8.221796186202296 10.945552529091799 7.892751941762286
Ni 8.063586045383461 7.162160668526827 9.536650671401521
Ni 7.530365533401971 8.681337703660521 11.202706080795387
Ni 7.526415617913377 7.746495549950045 7.226749646838347
Ni 6.970953198983931 9.297735504870309 9.035528083828936
Ni 6.504359862291379 9.787235834336773 6.818242619669163
