17
Energy = -67.43495234 eV
Ni 12.511527025242025 9.447920921946766 9.016011683321594
Ni 11.242776826065 8.506369434642652 10.785481648063874
Ni 10.756509097823864 7.923610486330822 8.48842529040118
Ni 11.067592083994498 11.247329046916793 8.909412548966989
Ni 11.915912556061214 10.704630741744683 11.061014645989404
Ni 9.67117546639687 11.479820140422365 10.868491119294132
Ni 11.179195195504914 9.721090841403637 7.081377134346231
Ni 9.601577120805766 9.589257404629745 9.572911190055548
Ni 9.083920118622007 10.717614442344239 7.637977137637073
Ni 7.911440990070094 10.229234026279753 11.890819565320365
Ni 10.199908481757676 9.852814249234745 12.445359330064854
Ni 9.12264493209353 8.532126587264903 6.851506832056035
Ni 8.401158863512018 7.709366807016895 8.964186507015507
Ni 7.156399882849689 9.34481215010656 7.898227093528835
Ni 8.898098928702868 8.21712342511837 11.276524111671707
Ni 7.701564830755 10.902352661346649 9.609847876970237
Ni 6.82030094500154 8.880579592960865 10.295353660056723
