15
Energy = -58.69276824 eV
Ni 9.980759843240536 9.803623250597822 5.937016363785105
Ni 10.171852172587867 7.568206680746206 6.857111116861811
Ni 9.187079018142056 9.352252348952312 8.060194090117445
Ni 7.836591824810627 10.741640724870855 6.8623989120224165
Ni 10.0642006402007 7.554763943055047 9.30828933549206
Ni 8.081675864574503 8.534581817246488 6.088851940061268
Ni 9.755543822571255 9.738192695026713 10.239612264168962
Ni 9.939054064672385 5.575257177019435 8.130756320239549
Ni 7.586939009103709 10.577441355530445 9.307742027804288
Ni 8.093473022564416 7.019251899912928 7.861869567529846
Ni 6.659087858153736 8.945853375699683 7.952270851389481
Ni 7.950056834228468 8.34016025170795 10.057943878435514
Ni 8.358046493663743 5.9784665703585045 9.886720319757996
Ni 5.781802953020842 9.233689973779866 10.098274755615767
Ni 6.233219506151806 7.029221099827794 9.35035086059898
