13
Energy = -49.16385647 eV
Ni 10.034015086074106 9.703924768329331 8.633936282390069
Ni 9.08517517147745 9.22485935650853 10.742260668749084
Ni 10.667062370544942 9.453483195438032 12.437205152178736
Ni 10.632589229618144 11.947465364598683 8.497594302511121
Ni 8.399133952275545 9.308956952413967 13.004672093173564
Ni 11.447006421893985 10.451529320945495 6.897130934414993
Ni 11.356521982407825 8.671679063923595 10.35149602921655
Ni 10.916488914910953 10.997674525252679 10.652743123221537
Ni 9.137509389763789 11.30336275430857 12.14127331504519
Ni 11.820433110873163 8.358413846712049 8.077341294795659
Ni 7.200989378889091 10.455840720009876 11.25054340820235
Ni 8.737081879001451 11.356153482556927 9.734039023648835
Ni 12.423122357617034 10.384880484308473 8.975394919782795
