18
Energy = -71.70229614 eV
Ni 10.988606814893096 11.589225897629754 10.670306990276861
Ni 10.300152504720828 11.990716209308577 8.51946393129337
Ni 10.969445149250504 6.895902024666816 10.50146846596828
Ni 7.704539536488273 9.256953402632144 7.095707783212452
Ni 8.236593887780568 11.35778030642966 7.826184955317645
Ni 9.562818595674003 10.37021603760335 12.007159206060976
Ni 9.635257819075644 9.680101500949794 9.466170739365479
Ni 8.682074390068358 7.067277360371681 10.240569987505044
Ni 6.722721423002192 10.364271112189696 9.226839968216924
Ni 8.546959406335606 11.574439940935623 10.219626142499978
Ni 11.922495960828455 10.408557601543551 8.83001425162901
Ni 11.378524314285485 9.200797925463977 10.908164692101412
Ni 9.670386543588549 8.051865931011513 12.088561670599148
Ni 11.345320605398861 8.195454860669056 8.642545659637406
Ni 6.981436694698914 8.090212121424356 8.979327828855583
Ni 10.057609800349057 9.880582782782808 7.22222086595142
Ni 9.15971544420566 7.747578860551727 8.095631641902749
Ni 7.864155782739091 9.19338104867958 10.916779447059922
