11
Energy = -40.76763727 eV
Ni 9.28298249798667 10.1223235399634 13.162426258373896
Ni 9.212231559231233 10.720725190797648 10.862699528925583
Ni 11.292746765402576 10.090019154452701 12.05253309160318
Ni 12.167793748970738 11.231342470539454 8.356492237129686
Ni 13.130523624131358 10.706408035429366 10.523230147484107
Ni 9.808014761020612 11.40797673666183 8.666635056217004
Ni 10.228404087977362 12.143258794484185 12.462963546545922
Ni 12.60042215314511 11.959986756464847 12.42027148888737
Ni 11.243911028380097 12.02968949099655 10.357088084734619
Ni 11.079143944844414 9.770421240064824 9.745483306600933
Ni 11.226610514348637 11.020835517829429 14.197731243220824
