13
Energy = -49.9199535 eV
Ni 9.420013178746993 9.419988774300935 9.424129079006569
Ni 9.487723225088248 10.64379098137606 11.39644067235765
Ni 9.485977973539777 8.245313306278549 11.384594819572953
Ni 9.383051852787842 10.603984460350956 7.453959100344688
Ni 9.334589081682171 8.171271123476037 7.4127068421648
Ni 10.662953929319315 11.346029549181619 9.39870617447166
Ni 10.611600649383382 7.462212791576451 9.377137064671595
Ni 8.225750725317893 11.391437841382814 9.450271223622265
Ni 8.179319542853332 7.506905713267204 9.466456256074505
Ni 11.481682647854425 9.412968079297821 10.597189175268909
Ni 11.356451604072907 9.380746912972521 8.1377459277445
Ni 7.447905753420309 9.462964779150052 10.725544160263158
Ni 7.408089711691729 9.437495187388844 8.26022900443687
