12
Energy = -44.87368626 eV
Ni 8.744981027836312 11.096341465774533 9.332236869122239
Ni 8.744981027836312 8.676583534225472 9.332236869122239
Ni 8.236125875555395 9.8864625 11.302649474549195
Ni 9.8864625 8.29358393794455 11.40523605740067
Ni 11.027943972163692 8.676583534225472 9.332236869122239
Ni 11.027943972163692 11.096341465774533 9.332236869122239
Ni 11.536799124444608 9.8864625 11.302649474549195
Ni 9.8864625 11.479341062055447 11.40523605740067
Ni 9.8864625 12.145562336268663 7.621274069212082
Ni 9.8864625 9.8864625 13.077640695637127
Ni 9.8864625 9.8864625 7.572642475521231
Ni 9.8864625 7.627362663731345 7.621274069212082
