16
Energy = -62.94686384 eV
Ni 7.732646815315592 10.672508614297799 11.150590053945537
Ni 7.471923854799188 8.090775912979456 7.898810660984492
Ni 9.067396576462746 7.456335601522386 9.518075613398311
Ni 9.107131497182174 12.084950399395945 9.918060510012438
Ni 7.075755850096257 8.698463184714646 10.082941447371844
Ni 10.062976175214436 10.663742803063995 11.73930181971247
Ni 9.43545002538995 9.758691315846859 9.641008657322368
Ni 11.725603213201303 9.588936723389597 8.335959165861299
Ni 11.106682841101353 7.3710839392601635 8.440406613988973
Ni 11.35935034766987 11.27279133022833 9.908487900932563
Ni 8.909828477365163 8.608674086966987 11.594018429168642
Ni 11.241036039962696 8.789612113772156 10.509576791134595
Ni 10.013977863060932 11.202440344562964 7.9160903116237025
Ni 9.595823953727042 8.899415310359913 7.4726987115336545
Ni 7.603277350595784 10.489654187416871 8.623501487431568
Ni 9.18211467572533 6.5789685633558745 7.326257033311841
