26
Energy = -108.36996246 eV
Ni 13.650702589377069 9.554891612546289 10.94723517303449
Ni 12.552656448745084 9.57640589106576 8.867817155213833
Ni 11.95660280253701 9.809156901109665 12.614271364654432
Ni 11.041713342296784 11.316919823413178 8.30165015943358
Ni 11.820975507548102 10.982301253021083 10.621462868956556
Ni 11.558976944255738 8.488529344706864 10.722079324947924
Ni 11.57663491560896 9.408961531019756 6.760105728456672
Ni 10.739426224398718 8.008705375742547 8.541760580303839
Ni 9.915068646187773 13.401496868270556 8.208619737695727
Ni 10.006205302892505 12.357469220544187 10.2635375612426
Ni 9.694712706909963 7.7800335496670385 6.381695324916726
Ni 9.761772978590882 9.882014759736322 9.917988374626692
Ni 10.039178358473094 8.449036620406655 12.565713875073007
Ni 9.828239589844463 10.785912773596044 12.079540086393347
Ni 9.470149819672201 9.750589354198068 7.5142669164620175
Ni 8.42613734856562 7.440928103512101 8.352737249366323
Ni 9.471251937821803 7.464114334878646 10.487527376321367
Ni 8.136785072187877 7.069072402376895 12.40325389346631
Ni 8.085595957919947 13.557604601351656 9.651129372197108
Ni 7.9148513190281475 11.389222325941441 10.705943150357736
Ni 8.034099556929357 9.214111788572206 11.494672371362876
Ni 8.492208423295862 11.59480871347366 8.449807756009527
Ni 7.507338241113272 9.515168033976305 9.109675983697517
Ni 6.09615211187799 7.82793352644022 8.279032084048122
Ni 7.095478798739197 7.403473843184 10.320829442484506
Ni 7.511921764471647 8.852373584820606 6.724856453946306
