20
Energy = -80.92530593 eV
Ni 6.713078654722541 7.610444754269758 5.508854747724668
Ni 5.223389472335727 9.177104576801575 6.318842692038329
Ni 9.695724069903244 9.812399843018245 7.867962799660534
Ni 7.549700695286581 9.429628861225014 6.8038881189471985
Ni 9.038386296663097 7.8001829296432375 6.010078914426116
Ni 5.407102698843001 7.060526363166704 7.407324093169804
Ni 9.86584721825941 5.806654613449556 7.101668509042074
Ni 7.5498989655213835 6.208172599059911 7.165238626518184
Ni 6.019497344042297 11.132789598795023 7.3277651566759285
Ni 11.033839719182557 7.845201521570795 7.300237568747292
Ni 8.845314801019216 7.759776368023535 8.356578139595655
Ni 8.606710466497862 5.491380367592594 9.16725636649266
Ni 5.988242826266955 9.024868990313516 8.505874013123266
Ni 10.974290959105916 8.61813005737058 9.510244511146404
Ni 7.696158162323567 10.640481406885861 8.844207530484594
Ni 6.821672762895983 7.0043939560020645 9.397212624542194
Ni 9.299506894253092 9.932018286418506 10.31893963039091
Ni 10.74792458401396 6.3673777487325705 9.224063898388856
Ni 9.008050601430227 7.502655306717217 10.588990999365908
Ni 7.177881268365074 9.038030311875877 10.536989520452467
