25
Energy = -105.09473106 eV
Ni 8.887245645506123 12.617486657905134 8.194654781053254
Ni 9.928529023558934 11.026776829950114 6.6030314182558065
Ni 10.180898501892887 12.682370860055011 10.343930795454554
Ni 11.36114573608955 12.510018984656595 8.117387038996014
Ni 8.08228466916288 11.386457153468319 10.14048472140667
Ni 7.941963172277504 10.296509459811087 7.906995502794202
Ni 6.6091009280327935 9.442133781099102 9.821185178024084
Ni 7.704709820954108 7.829028161412037 8.29197790768404
Ni 7.722772856608771 7.413081382094495 10.741319237733748
Ni 7.980753342349072 9.635221710448816 11.889149338249647
Ni 8.848700599245875 9.106553778123024 9.75333106910314
Ni 9.892987950833383 8.717279704801204 7.600454487234801
Ni 10.14724047063822 10.419138660933546 11.15449224681073
Ni 8.92773044346069 11.897581740698206 12.365013910487457
Ni 10.093664522903268 10.811050568039366 8.814918498922175
Ni 12.143243268309115 11.275225775363632 10.066752530901116
Ni 11.952392951269653 10.059821704295892 7.651551957451007
Ni 11.416137628302005 11.783712539030306 12.359180174785296
Ni 11.450594387750069 9.026547799751912 9.689518823915876
Ni 11.804464557553523 7.421946956034693 8.155159956433485
Ni 12.001352503032974 9.289750759070344 11.964209125121917
Ni 11.828601777536303 7.035104310338497 10.66708528380346
Ni 10.010461282866816 9.882523832011477 13.314359548174494
Ni 9.916776299901564 8.046266964762353 11.634868553657359
Ni 9.80074765996408 7.022909925845527 9.393487913545531
