25
Energy = -104.6659156 eV
Ni 8.493788498797059 9.803905599038048 6.435852472416997
Ni 10.327243840211958 8.313673926255673 6.752930515606416
Ni 10.522379322325037 10.654053790611433 7.354712614303924
Ni 8.161747670045834 7.587064131294211 7.273415101557452
Ni 9.201673798015566 9.264379158644559 8.721817156116304
Ni 11.569139812565254 8.939034948023876 8.618646617682021
Ni 6.811493481626641 9.383207562112862 8.0746195968041
Ni 10.18233961523321 12.567369334070191 8.550137547489424
Ni 9.944494125959338 7.034247188828571 8.814292256081524
Ni 8.244351104783998 11.332691487847057 8.284455703093856
Ni 10.524363545235259 10.722900558595605 10.211157981717719
Ni 7.686761401425415 7.718071603838505 9.579903451510223
Ni 12.30452864367981 11.318230866588964 8.953233949753551
Ni 8.787335653888675 12.156596650496757 10.53856475742038
Ni 9.045965417810184 6.592202349975475 11.094335862575269
Ni 7.567030027503945 10.080722232732962 10.20923419699042
Ni 11.19703703660057 13.111699875518683 10.476754159605953
Ni 10.435541281001491 8.36833743744284 10.726202592816993
Ni 12.62194374810971 9.43992025997253 10.553057509836357
Ni 9.004800597976862 10.174871180238243 12.030553188273018
Ni 12.569665662254355 11.559232835010823 11.444287129373336
Ni 10.43294310394328 11.98945938745638 12.355997510605187
Ni 7.608703095341891 8.294123815897308 11.836620147129576
Ni 11.319529498772905 9.774372709403247 12.473121519588041
Ni 9.705185135932087 8.08961622914541 12.906081580690794
