28
Energy = -116.95471692 eV
Ni 9.514578884185823 11.87667037257325 9.593754758656608
Ni 11.66409762345473 14.703603908091262 11.885103709063872
Ni 12.565550934685035 13.009486069598674 13.205488801311054
Ni 10.358604728960906 12.735668949195233 11.716112672392493
Ni 10.928401760828446 11.567770888297645 15.089211816921283
Ni 11.829901281662584 8.979276464107516 11.09055558627137
Ni 13.119365738932826 11.101567779634298 14.46955882501169
Ni 12.084402085544054 11.106655804368954 12.105057638808894
Ni 14.9419782977636 15.564243389012775 14.05940237795855
Ni 12.402763922524526 13.237629641457977 15.555282477146557
Ni 14.129465030154643 14.473801520237004 12.202799604297397
Ni 13.122707978173224 14.997281573783924 10.127348127178626
Ni 12.595377566406157 15.171767334735275 14.081751393217411
Ni 13.241429596483464 12.78232101991174 10.777491521555495
Ni 10.17211123826404 9.488749557703063 9.37838636986201
Ni 12.438573194705707 9.418229871802133 8.75998441958913
Ni 13.75291586409681 10.343135412124711 10.571459845314275
Ni 11.101178222988445 9.72154882640192 13.552966548537352
Ni 11.24560126784822 13.5914950061309 9.695935897413728
Ni 14.537639206372642 13.2590521477206 14.381689422572599
Ni 9.894328301209065 10.361255387349926 11.491970387739523
Ni 13.482422584999165 9.415871856085495 12.815025205178673
Ni 13.96875470932097 14.884306040276043 16.00429352228025
Ni 14.439286573757244 11.667915155794423 12.538207520365642
Ni 9.38695967116485 11.500700271833866 13.433086677295648
Ni 10.530895018362482 13.67995179051969 13.935981388685518
Ni 11.695545407869208 11.293533139838111 9.796417125162666
Ni 10.79444430482048 10.996438681422614 7.718962822127612
