28
Energy = -118.6430263 eV
Ni 6.899550131178849 10.611773934677796 8.983431376308333
Ni 5.850215268186641 9.117049159440295 10.530390169415828
Ni 8.76780309715195 11.800534209568761 7.92747132911439
Ni 11.461511375292632 11.659366207671104 8.117306735601625
Ni 6.61809919312115 8.157036619962875 8.524039145111209
Ni 6.7809049828305525 11.070624382331786 11.487193767255084
Ni 10.138415387635897 10.629655674964829 6.381747166440062
Ni 8.077363530111104 9.589685619515977 7.194232742502698
Ni 10.165094074946081 13.196743783987223 9.282028726189868
Ni 7.3820305058849565 7.254160463171901 10.709640996756272
Ni 8.25008842227419 9.469117268344146 10.436239118518786
Ni 8.542003042637186 11.882795397009467 10.289980643963984
Ni 9.984457508197922 10.020335114486086 8.728412840304816
Ni 7.129003092035023 8.988197742624815 12.506229843148837
Ni 8.887834495451111 7.961525079763656 8.7977884763099
Ni 10.061443676430544 8.302951241750433 6.703988768431104
Ni 7.98848399548006 7.170372441262704 6.7776373312469085
Ni 10.792536805474677 11.276633551151471 10.540183667881138
Ni 7.843697645958192 5.9248476371487575 8.810842198622426
Ni 12.051609309335147 9.451646335866302 7.200284200527146
Ni 9.130705207833769 7.903070285484251 12.161420153749132
Ni 9.207456040257227 10.424818767200907 12.220444049736845
Ni 12.36033369766287 9.881930587209904 9.486266517517139
Ni 10.63828743199273 8.883258851703674 10.78641469796793
Ni 10.036465279032663 6.142060756836815 7.77926555228667
Ni 12.019897290811764 7.075321068461193 6.717142987816344
Ni 9.783740812191818 6.53410858888788 10.305231774924625
Ni 11.348145297457668 7.817555826369936 8.811921619204833
