26
Energy = -109.27836096 eV
Ni 8.621140637163341 10.966643201792081 13.055470189689371
Ni 9.960490322260448 8.899206888196355 12.700274096637962
Ni 10.865879041530075 11.20237305474659 12.431615600188557
Ni 7.669672204630832 8.97805071567129 12.053265648306256
Ni 7.115344336788505 11.255150658430281 11.276726582487484
Ni 11.495691377168074 9.43912295962104 10.988340904556809
Ni 13.24670678740995 8.038093881849269 10.535241396345548
Ni 11.075449850239046 7.177013358020511 11.310776973490803
Ni 8.842659102575078 6.944819395295173 12.031659951687686
Ni 11.218695852049123 11.639731560313276 10.097204858821321
Ni 9.295669605078745 10.294409787095626 10.918058425199046
Ni 9.236739909846277 12.594755934950271 11.225200676458197
Ni 7.34290915967251 9.44726885864897 9.754139178382335
Ni 8.276325200705829 11.599170781935383 9.227033999854354
Ni 10.16431983690196 9.946576611869945 8.730345296208702
Ni 9.238914759333268 7.995473229603981 9.992393858517215
Ni 11.496519469559564 7.891476372239779 9.075722311585654
Ni 8.092162477927095 9.806469098348025 7.556794686473569
Ni 12.712766569155457 9.9921983910805 9.106215962053412
Ni 9.960885513672315 13.175518249130432 8.942782137289456
Ni 11.401848103941655 11.54375662076648 7.686037131141619
Ni 11.882987094617567 9.140682564463832 7.104815869814569
Ni 7.6050075339318965 7.6218621096305395 8.358135495986366
Ni 9.102698578168855 11.978182884578528 7.103509961419606
Ni 9.738926050255506 8.020602345648168 7.486257527191564
Ni 10.013565246882221 10.076290032510155 6.209094599278403
