29
Energy = -122.56980148 eV
Ni 10.538875593739393 8.931369419043994 6.587887325840927
Ni 10.58904395608323 10.418945105005205 8.589279375779094
Ni 10.813973527738579 13.122507266904325 12.132825226044767
Ni 10.831522752676568 6.901595056534253 9.982137414527553
Ni 8.50310374225365 7.515048864782359 10.683129852287125
Ni 8.702430266036348 8.677251928935926 12.837673975496516
Ni 11.597113800419663 11.042848694483714 11.535029300827201
Ni 12.471595906892892 10.240318658482176 7.155276942167094
Ni 11.803943081011607 12.364444585651615 8.086280742098554
Ni 9.433764597256907 9.633431661496537 14.871000215396787
Ni 10.464398334037861 7.310099826604462 12.18414979001811
Ni 8.644121800159807 10.255169904004411 7.231378004429953
Ni 12.089519186897281 8.71963632890172 11.00622658509975
Ni 8.423609915863523 11.037676108332692 9.48541800746166
Ni 11.937157780176323 8.472316189591325 8.619326725934508
Ni 9.900133051077075 9.331080899527526 10.696273845609182
Ni 9.368501355851198 12.437159216420453 7.815923401530032
Ni 10.220213288367583 11.554637887558615 13.79061635004001
Ni 7.8914151806336985 10.719964538567977 13.548101100342853
Ni 12.717173790799395 10.565746543436482 9.539240253029678
Ni 8.27535758362202 8.061771476081278 6.694626916930761
Ni 10.882117305566778 9.443145573946504 13.041431871953684
Ni 12.505975040634153 12.845856075085203 10.308304560710924
Ni 10.249346465247978 12.457071923556484 9.980360575833059
Ni 7.42124561357612 8.925252377357776 8.894919571119107
Ni 7.501553272920631 9.700797677239395 11.158499923501664
Ni 10.60227777382809 11.301637405550713 6.210185874798659
Ni 9.156418377216385 11.365957286891259 11.764380297950362
Ni 9.549605053331163 8.158969789561521 8.5794443741397
