20
Energy = -81.23357861 eV
Ni 8.975081600165112 7.613009912414583 6.247858048107806
Ni 10.269919676538885 9.651581296908747 6.2188855598497
Ni 8.063027711637654 9.716589311028732 7.104055603084126
Ni 9.845106838077022 8.580382765311779 8.269999084082535
Ni 6.047400739294772 9.514008528051644 8.294489497543182
Ni 11.913380623953975 9.519975226217568 7.884169970942806
Ni 9.526788360639145 6.261857679320258 8.17041478679756
Ni 7.468359459044941 7.524687421816678 8.054698057802028
Ni 9.825733537123755 10.930920833045608 8.319179688995304
Ni 11.259520211696296 7.41136016562266 6.912405986938023
Ni 8.095330339336225 9.246382548582728 9.597746829582636
Ni 10.975176871361196 7.394007582600878 9.803734999308247
Ni 6.230286812041613 7.922147369872988 10.049735237145294
Ni 7.537963006679654 11.368422466516378 8.761723202863282
Ni 11.087308165010537 9.881059114609382 10.004946653190173
Ni 8.551645406915654 7.040108144734349 10.201017263432096
Ni 9.042828655816004 10.92479129878957 10.723520715688512
Ni 6.3321541084784965 10.40437582108809 10.558671156605326
Ni 7.545184725911331 8.807356062322807 11.804613589059198
Ni 9.796627099347099 8.675800400213966 11.406958018050842
