27
Energy = -113.49703944 eV
Ni 11.58459894939839 7.94937727073423 14.528598210819617
Ni 14.109496022523334 10.76044209006864 13.280418224262931
Ni 14.290451917517201 9.14248577683398 11.606467735823774
Ni 12.289633588310386 10.13971927434391 14.693844722132786
Ni 13.831876325283972 8.470130113419359 13.921930633726179
Ni 12.978609538942 12.37991189627057 14.639077250748773
Ni 12.147977632730493 8.909895091347053 12.4617150778993
Ni 14.118955347912367 11.387156294578284 10.980077868685994
Ni 13.866593728136719 13.096345562162222 12.59076915586225
Ni 11.930664741981742 11.330463136026353 12.470940480446046
Ni 12.322057319235041 10.078302504737522 10.387652661131519
Ni 14.411139626908279 13.603382968108935 10.367872372358194
Ni 10.215299035342756 9.713831666268861 13.670530122111192
Ni 12.802559838736519 12.061583240256002 9.018215722335334
Ni 12.105015096104694 13.131606327809065 10.876241826425947
Ni 10.65038334250543 11.929860288862457 14.433729870136993
Ni 10.521465955524025 11.552062843014449 10.091952548888901
Ni 10.186869279769033 9.601707937221352 11.330809690208852
Ni 9.577822189555345 11.647603547527714 12.308486600693659
Ni 11.67668412973822 13.733138994085003 13.201268170374885
Ni 12.83881336029387 14.645013132562298 9.083571895605644
Ni 9.372447504365137 13.725425369727365 13.480313717258994
Ni 12.845320117573609 15.165465985706426 11.557927928728763
Ni 10.787489049698186 13.532609491756563 8.945122011824777
Ni 9.844081994902153 13.72225357689798 11.177069591979134
Ni 10.551222723507713 15.567240920675742 12.411169883050786
Ni 10.965199162908565 15.571443702082753 10.114733872202429
