29
Energy = -122.70770117 eV
Ni 9.596744473084394 9.431320089265043 10.286288443256767
Ni 9.56711326777384 12.022045846344144 14.02009237872504
Ni 8.163639305698723 8.9551654157412 8.4375437771161
Ni 11.570191016745763 9.644697831826129 11.596821944416575
Ni 7.395433052035091 10.187441614007467 10.467478475460048
Ni 10.764139206321016 11.557757418831002 10.283144180763484
Ni 13.707047963893093 9.227999821283115 10.911251523468362
Ni 9.655630364442123 13.36558895289662 11.877888362790637
Ni 11.772847238702926 8.0632888064034 9.95418719124251
Ni 12.42824940325125 12.656700730224154 8.985659303085823
Ni 7.975578636748235 12.565924451111586 10.4454237749268
Ni 13.142246261370767 10.327448769395819 13.085813517834183
Ni 9.041370026792402 11.121258357144976 11.924362024022011
Ni 8.176826132709355 9.059378903879185 12.570114535618544
Ni 11.620891962399964 11.035521634962613 14.795806064392204
Ni 7.821892780608625 7.852175856463798 10.610121426635995
Ni 9.280216528800034 10.184071228779404 6.664649185537974
Ni 9.67355328310485 7.22682879712894 9.356727029426528
Ni 9.941627416367618 13.390300394369964 9.316801850875887
Ni 12.094854200447744 9.973011740257165 6.7416944589265215
Ni 11.801373079981756 13.56093554800362 11.012439665472103
Ni 8.784313485485548 11.234109982380014 8.756166718521877
Ni 12.437922864224115 10.200750907940199 9.096879776970733
Ni 10.843318916253779 11.540353642562025 7.78842183596439
Ni 10.22575456237526 9.74467581464782 13.48495653972327
Ni 11.41620798490022 11.893223061267452 12.667178364911665
Ni 10.580963058886661 9.032955371630841 8.136511069410817
Ni 13.11076404629616 11.520472892876112 11.007455124235198
Ni 10.033923484097484 7.799592446044275 11.795848232002005
