27
Energy = -112.347452 eV
Ni 13.05097211667417 11.146547018249349 7.336912181989368
Ni 8.776269528050301 13.211998036742685 11.874726707533943
Ni 14.624801128744856 10.622873322904644 9.145334067019853
Ni 9.391837111747144 10.92886341090776 11.537528803493013
Ni 11.953247959799588 11.192938432806393 14.928429772709931
Ni 9.13779782938956 13.818828257460845 14.150982230158702
Ni 8.354555581987434 11.583874383489793 13.58434646489391
Ni 12.737707509539192 9.894214760025388 13.05462165746817
Ni 13.204833803213667 9.019992460235997 8.189476501226506
Ni 11.159559333417834 9.746003322492063 7.429028693008777
Ni 10.690481245753428 10.424019766602676 9.597696084852316
Ni 11.331703348752583 8.21268539795683 9.336290160472378
Ni 10.52346956824818 12.859424366996512 10.317687393871667
Ni 12.914979243964787 14.667046522118776 13.320013507675778
Ni 13.125955320545657 12.343178809654184 13.328009808438335
Ni 11.47880593619041 13.612848215891676 14.806451647749372
Ni 11.781323435323056 11.251656800949224 11.531146716006594
Ni 10.774379762961455 14.419146815994837 12.352714091423406
Ni 12.66631823402282 13.468172336238947 11.297695285193702
Ni 14.123189881505432 11.391450594719792 11.400859900478
Ni 10.951119244312231 12.090687150993169 8.030262755889579
Ni 9.809619826346317 11.873890476189542 15.420645921261103
Ni 12.991108968682834 9.497812933786568 10.483052136203263
Ni 12.735855306548652 11.955245948355143 9.487861921286168
Ni 10.315220570708606 10.03616657881074 13.654289314490958
Ni 10.911365081797499 9.022992088855398 11.591117923435794
Ni 10.590878987895344 12.290684602046932 13.168759117487761
