20
Energy = -81.63212215 eV
Ni 7.477758741999461 10.202212516234296 9.75174273281208
Ni 7.694472891156999 8.858515744688855 11.6582319495322
Ni 10.82235961226604 11.986794624254316 10.329982977709083
Ni 8.6896190000144 7.882874638646257 8.899073711802153
Ni 11.551036876589814 10.069543214345176 6.905298597075127
Ni 7.044383311037583 9.094406313862146 7.727369632891164
Ni 11.025370160358777 8.264893702371818 8.292852341641288
Ni 9.81727215417731 9.937560140146793 9.495196737643596
Ni 8.611704119688925 12.242165685190253 9.741991793871643
Ni 11.488907530131831 10.130778956815991 11.526685308803012
Ni 10.42683150651301 6.5938154848224615 9.837163954834885
Ni 12.087983052439721 10.31162574510328 9.177128071223956
Ni 12.121045253999968 8.209579144884769 10.351663385723919
Ni 6.541041705066219 8.026266634533743 9.799521885029217
Ni 10.241890495891736 11.671620517261863 8.020115136841934
Ni 8.295882582769567 6.733295064232675 10.891033428081796
Ni 7.883714058041443 11.336633227921862 7.712018231430212
Ni 9.118605142684487 10.712425858549215 11.587975766752946
Ni 9.289647671508924 9.538206035549223 7.2022140905375815
Ni 9.954020713728667 8.38033333065029 11.276286845827375
