24
Energy = -99.55610598 eV
Ni 6.915618390293458 5.761338962493458 9.061190919698337
Ni 7.80694961525337 6.140713550897383 11.127698944805843
Ni 5.91606572338721 8.594142434017451 7.758711042661549
Ni 6.612811134620947 7.91133507858703 9.960667634794099
Ni 7.901390369861768 7.446048181001424 7.89911565543386
Ni 9.289068376657909 6.252051804902205 9.308351587122198
Ni 5.787828944697088 10.110055670241941 9.646994590474895
Ni 8.758088919816904 8.169576453557973 10.75266922182357
Ni 9.913341734342831 7.520211570785711 6.696613611620059
Ni 8.034762355433031 9.280582462766754 6.50648258287098
Ni 6.476377788043166 10.846093482335684 7.407800605252839
Ni 7.973402149093661 9.70543963935028 8.846858736269155
Ni 10.876468690842742 7.28586236682097 10.803012882450957
Ni 11.478835532329065 6.707228109708857 8.531243704102573
Ni 7.236641240288046 11.956447199386895 9.314428636405452
Ni 10.058665868121471 8.570796161162377 8.71675146593667
Ni 7.899552434972768 10.336227583129576 11.034911091888947
Ni 10.266502202488013 9.85639741919329 6.394333154669721
Ni 10.388652489476046 9.795290332286429 10.73458507545883
Ni 8.896351206643159 11.3709559088543 7.544071261241482
Ni 12.010201228870894 8.65999226456604 7.295446245136671
Ni 12.237494083740298 8.78089293549641 9.616123515137408
Ni 9.45913057858218 11.700292535523637 9.831511187826866
Ni 11.061006096170024 10.641045543533373 8.489105452641644
