24
Energy = -99.06247328 eV
Ni 7.1284763192157525 12.652628998819186 9.816397078852715
Ni 9.44532163692531 11.40869909270257 12.75427595875226
Ni 12.792353477954054 11.123628755466624 11.887070089196039
Ni 10.936762367420236 9.55108262432334 12.426111522790348
Ni 14.835114294440274 11.5213194218881 10.795842236114446
Ni 10.811539533364984 13.488023081030578 9.621849776062351
Ni 9.662973151713638 9.706342201651756 9.12046969071694
Ni 9.149667646973931 11.992013579293184 8.796443978593608
Ni 12.816969209668116 12.472718234820803 10.048541600481292
Ni 8.652814724288081 14.261385411378306 9.143183453862353
Ni 10.095608639712857 8.054612873426288 10.815210630322174
Ni 7.905247808436271 8.528200387151658 10.157141007447795
Ni 13.65562019649925 10.548815459722853 9.036988348987354
Ni 12.28606849689107 7.780763340439666 11.68871325536175
Ni 9.003928084473305 13.039389604208532 11.121677543213607
Ni 13.06345902324847 9.32649686693177 13.329890288535553
Ni 11.554990448768422 11.34631255652895 13.778374101088144
Ni 8.157850998795645 10.773575097317332 10.700651854227385
Ni 13.958824822292852 9.342397363823006 11.089824739015276
Ni 8.645854812366268 9.185571137392172 12.288578159680817
Ni 10.592629592734948 11.26219005977284 10.67859390486797
Ni 11.255590762592604 13.026629095613421 12.010623753072792
Ni 11.41082256006969 11.291201094837128 8.502877921837275
Ni 11.875198278806476 9.366146401457396 9.960443647240925
