21
Energy = -85.69808794 eV
Ni 8.832184737255325 11.587579105496511 8.476537496229403
Ni 10.406842553080807 9.76876384198369 7.409450564514891
Ni 7.814666165729165 10.300575492128674 10.841175488103035
Ni 9.329822579213575 12.096580499778247 10.771758513830697
Ni 8.122182205716694 10.163355257331116 6.727932141057865
Ni 10.805708733721053 10.767427888837133 9.538163605586318
Ni 9.030415007091255 7.9711864387474956 6.742223876782563
Ni 12.716293230211555 7.484650666435271 10.278695487310397
Ni 12.367647911017384 9.220673211231942 8.68569439666025
Ni 8.718518591542132 9.297039278384037 8.928940775467405
Ni 12.29279830997197 9.6355762641092 11.02841316719354
Ni 6.660819428671308 10.458625159318682 8.676169239340021
Ni 10.986582101855552 7.44173960434872 7.842341944559006
Ni 10.062140396383235 10.01893440913829 11.65219243862353
Ni 10.986105542657754 7.9223594090260905 12.142477056143404
Ni 8.723896841846656 8.097429684587205 11.26298302843067
Ni 6.918673540240998 8.311445589744945 7.653408478462003
Ni 10.603460017696316 8.250064022713252 9.924819878270698
Ni 7.166813847232762 12.37035229752569 9.921217485654793
Ni 8.708773709006639 7.043760202124237 8.937243133550561
Ni 6.79777849649984 8.319445335604433 9.968510318718584
