21
Energy = -86.3214653 eV
Ni 9.090315822138543 11.073689866617078 8.527576455803771
Ni 10.360473005991524 12.686200872635306 9.844238220051077
Ni 11.795815548565521 8.308546970854193 9.341420587933086
Ni 10.41008862343645 10.670544734564643 13.250929606466347
Ni 11.154815740630562 11.909981221232048 7.645608105691318
Ni 10.218483821759797 7.392153751161306 10.906342885396525
Ni 11.179640547759083 10.491948134057528 9.497492090858227
Ni 12.747695797918029 12.224967429578962 9.431296207159882
Ni 8.018945360825288 8.291387648462194 11.155842506722529
Ni 10.680675300682308 9.55640717803351 7.416418788783268
Ni 9.509522288565348 10.22159173552539 11.037948950837642
Ni 9.59384042878717 12.47111107743956 12.114247450624497
Ni 8.081914767952233 12.17783244567569 10.418303736453534
Ni 12.90988461816646 10.147014341341354 8.018636635328821
Ni 7.387307814781239 10.0806978545838 9.863179566063053
Ni 7.861029162932869 10.5978796917822 12.420494955331524
Ni 9.35123778743346 8.735147688504076 9.195223436394127
Ni 13.306646914170022 10.07244844446185 10.366691093717156
Ni 11.75640892353884 11.60205697214707 11.521979768366704
Ni 9.51379804403985 8.594505380315473 12.849216203478402
Ni 11.542551051485853 9.17012177593639 11.663572053554907
