26
Energy = -109.66541706 eV
Ni 7.554971093378695 9.809402681693625 9.830815223987662
Ni 11.540314603701777 9.12760295554405 8.37891849415174
Ni 9.696498303666969 8.853087019918574 10.040050395339923
Ni 9.897066944814926 12.759500877601889 8.768581714973337
Ni 11.655666044867257 9.542261374648051 13.841013857663395
Ni 13.246855269430265 9.448006102221932 10.21908364985138
Ni 7.688572499610127 11.99338336378383 9.205300754077708
Ni 13.502117452677682 10.327205285911504 12.491434750886466
Ni 11.668901467181966 11.787417072763095 12.787476353075451
Ni 9.57329325173906 10.398985535708242 13.094990433055653
Ni 11.30686400828682 11.39349045519279 7.2797008254449
Ni 7.5186397942489815 11.381120316337027 11.888042859661791
Ni 9.4839937346244 12.675190911877742 12.690835879219753
Ni 12.785591446401247 8.099109210890047 12.278847918070662
Ni 13.14396069890063 11.880102025162756 10.760729034667834
Ni 8.636484972397906 13.450734633104737 10.712773249020639
Ni 10.311526310336882 8.04155346901301 12.378248716778565
Ni 13.39726760857771 10.946098008041716 8.418795966590706
Ni 9.368912101068897 10.44720182675693 8.30942247869082
Ni 11.373506487262691 11.039251591658289 9.549973032984003
Ni 12.29204163149265 13.053301124858985 8.793803495636814
Ni 9.381580372200464 11.182483454586617 10.729578300668978
Ni 11.333651051655075 9.88383333315216 11.544938544546154
Ni 11.649014026150137 7.70284429540902 10.312621272096942
Ni 11.036200127678068 13.064107430865658 10.878143444315354
Ni 8.201519135129974 9.01547345911545 11.885424357195197
