29
Energy = -122.06398552 eV
Ni 11.259742892890122 12.757162511221699 10.671299327258572
Ni 9.993976093179832 13.613074938426923 7.173071579359016
Ni 11.821486161118951 12.754050802146633 8.372171662505671
Ni 9.617153625301789 12.222114196351399 9.050844276027926
Ni 11.370597211889132 10.925048696352322 12.188235565155908
Ni 10.357821774526842 11.302466512057459 7.040289980348638
Ni 12.4648538271006 9.08417774001434 11.194046482873665
Ni 9.34713541092671 11.36935910808845 11.176202455439023
Ni 12.598727740716631 10.730776610747283 7.574179308011371
Ni 11.541302726512246 10.62762043862721 9.699034903192542
Ni 8.160541683407942 12.121136349004981 7.271643689083468
Ni 12.860619189040262 8.719379284470852 8.767314910580602
Ni 9.073320525012987 10.318541016916368 13.262886928513975
Ni 10.13800886658744 8.980600858949785 11.767093104578054
Ni 9.31659502238238 9.70786903875245 9.437975306108473
Ni 10.975124352675923 7.915254066640465 9.871820631596082
Ni 7.714067122933627 9.739277677981985 11.382866036832628
Ni 7.465374824388799 11.15376093315056 9.370204614015405
Ni 8.479088398994442 9.772514665266664 7.3078035645154795
Ni 10.8473468817604 9.113364370751166 7.66506070260513
Ni 10.245021564966715 6.638683356044376 11.801824522221072
Ni 5.64319708823744 9.955898623253267 10.381240719115764
Ni 8.291511567625017 7.912327593164584 12.758048401611111
Ni 8.552469477325602 7.458939807598661 10.475928270315341
Ni 10.018322516908592 5.839964346844722 9.546683400766252
Ni 11.39427320822274 6.81854811878459 7.875419509023221
Ni 7.147168551643089 8.772394443135996 9.071844944114138
Ni 9.107547745065313 7.603247703467699 8.179334537300875
Ni 6.36058931169789 7.870772586674305 11.215517473660194
