21
Energy = -85.91356067 eV
Ni 11.218703402180319 12.32887344565446 7.807412603504198
Ni 11.781156150197013 9.048445443904411 9.92189037344814
Ni 12.864537407656773 10.728258616715637 8.551749505772392
Ni 11.635016002273376 8.058576166416763 12.051977705787762
Ni 9.367722833624159 9.609441690573698 9.880197257920862
Ni 7.35603841989885 10.712749427538286 10.17796167677134
Ni 8.18113269907446 10.23795693277117 12.349952193026978
Ni 7.695910787547494 8.38384530889751 10.981091920487929
Ni 9.056893821105923 11.628846327809878 8.581642299538395
Ni 6.470007197101793 8.889650807114316 9.011828464300773
Ni 8.188921979897707 7.244331455147871 8.976283855734778
Ni 8.469525833610707 9.280419326821114 7.7814343769237855
Ni 10.342962681621806 7.835303894846172 8.256208732083465
Ni 6.883775054842488 10.976907327331366 7.932696634667616
Ni 11.121215280887764 11.386579309398366 9.91137275440217
Ni 10.733726721615454 10.089281140253894 7.807864730952707
Ni 9.337682985810488 8.221069831842065 12.706833519600707
Ni 10.53540008847007 10.081974044126667 11.819837526072316
Ni 9.945633010858355 7.478785045351738 10.572998785264614
Ni 9.197381908474162 11.91321109019524 11.060438606231841
Ni 12.506130840507073 8.542168472983326 7.763095001790756
