20
Energy = -80.93291692 eV
Ni 7.758973336000668 11.296758542785339 11.416997627486094
Ni 12.966032115376764 9.790269739933484 8.19794681835322
Ni 10.91141891057736 10.71200697420741 8.019258556536792
Ni 8.097019569194774 12.993420647843308 9.828177151618393
Ni 11.484710625749354 8.345263771253164 11.810829215339735
Ni 10.88492981667433 6.714788961567953 9.989528731741341
Ni 9.755171321483981 12.448695291574934 11.734633346937652
Ni 10.31940192279957 8.990017910901507 9.861801721494803
Ni 7.135565481688871 10.946601398987555 9.051395984531737
Ni 9.815739397510459 10.071745108466454 11.907197819298812
Ni 11.915166686814262 10.499869954291407 10.3386394291649
Ni 8.848278527079628 9.583950122852231 8.035393541986299
Ni 7.976409794689199 9.19284675267143 10.412324012949385
Ni 8.82125855384015 7.402281582829318 8.977627161869485
Ni 9.539735351401967 11.231535980837826 9.84080379463097
Ni 11.130851830897814 8.236412559712495 7.9249188273081
Ni 8.87581650233642 11.953974359785958 7.7604044513974015
Ni 6.790191349951094 8.647514985783845 8.505814976161872
Ni 12.650983880763386 8.258199737143698 9.831082373620104
Ni 9.277265201809497 7.63876579320982 11.51014463421232
