24
Energy = -100.03051489 eV
Ni 8.906553833497975 9.184583481368103 12.67510624724597
Ni 8.319829425808685 10.831853039773295 11.053867948889113
Ni 10.05391987848558 12.148026144253155 9.856636349853002
Ni 10.614417861708182 10.27984183319788 11.357656644298155
Ni 7.047755412779303 8.762930104242695 11.430300139225942
Ni 11.702572231822803 8.484271897820966 10.120193000420887
Ni 6.864363410819837 9.853483087503717 9.388036934972558
Ni 10.713631761272106 7.920314387327751 12.148345853495934
Ni 8.633586753486096 6.855284305560138 11.29446797055224
Ni 7.562881819025996 12.19493337487121 9.332807627293905
Ni 12.024676372633236 10.775024225568854 9.577081267949968
Ni 11.033722356161691 11.563007622501026 7.642206100431408
Ni 7.2047698973541765 10.904412731825204 7.299944531615106
Ni 10.805646085868066 6.352618660457123 10.410735204995994
Ni 9.080070154768915 10.477690097985997 8.710917879790008
Ni 8.959106414601408 12.49364949369983 7.457447512271767
Ni 7.143543788040177 7.4815205550115005 9.509922677257755
Ni 11.564006199531727 7.0035355989508705 8.235094526665076
Ni 9.290790500855728 6.931195899798913 8.707682780717564
Ni 9.2987520162356 8.697195244677728 10.24139292469877
Ni 8.01127403870451 8.660643671377734 7.660888833045119
Ni 9.402321622621333 10.220425380162308 6.417597515778244
Ni 11.00728522568598 9.2675489676641 8.044042955180851
Ni 9.939538364463507 7.841025620632195 6.612641999586795
