24
Energy = -99.78883722 eV
Ni 12.123065517884202 13.24482203119663 10.110781372027027
Ni 9.77262552018603 13.555102636777148 9.614182121387994
Ni 13.256890925218697 11.137218221142158 8.917182299037625
Ni 11.024295237683885 11.759738158389977 8.80114511490468
Ni 12.179181425449967 11.063256541169274 10.925252023426077
Ni 11.491622426416551 9.43920971519873 8.99975801377663
Ni 10.352513227098253 12.50320484606871 11.6018615175063
Ni 8.715427797958979 11.778701692151383 8.437863033386378
Ni 13.382046223461835 9.117625838487195 10.300081986880613
Ni 13.184384550609277 9.8371605907568 12.622627985029313
Ni 9.784180025645714 10.471536041981626 10.573133158649354
Ni 9.999591039976835 10.165551181348485 7.298145856349986
Ni 8.104352400383199 12.142126896055409 10.664978492517468
Ni 11.73378590620785 7.274385918281308 9.763354532342145
Ni 10.977025975563475 10.599352395908076 12.924561144014488
Ni 7.647590545179886 10.43996826456618 6.899819403711323
Ni 11.414419077155355 8.775467156758706 11.520074165757492
Ni 8.691434548773646 11.139408069290173 12.702672530433839
Ni 10.079625340539186 7.8372013630618795 8.097283931810756
Ni 6.741956317166381 10.827969038900543 9.173485004249908
Ni 9.528105930110772 8.036557305796336 10.385326876968438
Ni 8.444496192583387 9.340936595773867 8.785142192478492
Ni 7.672397552937364 9.663109336203998 11.048274509451474
Ni 9.302903980800377 8.890660195900368 12.592290384731609
