23
Energy = -94.23087335 eV
Ni 11.855044498624359 8.169377767784198 13.26337703127512
Ni 9.468268877901993 8.125015682217464 13.4105546591062
Ni 10.87561128029158 13.716507061862119 9.333677703854033
Ni 7.837870412564611 12.44560490610312 12.786756504808757
Ni 9.268297706220602 13.413979644076123 11.149280812026579
Ni 10.951916079489797 11.826320551808585 10.638932798796283
Ni 8.788727639234812 8.672607964741752 11.09338493762311
Ni 9.652243148856758 10.050822717277745 9.31252888909303
Ni 8.998498380141523 12.34432083118502 9.055484487268005
Ni 10.516337697467087 7.095145073690837 11.661209780059535
Ni 10.769928730682123 9.67767835359623 11.766321853557118
Ni 12.533903260301477 8.081217369088414 11.006740093794807
Ni 10.073156749298024 11.844880750861927 12.800330272999155
Ni 11.010119518389192 11.607294412161016 8.097631176327472
Ni 8.450018426936289 10.16093159100312 13.104948297558094
Ni 11.111976179991768 9.290561435153625 7.567798782797715
Ni 12.111123911858312 10.01397006481535 9.781362561477446
Ni 8.572753674200332 11.111729286521891 11.011534596732016
Ni 12.878646075264951 8.152845000136107 8.637110090998544
Ni 12.83556271143975 12.277796229475893 9.303583590402145
Ni 10.664763046335514 8.003371725488913 9.532568304563764
Ni 10.629532175716179 10.005094999203411 14.120668529281838
Ni 13.11643917880889 10.488039851631607 7.757156636235771
