21
Energy = -86.31687351 eV
Ni 11.921047413453744 8.465003768363488 11.309708084603601
Ni 12.082574068733612 9.283266057430971 9.12103017837899
Ni 10.511768272351102 7.5642792376576455 9.668532296523768
Ni 12.168030807861545 10.104497269225165 6.931017401748201
Ni 9.674165654356374 8.058719299961346 11.850940538298177
Ni 10.300685516074854 9.970073399611483 10.557565329077104
Ni 10.626261837772878 8.425820582899451 7.425548215853824
Ni 8.192655375175123 7.1824904542826715 10.185941335962333
Ni 9.021705016196874 6.772855452645353 8.000137789554046
Ni 9.991746499583401 10.243919879387551 6.035088900060745
Ni 7.411752750275595 7.691185318652559 12.32368010659013
Ni 10.420743479365186 10.80440966172042 8.305173065098833
Ni 8.378628067024474 8.596448502370777 6.5648995341729
Ni 8.789708226893058 9.099359853772494 8.84410187269392
Ni 7.985110148747852 9.567602135972018 11.069294734990416
Ni 8.18207061394799 10.891637664362356 7.416866118274629
Ni 8.619652149465546 11.419121813302 9.723387833013852
Ni 6.87605567945443 7.828821641596813 8.267614972815984
Ni 6.091030313429395 8.261512860212033 10.455221874294375
Ni 6.280779759357243 9.6217039604768 6.862158070707823
Ni 6.676812933083923 10.130295801323708 9.123960313512871
