24
Energy = -99.76448139 eV
Ni 6.257087749148233 8.708494795997549 8.767088812514649
Ni 7.368193464751538 10.303978214785332 10.044748134939166
Ni 7.534086558416842 10.438641140135672 7.690095206531252
Ni 6.646682408027101 8.3918077716399 11.164095459523622
Ni 8.277962832377318 7.8303301901607965 9.621098052277794
Ni 9.568529355326511 9.92271585907355 10.838163008401189
Ni 9.664634592620605 11.109347022329317 6.788844124992088
Ni 9.591621930303582 9.525648593196049 8.487595676698557
Ni 9.012413434674176 11.785181947120632 9.039722050318293
Ni 8.483226039932848 12.015721245211013 11.346323975623976
Ni 8.044111895091309 8.192021337838145 7.26039377496324
Ni 8.898027321234183 7.956877263415402 11.920198976743457
Ni 10.25759861892569 8.792062805070321 6.3901893518025386
Ni 10.755474506057434 11.989923294943681 10.73228355822588
Ni 11.947976906692116 10.370802853729831 6.511944942967102
Ni 10.095525738185277 10.912949260948439 12.828300563388378
Ni 10.008879829885961 7.164530838448606 8.070231268009076
Ni 7.858275182958972 10.005008224813935 12.434658054240751
Ni 10.606488870848727 7.83823193253584 10.239759205852724
Ni 11.111554522757125 8.826057073153287 12.335184327854277
Ni 11.276896016372564 11.225143164229143 8.545721047356441
Ni 11.90444122512796 9.934464227082804 10.387506850544952
Ni 11.85104246482805 8.773731806328891 8.26759150091439
Ni 12.880161192118916 7.8872217944746135 10.18915473197883
