20
Energy = -81.45937356 eV
Ni 7.558579727591888 9.34565427126906 5.2044629049154265
Ni 6.642664723401706 7.879687627960269 6.7794160132212165
Ni 9.314034991151267 8.864331382484359 6.672681634781927
Ni 8.392484263275222 7.1098521823996155 5.408195388815347
Ni 10.044442353264527 6.659273949047181 7.060994692841694
Ni 8.514153926699983 11.068996685972724 6.521990070411631
Ni 7.858124145103283 5.861795951994197 7.3458359166668235
Ni 5.826609060679217 6.426019734638243 8.476404998764163
Ni 10.294264203600617 10.557896435440952 8.007049781359076
Ni 6.380747861981715 10.184977467011276 7.07871651600793
Ni 8.218375207690382 7.889057125435963 8.567244915211239
Ni 9.826444174588525 10.033594814564324 10.232593322754079
Ni 9.414417812933177 6.01930884202029 9.246236203347262
Ni 7.347918324507815 4.907004161876434 9.385620229741567
Ni 10.528064326937248 8.287673775999407 8.743978160924474
Ni 6.090445134691525 8.762234149001824 8.97813446139886
Ni 8.0576108875844 10.266519349379177 8.683252542264462
Ni 7.097155593660125 7.01593431185464 10.387897701800284
Ni 9.324415346400434 7.816682657907746 10.745808200864081
Ni 7.560431829661026 9.334889019146422 10.764870239312701
