20
Energy = -81.50907129 eV
Ni 9.227145624441944 9.365100828100584 6.68859691795742
Ni 12.267837199885477 7.935369779104339 8.85103416007411
Ni 7.659755396639746 8.137489928184221 7.870028416181046
Ni 7.197004946878481 10.741204005187086 8.080536410871352
Ni 10.063125821930802 7.759659714724117 8.144961065056068
Ni 11.200990356504725 9.957305856728759 8.244462191315673
Ni 9.483755200919088 11.487048757326903 7.4487627763075395
Ni 10.979980812689615 12.179990285498443 9.072703622776366
Ni 6.782676156262982 8.969055713876498 9.838221880019981
Ni 8.566516779067411 12.525964800925827 9.24943594250213
Ni 8.573058232714068 7.442194266413932 9.982838648806505
Ni 8.964503033248329 9.819691619371405 9.074681147661469
Ni 10.714718687114033 6.405468209720294 9.97241255178909
Ni 12.01950362487057 10.587129802666688 10.455202755557814
Ni 9.766691221552604 11.213654878772108 10.816224780800596
Ni 7.353928858240368 11.06845274693622 10.54329576684644
Ni 10.732072662937872 8.686745970910536 10.356622704113246
Ni 10.69534920611255 9.716955834705526 12.39001003061806
Ni 8.538955353013007 9.254810158947285 11.511653869047098
Ni 9.81480761152198 7.3490836284442 12.01069114824351
