20
Energy = -81.23029397 eV
Ni 9.755335611713623 10.114505641377274 6.188678104035493
Ni 8.598246067611543 8.141985447716538 6.821939676619866
Ni 7.393235385095788 10.07447760939714 7.358632634921046
Ni 8.95790825443516 11.839210172617806 7.738082996084209
Ni 11.256650287007776 8.556057700955064 7.708904044707276
Ni 11.221848781044061 11.035602579139978 7.816133390875132
Ni 9.485766543260034 7.123937857274435 8.671828032187582
Ni 9.429445215669562 9.617612479606388 8.40357488406062
Ni 7.590748459293412 8.413833720951736 9.205340203723006
Ni 7.7711314803024205 10.837968352869739 9.617054147027863
Ni 11.279948740337414 7.589142953912065 9.925219237400658
Ni 10.067066040771078 11.646491645220529 9.85311819475517
Ni 11.780449071506945 9.900508469149027 9.819543394575753
Ni 9.657199737700104 9.445098468491219 10.661528920856517
Ni 7.447553108368423 9.238229471018403 11.418735143041589
Ni 9.02263882768063 7.36379341861054 11.047100333372022
Ni 8.619092400490706 11.296241261815828 11.78784937225414
Ni 11.32598236364379 8.544340488688778 12.000215301629137
Ni 10.985962310640563 10.881116122894726 11.950202052645649
Ni 9.286630291106434 9.272685115971983 12.939158912906604
