25
Energy = -104.4531671 eV
Ni 10.016764119787075 8.043253057458074 5.827395244626448
Ni 6.482473664811604 9.759299431171726 6.57270980603928
Ni 7.719050113496254 7.575067991752611 6.335052551729701
Ni 7.414215916749039 5.940288221691282 8.041310388261907
Ni 11.283899385026052 7.4348074468462215 7.674035588573932
Ni 11.000569689842262 9.79123513321112 7.182556517433371
Ni 7.675647937628839 11.544413089434187 7.835283448455548
Ni 8.716136073929006 9.614569425361346 6.989883053752307
Ni 9.680344253913592 11.69715849743842 6.57790060767529
Ni 6.368206632598324 8.09387086325429 8.203923891098663
Ni 5.912234878187863 10.383438156150413 8.783310280892671
Ni 9.488056226992382 5.9504304709024645 6.883305436626939
Ni 9.71809102302265 11.071657839195723 8.837148390374553
Ni 9.087536399473864 7.606917538607005 8.39207931178089
Ni 7.703392612743262 11.423653965480412 10.27483353305766
Ni 11.264858234071932 6.8174314567642735 9.945355661811835
Ni 9.214693547802769 5.668864904892554 9.583677349181595
Ni 10.80350714605053 9.064664598387429 9.365616529252058
Ni 7.29543592216937 7.059911120435671 10.140634646759535
Ni 7.934754948104294 9.396381113786575 9.376254406097603
Ni 5.656066278695954 8.740490798663773 10.401086935651144
Ni 9.361856098237078 7.7984251123410395 10.86594449693127
Ni 11.410651761565884 8.623632575412815 11.536453542608955
Ni 9.596054633475424 10.16686766146088 11.072362924189015
Ni 7.5535301163049855 9.091297144579833 11.659913071817785
