27
Energy = -113.46884362 eV
Ni 12.20815047984426 6.825260258847556 9.853594272565791
Ni 10.804612475982672 7.9428943232317835 11.343976158413597
Ni 10.993839148949363 10.344685689976446 10.981461271740349
Ni 12.75623293125259 9.073016638051707 10.176189100907322
Ni 12.548759795818404 8.290014132882076 7.924273363920337
Ni 9.48863488162899 9.360989450153006 12.624270032465068
Ni 10.585622980488186 8.68551906377375 9.1081488421729
Ni 9.823780211597818 6.551639227409023 9.604615437668283
Ni 9.156313430598292 11.550339894857233 11.841602569473432
Ni 8.42424742787138 7.6301454914806035 11.319568512856039
Ni 11.72394901819998 10.66891853976967 8.690512469076317
Ni 7.257923079272944 9.992996939981479 12.067429347970515
Ni 11.384577022453415 6.212513335562907 7.785189847982633
Ni 9.70470063817614 11.72523137354533 9.501256921838532
Ni 6.330020297683237 8.4260920656989 10.555682354302775
Ni 8.700391728126146 9.709485465391293 10.298368565615446
Ni 11.62414251929655 7.535931214703662 5.8885131651769145
Ni 7.395211767395787 11.7890594453836 10.347724890566045
Ni 9.634433857966174 7.615017914663242 7.24633402238021
Ni 8.001230502571968 7.937810287796997 8.925330108373196
Ni 10.14510514303347 11.753076958403152 7.213797306200222
Ni 5.390038992709401 10.581563594678347 10.70244136776377
Ni 10.945708309493389 9.591691114908027 6.7020889280850895
Ni 7.852852108155512 11.964030468960228 8.010283235134288
Ni 8.883378593521849 9.875433106253467 7.797843061676201
Ni 5.653015070924693 12.087481551237433 8.869462669880255
Ni 6.72661952809931 9.992283094866076 8.85349352918359
