25
Energy = -103.83172993 eV
Ni 10.212173653201178 9.86741515470751 5.607112195199042
Ni 9.62157076101097 7.639408085861846 5.871448162316539
Ni 7.887470599280952 9.333644021084398 6.023442594531739
Ni 11.436754478340337 8.521833971609707 6.972172687289599
Ni 8.9151477705806 11.568072640858608 6.323779971418423
Ni 7.6826949767527 7.058761465964601 6.912773765784855
Ni 9.697431054919237 7.2140939210814645 8.255075224122882
Ni 9.09606899542969 9.65651602453383 7.964694907595555
Ni 6.864765263426401 8.854223489773606 8.130944137762652
Ni 11.176507855666248 9.015870638613409 9.12133877448089
Ni 7.019801543164974 11.068216958620475 7.587459965191837
Ni 8.851489466089431 12.116494965426023 8.569826354961629
Ni 7.398445969187409 6.84250262256038 9.189823630522632
Ni 8.873975576383847 8.504545406176263 10.163889070386515
Ni 10.93149063725526 10.974103859636061 7.674875443590972
Ni 10.046766251796289 10.816827472252967 9.976656076096011
Ni 11.115742958096558 7.1522568817726135 10.404271009633879
Ni 7.5850015442002015 10.46220508709594 9.891680322138948
Ni 9.190077935779136 6.008387925304392 10.405502228635875
Ni 6.029985911649737 8.480352245958038 10.236783901156251
Ni 11.26502801658301 9.25486714128052 11.430332127958888
Ni 9.293067278720184 10.25038910734488 12.042392739849683
Ni 7.33078662011149 6.875342412813829 11.518153830830368
Ni 9.509700727802816 7.752121871472321 12.189614519682346
Ni 7.378098952522835 9.121591426146795 11.94600115681248
