27
Energy = -113.99164388 eV
Ni 11.343152990430445 8.483819258475233 12.284821261663183
Ni 9.581115202036198 7.868443415449472 10.804383962840038
Ni 9.75845822491562 6.473306110368991 8.946561933731196
Ni 10.169933887605632 8.765136277557932 8.647214214778092
Ni 7.426852870328247 8.169909463687391 11.44860641754498
Ni 11.31076488340799 10.976409913024465 12.37169174846535
Ni 11.767987725905423 7.555233583537237 10.08772778095686
Ni 13.004485317769042 9.430066498438027 11.008531056285904
Ni 9.295187749402405 9.587480706828977 12.404504989805305
Ni 7.111041620488939 10.41655532505078 12.029164994151383
Ni 11.652613355911566 7.197652033339816 7.704778501678977
Ni 9.341246227332192 7.566509616397572 6.862009979424807
Ni 8.481542774108897 9.907261347335002 10.055195517292093
Ni 7.829114033189888 8.057500302855837 8.84066501420951
Ni 12.70760041278787 11.38480977846938 9.801588796846449
Ni 12.549364784098707 9.26241374014719 8.629148387433046
Ni 9.09452284057926 11.728759743534695 11.478740242505562
Ni 6.10999807163135 9.467049925036848 10.048870177598609
Ni 11.178639800597354 9.202249838350852 6.548671329628807
Ni 9.000519160001485 9.981568214681943 7.108215692185674
Ni 10.698902753741745 12.518355804733723 10.001219382482683
Ni 6.993673499911586 10.386854841672106 8.149452944978087
Ni 10.84364980566267 10.119875416575836 10.4035630191426
Ni 6.9939206736686 11.80788593500728 10.131666455777456
Ni 8.849955462635403 11.78786104895052 8.663162957414105
Ni 8.590862337449622 13.580214617475084 10.111743280801187
Ni 11.001849089304441 11.003772797919918 8.11505551528062
