22
Energy = -90.51127822 eV
Ni 7.18310482326694 12.191389195468416 10.762252583096595
Ni 8.14957397508953 10.915813067088399 12.414051844213976
Ni 8.528602865669635 8.272860148953178 9.748985724532247
Ni 9.103751413632097 10.450751921973435 10.289845059268345
Ni 8.313964856802867 8.589968058136098 12.072730662567315
Ni 6.877696317540187 9.841374950640292 10.605108598812668
Ni 11.775277598465104 10.656773951097724 7.219896373841885
Ni 11.844280422025937 11.340345754358191 11.252924292379728
Ni 11.238200616053179 9.391970423498224 10.033053520135336
Ni 10.388525407784604 7.721099956999003 11.407971193938856
Ni 12.413051781916822 9.110426043645187 12.003218204853118
Ni 8.644888252092242 12.420116761847929 9.028127315806232
Ni 9.948588970901628 9.325916213510553 8.037312875896285
Ni 10.260798881256116 9.968659947453581 12.330317044336763
Ni 12.988579509471718 10.63373207547572 9.235275610989016
Ni 12.292686505384648 8.558620259302788 8.115166277323063
Ni 9.70499426377405 12.418758526822339 11.227503946015766
Ni 10.866264501073642 11.70768455460952 9.118311917419662
Ni 12.5518875274057 7.509748207708881 10.279978004224368
Ni 10.552044280732455 7.261367956435059 9.070944583383273
Ni 7.784349442555431 10.233467246667383 8.409548378007866
Ni 9.497933318763947 11.402641514635096 7.136513959810981
