24
Energy = -99.27508161 eV
Ni 7.849433673670721 9.019431906637347 11.018603830990118
Ni 7.009462417104028 7.112552849406135 9.909579106540281
Ni 7.41709172945377 7.371565865451869 7.522974927323182
Ni 11.164713893748168 11.215998979248692 11.07489709782107
Ni 6.717692420119924 10.95735400081021 10.290107289339323
Ni 10.068967970189915 9.146307294009203 11.428795283352919
Ni 8.461325545312537 5.733593094276835 8.763880966082294
Ni 10.125664406244695 12.849986425515372 9.821960585999925
Ni 9.252232887486773 10.490815322862419 9.419633917703065
Ni 7.118860890667018 11.221950748793525 7.904091372623134
Ni 9.1409494257869 6.753837615793633 10.953827575254245
Ni 9.788459797147175 7.1596409243178005 7.177931801562612
Ni 8.504874010322759 9.448905104617172 7.180674535969841
Ni 11.860890842297815 7.6419451363951545 8.299269434526039
Ni 9.421585461025408 11.833574727556966 7.6245548910881915
Ni 6.9158718572288205 9.158523600014101 8.884802570726643
Ni 10.72170302955891 9.57668415352977 7.547069329288165
Ni 7.939207103720163 12.733012978446883 9.442524203211589
Ni 10.646444951541628 5.870324438747214 9.147802845681424
Ni 11.65553610685856 9.43463297678503 9.716133356872398
Ni 9.413214112170065 8.10750182735478 9.189508159742063
Ni 8.785844270947875 11.431201455869642 11.408771635138871
Ni 11.45675403510926 7.380876901802549 10.704618149493458
Ni 11.569619798225473 11.478610602266356 8.666653653883957
