27
Energy = -113.27027815 eV
Ni 11.673876670280503 13.737387331632922 9.81401083338893
Ni 13.143386308928319 12.21993386231472 8.738706493091087
Ni 13.56621638236824 13.016304982823419 11.08368574870642
Ni 10.589965617967705 12.035001529699384 8.54468479203788
Ni 11.494217367995473 13.483720765226192 12.144824311641177
Ni 14.18433231277396 10.813910124827894 10.386801758556182
Ni 9.727234558080692 12.651446428001243 10.685269434077435
Ni 13.328556328425133 13.110068562226516 13.518212524187158
Ni 12.00776612091605 11.097215480507971 6.948440173097263
Ni 11.790017687432014 11.430055524780693 10.507871734654321
Ni 13.149530476024 11.041586194836093 12.449749063271982
Ni 13.029382135403555 9.828766790963945 8.625060239582057
Ni 10.603765555912354 11.362143524531888 12.72444002244428
Ni 11.531784904692136 8.84671414422941 7.0448654908401895
Ni 9.699455043126713 10.301886796527977 7.310958359464251
Ni 12.433145352772318 9.25167698905662 10.980035847669953
Ni 9.237646312944909 13.371306443396083 12.851620588111807
Ni 8.846848355857551 10.747340229267708 9.608019254872362
Ni 10.817957661957518 9.573467264657818 9.158092621150304
Ni 8.348779851655479 11.20396544185453 11.957176421850852
Ni 11.640849843102606 9.377299615874081 13.270975380524982
Ni 12.736404750103492 11.1733380308326 14.706531741995834
Ni 11.04684798275867 12.821247591999771 14.442650854816925
Ni 10.042739632545205 9.539823483925394 11.340383288132204
Ni 8.750995934632455 11.726647317008334 14.372149863159805
Ni 9.183246148311069 9.55962352332809 13.508906838287302
Ni 10.57236950704804 10.518668503051392 15.114040436003961
