24
Energy = -100.14480064 eV
Ni 10.985836143688903 8.755489045405174 12.739336431767319
Ni 12.522847163234362 10.00845576662307 11.189051668836033
Ni 10.203609229085385 6.841894489879595 11.275796938297827
Ni 8.528237842010556 11.81331605652936 6.87748010732746
Ni 8.932512299141784 10.232852800825254 12.810177814310816
Ni 9.253256462859007 9.833032616095196 5.985794963215936
Ni 8.379855024832247 7.652980216379487 9.959996212677234
Ni 11.883145393873056 9.42243102003164 8.956597413539866
Ni 10.876181441142572 8.652837984008244 7.034466959771648
Ni 8.583669580795036 7.991098950636137 7.536472963639705
Ni 10.909380995311516 11.220909391500461 12.250772126956186
Ni 7.37259126402005 11.286328863155989 9.034229728631857
Ni 10.832003981517552 11.061709762527396 7.461276973594886
Ni 7.174702969612721 9.971958137108505 6.927896377899425
Ni 10.492189538093426 7.533388554196971 9.010073818253362
Ni 9.444608822540687 12.556229236509198 8.81047888981277
Ni 9.186615696296506 9.935822539882784 8.610501209063925
Ni 10.110630776733414 9.297640549103022 10.739744149152143
Ni 12.184068817661561 7.811356302029046 10.710200789831246
Ni 9.00561276794288 11.551430607513486 10.833849449599738
Ni 6.775835086947536 8.912777194040926 8.88768833615896
Ni 11.13991148364721 11.414344162059717 9.865898797672626
Ni 8.581222635270374 8.03549825955703 12.33353311762657
Ni 7.634739352780773 9.68653929081384 10.876752249272453
