27
Energy = -113.80736364 eV
Ni 12.21723422759069 7.105740441946177 9.489515164814538
Ni 12.442218913749373 9.276771853868565 8.6343977541112
Ni 11.522921909863296 9.978620923506453 6.495072278763235
Ni 10.90672906277123 7.9072634412529546 7.371491244284861
Ni 8.544724928289472 7.365860152738202 7.512865009834464
Ni 10.188272223793644 9.975529738118416 8.57508189517154
Ni 12.015406484899554 11.593923990601809 8.103929438082703
Ni 12.594203336069992 8.856228134549282 10.978688118820216
Ni 9.132864993217673 9.434329976666714 6.591568856480431
Ni 6.88371836457928 9.19774171011236 7.353615482297646
Ni 9.987243094532994 7.505674653097905 9.405515855049275
Ni 11.64746128577994 10.843149368859374 10.308277567200468
Ni 10.837398008629044 7.496531866327526 11.585863782055682
Ni 9.746386750967241 9.418483045197911 10.85166266134353
Ni 9.980477356621243 11.726873254732022 6.835889356137764
Ni 9.135152072551378 8.476764307082027 12.923861556673833
Ni 11.07533210028069 10.003642619679189 12.550528137444486
Ni 8.089726085146046 11.081731020599872 8.072408355059393
Ni 9.99903887474441 12.27575551403313 9.162911600298814
Ni 8.434477353959068 7.195298453056283 11.072234681705648
Ni 8.01702462793792 8.79408367987041 9.261368785192499
Ni 8.305307457229413 11.279079642375752 10.408399630148496
Ni 10.179925750554503 12.087937927310978 11.563860485373366
Ni 6.316352909479346 10.3931113873647 9.554794529198078
Ni 8.648631395599075 10.778786147400137 12.719206404445105
Ni 6.459731152597739 11.353192522910653 11.778894608697508
Ni 7.334662692433884 9.240517640609037 11.480720175182755
