28
Energy = -118.09780568 eV
Ni 11.152209214944115 9.585163112544752 7.341127657531012
Ni 12.526093031096238 8.548664606392869 9.305639976247322
Ni 10.674238021371373 7.443775524777608 8.452282557644478
Ni 8.868530946170445 10.74800944107338 7.052707588964389
Ni 8.858135733117251 8.442002759654038 7.460452628164761
Ni 10.667116178348156 11.877395535685467 7.9890929542075275
Ni 12.373338318532818 10.878942924096492 9.168935663386382
Ni 10.916444835442 7.502599710207914 10.80730702728053
Ni 13.956254250190135 10.014086465677536 10.714795577410923
Ni 13.072136113594194 8.073227162433755 11.695629404126015
Ni 10.075405592331201 9.72284438402148 9.33101939252583
Ni 11.541901787113536 9.740512235873675 11.117554412660633
Ni 6.773179131111626 9.404783238539716 6.820949184920454
Ni 10.527020083287022 11.925740555327986 10.362189373259774
Ni 8.561918745245576 12.138657989081313 9.021133520787448
Ni 7.779456975141088 9.92492037574436 8.99125580531906
Ni 11.15471238560353 8.502248315242074 13.056940410331244
Ni 12.914286446708353 10.09135602360596 13.029697230390877
Ni 8.740692638018256 7.737545492658914 9.821367233741322
Ni 12.582012527304151 11.793971179635315 11.47190134418909
Ni 9.224453141733797 8.91319593290396 11.794648934836326
Ni 8.544862619215582 10.975879935421096 11.141899436263484
Ni 6.614478571997582 11.55013001463046 7.762947319430622
Ni 6.731360385726304 7.874640156728928 8.6277638924355
Ni 10.466537040685987 10.943627102185316 12.667889948918763
Ni 5.401965169497968 9.774647658346007 8.897309242697965
Ni 6.472675297689058 11.464970964368097 10.15811435999522
Ni 6.93269444942842 9.064508076932025 10.884367325326057
