20
Energy = -81.35994643 eV
Ni 9.946449528371666 9.043130570520969 6.281428175092652
Ni 7.665303889148361 9.588291490158005 6.406693195701307
Ni 9.202888823130738 11.090186980322425 7.290784808915907
Ni 11.513919534800056 10.339580663485963 7.460990496236585
Ni 8.588317878752733 8.104085692927077 7.930224967164593
Ni 10.832924645734128 12.037265382288563 8.86586645255072
Ni 7.379673606625743 10.069475342257798 8.73304410282086
Ni 11.02797506059454 8.215285456710237 8.261869680294641
Ni 9.652790310256693 9.877530172322812 9.184283345729217
Ni 9.700084000379979 6.643395914368296 9.390906146588161
Ni 8.159334064265737 8.216498146786366 10.26154676106236
Ni 7.990781741791915 10.482028168655757 10.998000492609044
Ni 11.81360320797495 10.012791061352118 9.881976228454056
Ni 10.205080871068226 11.510869758983304 11.039589323240632
Ni 8.530233510033181 12.080612481175947 9.38971899122888
Ni 11.495780816066809 7.650125538343616 10.478468885660089
Ni 9.517540340818826 6.961562879647449 11.70386313846781
Ni 8.127635860202167 8.748926478184579 12.607431707467118
Ni 10.136900348792802 9.204349603367671 11.512086624017996
Ni 9.183163063779311 10.794389320729982 12.991607579286843
