20
Energy = -81.09093791 eV
Ni 7.276733498193888 10.767860314171568 10.86389473387407
Ni 9.698827288465512 10.167033425592019 7.820905690380886
Ni 10.31756467125162 8.293302603992112 11.608542106408896
Ni 11.249120828634856 11.851019284394715 8.658969912475069
Ni 9.004610304420119 9.088456707443122 9.917180600626674
Ni 9.234919000847404 11.60559286392644 9.847380259853734
Ni 11.131772329124162 10.149705358424795 10.289756715753269
Ni 7.987380537953659 8.62462532706694 7.54996813641912
Ni 11.996662744310845 8.032599697529406 9.842883679884157
Ni 7.482452771376736 10.677824154709727 8.53292790865262
Ni 8.277882607330183 7.001649841721327 11.004205808040984
Ni 8.290763581509568 6.709287818880224 8.758720627017585
Ni 10.313053122395235 6.435252588018827 10.060934978144164
Ni 11.155390815238576 11.253293307160531 6.451086195859892
Ni 10.26593773281433 7.913483783233054 8.250477718920674
Ni 6.828801836930657 8.58470863942825 9.713353450438605
Ni 9.465460866785122 10.57614263433472 11.924504659056902
Ni 11.967164593347539 9.646178267269033 8.078364181836236
Ni 9.114528398499218 12.340553640293425 7.630310354387217
Ni 7.884477406936108 8.919229031996048 12.100735665147651
