20
Energy = -81.5438948 eV
Ni 9.438417900912503 10.203734077844024 7.166804123253775
Ni 8.064440442679084 8.234922986393903 7.0589471143025975
Ni 10.44195450791811 8.07104380910563 7.173755338477415
Ni 10.867544578102926 11.94079181832942 8.092881924580677
Ni 11.812822233926932 9.899378273103148 7.618872675442065
Ni 9.9400407949365 9.991335626594056 9.444299233529048
Ni 11.554193392314618 8.258899352777776 9.278504841723295
Ni 7.636373670993651 9.789489996544148 8.768631820691928
Ni 8.580037202527759 11.921938084580834 8.656132201298403
Ni 9.147961601470042 7.730179576404876 9.078509032217136
Ni 6.8148841023539735 7.6304375120561865 9.05524324411893
Ni 8.312744770733607 10.959167777081033 10.83334225010884
Ni 10.237220526040355 12.284276460107913 10.311549287155268
Ni 12.084811445180055 10.728292790840618 9.859236344615988
Ni 10.171265015932763 8.2193411910207 11.205013006979364
Ni 6.723644654519803 9.211928477234315 10.856810571102036
Ni 8.001287523429038 7.354159608654934 11.10356652009705
Ni 10.503568084208124 10.459952392573218 11.778662296631536
Ni 8.497488803403032 9.287756767182145 12.451421293435452
Ni 12.343154835274804 8.996829508428144 11.381672967096746
