23
Energy = -94.67493271 eV
Ni 13.569882154259005 9.518092178998707 8.587219078108594
Ni 7.622689739049331 10.657827000208123 8.581403023211351
Ni 9.416583094791434 11.224825285075026 12.061206032210936
Ni 11.448457196049146 7.583426905338989 11.51031830191994
Ni 10.69729063016422 13.012587448889565 8.802356588102205
Ni 9.514992627833008 7.828010163487181 10.146521480530833
Ni 9.487502306945714 6.486992250820337 12.084565929345182
Ni 7.5154915846999115 8.326087122132156 9.050923587419202
Ni 11.39085095721045 12.259224412365294 10.914147555678138
Ni 9.596274450127025 11.462509449069534 7.409393509352841
Ni 11.593561433558273 10.7445878900188 8.59192859570446
Ni 13.358142537616057 8.779152274257275 10.827203898359743
Ni 7.94088212560717 9.744416232273673 10.832198405082023
Ni 9.36042423793365 13.384532599499234 10.772506425736587
Ni 9.529044677211923 8.817991849803416 12.304480654009295
Ni 7.491992940211298 12.002421579750223 10.690187435688642
Ni 9.646198351767687 9.278481810959656 8.322003724817323
Ni 9.566681052044236 11.164720576987456 9.771908499189722
Ni 7.518076364250412 7.546909283391047 11.335157970865891
Ni 8.276927874188074 12.980424860582643 8.675548429149128
Ni 13.23972631496272 11.060348550075863 10.293417730650996
Ni 11.632737662152904 8.399372090497273 9.280254839945643
Ni 11.286927990579173 9.912285854176472 11.087409062173352
