28
Energy = -117.22009104 eV
Ni 14.420346186595166 14.37739674420295 9.559398521172888
Ni 11.699850001265812 10.72659339719229 8.963389527099475
Ni 11.22905237311386 9.106328371871346 11.585462069589274
Ni 9.951975471837214 9.220915904550385 9.210053449065112
Ni 13.53560379981948 8.634726798878871 11.329519696215884
Ni 9.397912351694167 9.547332582175045 13.173730918264447
Ni 9.056843490473927 13.748107337813 11.390637127183
Ni 10.571800381785621 7.234534615592141 10.356929011553476
Ni 13.031346984105877 12.614203474361828 9.04287878722166
Ni 12.25868696871591 8.557495699554858 9.435930934929887
Ni 14.567107066992891 12.495697601589546 10.83180767640545
Ni 12.302808216915919 11.26177236182149 11.167694874713735
Ni 10.9907245034724 13.066623454823132 12.30184379908015
Ni 7.97752308985724 10.519296134705163 9.814729213579199
Ni 8.40489493905266 12.871126752516057 9.373961897364012
Ni 9.775778121065207 11.083886423371888 11.114941465198807
Ni 8.852115565779476 11.943020384649612 13.064476544549306
Ni 8.859783412616409 8.62827224970029 11.133323712026039
Ni 11.073202658497221 11.054840703314774 13.293321647441834
Ni 9.604567412446205 11.318189581302722 8.230949629377367
Ni 12.926948825770838 9.806695052152786 13.23710477811977
Ni 12.665649564994807 13.851536141942132 10.984919780179725
Ni 7.2641921887885275 12.309973046038866 11.301906513650762
Ni 14.690252927146219 10.556111063749363 11.999085811610975
Ni 13.239041222425941 12.302015788415993 12.957428745718312
Ni 13.920519599148763 10.36708225177007 9.727516740176627
Ni 7.426333003496305 10.176298336282459 12.130941134002233
Ni 10.745299814571988 12.834108222785225 9.821568478279222
