24
Energy = -99.02345236 eV
Ni 8.806920448646846 7.708150545588527 11.668871939870881
Ni 7.903443228493758 10.122341026403534 7.920591457214426
Ni 12.35421672008962 9.755390569620147 9.324588026524049
Ni 8.986623752631195 11.536587279056375 10.56266463301666
Ni 7.820776470915354 12.263161331185671 8.741444306719268
Ni 10.725951574984528 11.195946820093797 12.720386557272
Ni 10.956532224386068 7.240532115132295 12.145389373652648
Ni 11.815647183069064 11.808594136628791 8.110814222535925
Ni 6.834754318745321 10.67212420649201 10.195686777773789
Ni 12.177239282999597 13.708253685425536 9.63253485556116
Ni 10.540848597822684 9.512048446647828 11.206821085245382
Ni 12.600271635925099 12.79366008680913 11.830415452825212
Ni 9.554657189546274 11.718988624478488 7.2315742137978205
Ni 9.765996828087097 8.928204750016961 13.467065881729749
Ni 10.603021733765313 7.8609883976551576 9.698689667745892
Ni 12.689955320444295 8.193751072558358 10.996520038856463
Ni 13.571163133295494 11.82887126628217 9.763118638804254
Ni 9.971221060179273 13.144398257592265 9.033898888764353
Ni 10.147777979988831 10.13203016264307 8.749793063623022
Ni 12.875467431019622 10.498172429135241 11.56847999393906
Ni 8.262952255694952 10.016103351113564 12.107568148315163
Ni 12.040274730842274 9.08267469281071 13.13864238349432
Ni 8.446349480767744 9.066229485433949 9.88874014767437
Ni 11.234082886867698 11.710338029864603 10.38651236965303
