24
Energy = -99.40393236 eV
Ni 9.502177702057 10.074217199891926 8.582172546057206
Ni 13.125301113853608 13.843616449420814 12.716357941647265
Ni 10.44009464241378 11.375768365499818 6.945637212949344
Ni 11.02062246312113 11.88457811353111 9.122269148936807
Ni 11.85740583530686 9.850868056997236 8.208988903519733
Ni 14.192333099341507 12.186534365302888 11.523252445428763
Ni 11.800080034528984 10.077350088334615 13.835594968196265
Ni 11.5865535921854 11.634040102877304 11.87714663377329
Ni 9.857874025498054 10.049591091530111 12.51836689059098
Ni 11.683981914654598 8.426089582979644 12.174750651689155
Ni 9.82381020731762 13.437070233361984 10.393599088872584
Ni 12.283477971341314 13.343442611546331 10.499259498862113
Ni 13.025151239558834 11.012805723083915 9.903442596849692
Ni 9.122515649967703 11.233285073139548 10.621340042919453
Ni 12.09577677366298 11.450888889007803 15.658789205802027
Ni 8.824659810967638 12.337489661900404 8.513893315700091
Ni 13.385659500339983 10.000385032204887 12.023077340192346
Ni 10.901425950620828 14.320860569554164 12.225654175082877
Ni 12.969374272009 8.673260110675603 10.092517578576434
Ni 9.435588415967562 12.476451753656178 12.593026958615953
Ni 13.487454651985972 11.712940499374584 13.715810393592992
Ni 10.921262167723668 9.687538742903595 10.419573285136778
Ni 9.887915868581306 11.220604523966166 14.602856626747336
Ni 11.394498459900626 12.828964043595828 13.957077936154977
