20
Energy = -81.50912506 eV
Ni 11.636993858723946 8.869280999340955 10.057352883968814
Ni 7.687071530608308 9.093508407307777 10.577284187544759
Ni 6.721085322787862 10.485004616747883 8.855106380460695
Ni 7.440003534870619 8.361649539881752 8.25882476780086
Ni 9.467628369227995 7.998073983532404 7.044029634001039
Ni 10.405427199550587 11.872930938693212 8.046113530885647
Ni 11.861202319340778 11.146936864342795 9.624683731338434
Ni 8.898878365848619 10.563684684801999 12.192475026762473
Ni 11.996179869552934 8.32098695312906 12.273240160928966
Ni 9.387633350056905 7.835212730013089 9.362152106086747
Ni 8.704379621021461 10.20846006692024 7.498209573549104
Ni 9.928993482650334 12.306729663638778 10.616637815931742
Ni 11.38993979919117 7.261198866698508 8.336110826927763
Ni 9.453407868466941 10.292118721302625 9.707374965957639
Ni 11.178915765486058 10.480886903073207 11.747277116010212
Ni 7.550722208734872 11.58513169708846 10.708748338862918
Ni 8.255196195703212 12.275120033751428 8.667418652254545
Ni 10.98825270798075 9.570796747053564 7.9192150251914715
Ni 11.040151638622286 6.734497493961292 10.674593300777847
Ni 9.779528931818808 8.50938202896556 11.604743915003189
