20
Energy = -80.9944043 eV
Ni 8.441560200179904 11.009860242666822 12.186706505675488
Ni 9.748852383227623 12.20492139368644 10.736660078099243
Ni 11.623358383716242 11.214139867636183 9.736931661672902
Ni 7.8706449993323915 10.876218417837716 9.8606709934318
Ni 12.381019616735195 9.174771572778777 10.610803824073345
Ni 9.691426161283815 11.697448634899994 8.49837892831733
Ni 11.537148339794154 11.119138799083494 7.226577155556622
Ni 9.437223235947048 11.369009362667894 6.211827359250266
Ni 7.271650786109483 9.154632772581737 11.420942211661325
Ni 10.304929988111759 9.203399934255732 6.455539057538643
Ni 8.50514818923526 9.886027414969988 7.745523797874798
Ni 11.17060375077681 7.294183249308304 9.83006178819397
Ni 10.813484178486137 10.435019245795973 11.977442935410597
Ni 7.406276181971764 8.52929279134924 9.227889209769332
Ni 11.408593347257076 9.187994350515483 8.478741592373387
Ni 11.019857526533928 7.96911588500401 12.01604657068776
Ni 9.751873143267305 9.525666415237035 10.18045442656841
Ni 9.447033581493427 7.80774724315156 8.334863811503158
Ni 8.935082381124275 7.4838676831602955 10.773246520729641
Ni 9.093470473838687 8.88642170905239 12.791424033401508
