25
Energy = -104.50549277 eV
Ni 11.304512652830267 8.016276068814252 7.01550685296042
Ni 9.033247502582364 8.164252068902554 6.70918775052807
Ni 7.907084015004698 10.065586834166377 7.2044903592394895
Ni 9.187634512230943 11.54177394212614 8.448746750534053
Ni 10.382097947397908 10.337567985853887 6.68694084033485
Ni 12.4392438891515 9.74922410250726 8.04286830831278
Ni 11.815625557543903 7.8671848037380645 9.360860724627518
Ni 11.477280892588475 11.814422406082782 8.368624917709518
Ni 9.855601154153527 6.817907497130035 8.481031929149987
Ni 7.9130553704677995 8.252527486125802 8.914900301673102
Ni 7.16761383041865 10.43328682505985 9.395739297209367
Ni 9.961908482161798 9.294260355603248 8.627348081650462
Ni 13.540942788474613 9.168665404362981 10.137358557933924
Ni 8.000899230942464 12.59412250975428 10.164294550350734
Ni 9.710792712937373 7.9079609337525705 10.537545786199896
Ni 9.087039865632116 10.359560813506796 10.689795001895142
Ni 11.786683180066051 8.50774315935623 11.65385717897223
Ni 7.593477073519029 8.754000497444785 11.311237624573582
Ni 6.901251086428406 11.096171156573348 11.615291966909396
Ni 10.374323432633892 12.310690762432868 10.446976295189726
Ni 11.559318609519028 10.30972252927877 10.191797307614252
Ni 10.621655556185715 10.510405320793408 12.38834499950614
Ni 9.70893835150754 8.345694881704889 12.771228369447195
Ni 8.930332245862639 12.243386136358774 12.300219553677321
Ni 8.348260946886347 10.146426405696666 13.144627580928455
