26
Energy = -108.54532418 eV
Ni 7.831431546232741 11.563480831525258 13.85851085243526
Ni 11.297980698885068 9.28053595116955 13.126395735153968
Ni 9.858996179273067 9.345042433825268 11.169206627384224
Ni 7.940502387348859 10.6986169932441 11.684960043175506
Ni 12.724375218184175 13.703035770797301 13.848018801072058
Ni 10.905876738791525 13.223986258764427 11.551589561402333
Ni 12.248543684493367 8.703087531851661 10.999664400952057
Ni 11.23099050285908 10.049724755373543 9.294060827311244
Ni 14.538447618839928 12.043969708338311 13.532773995271526
Ni 13.520135299766789 10.50786383044975 10.024210669361908
Ni 8.816975646659676 9.251510861137454 13.295432222203907
Ni 9.914144375412716 11.244938780239195 12.989017932725028
Ni 11.532654972691835 15.187044135023699 12.536579688749645
Ni 12.643329393763965 14.451473522572831 10.473004535922287
Ni 12.153026368985817 11.501753002076839 13.698634718976757
Ni 11.949610221320098 12.33097454165838 9.561072162815284
Ni 9.67358054684145 11.613324708866315 10.310812117409654
Ni 15.323713465567273 11.296998999937164 11.330766867323348
Ni 10.392078247470982 13.351386405601103 13.840880191138012
Ni 8.626072351736706 12.95834670329885 12.122801526786128
Ni 14.311162523819574 12.729320560089475 9.609430081701865
Ni 15.482997885818863 13.612325395364062 11.440507276403887
Ni 13.60549204064402 10.072749201826115 12.467446057782784
Ni 11.667051420094948 10.91267963073749 11.421548784845807
Ni 13.915660500180019 14.986372959818764 12.371301735224266
Ni 13.348099968860547 12.654071459958883 11.734292403980055
