25
Energy = -104.48274929 eV
Ni 9.962211918216909 10.450101785143568 10.002550731413322
Ni 11.077226402805625 10.56753875953671 6.775747854971024
Ni 12.738464835932644 10.244278692049658 8.592436031267635
Ni 11.103288806812584 11.95178536732734 8.702008137816138
Ni 9.168602773648239 9.018449233533197 6.651701545065816
Ni 10.942053578490322 8.893220558173658 8.316392349796669
Ni 9.013402025417262 10.941177973213454 7.878517684055678
Ni 12.383439055622043 11.208015320158546 10.656487166843519
Ni 6.993350993529905 9.432304523896757 7.868730932639039
Ni 10.051122295179088 6.94194957764269 7.519315032300905
Ni 11.73934733175521 8.973221066080352 10.54815210121823
Ni 8.925211766091378 12.718285809384993 9.462015152699482
Ni 8.658821225696158 8.49407174227537 9.060486788111438
Ni 10.628681095279868 12.606337400205842 11.038466464767517
Ni 7.748708800644806 7.237799266984899 7.082930047193974
Ni 10.589960112151136 10.43919217333208 12.189751386966782
Ni 8.543052001231391 5.937402379633814 8.956629309185015
Ni 7.559360173351747 10.840085544875226 9.727295280815039
Ni 10.195454136084434 8.040716795373072 12.072888364060871
Ni 6.460937997436361 8.968180497341102 10.418860323101367
Ni 10.38444816224921 7.146323012354125 9.909747394317979
Ni 8.558298641517778 11.772342701141937 11.679437403929615
Ni 6.580963301287386 7.184794654469946 9.055890705729167
Ni 8.454507966295273 9.453651020625866 11.520594143127187
Ni 8.187158695767918 7.186848237740508 10.961041761100503
