21
Energy = -85.77649626 eV
Ni 11.687848799357912 7.063690792174835 8.95383887656425
Ni 10.39311387116269 10.85981537341571 9.609976873502003
Ni 11.046733894122235 9.363769007777458 7.798285188809195
Ni 10.234427442506979 8.518525015435634 9.870619840566844
Ni 10.305113586938946 9.54572667303785 11.929393009840538
Ni 11.180336665818691 7.170003234265591 11.418449753676363
Ni 9.42559763116514 11.671608201946407 11.547356203068544
Ni 9.403802255806161 11.376020999565776 7.292308550620067
Ni 9.671393514754994 7.3807706854536 7.771799411127552
Ni 9.330719865058523 9.09641043020668 6.144662951262257
Ni 8.755994375607163 9.568030237267644 8.382611935227237
Ni 8.904249521448028 7.631160090239986 11.667882232883697
Ni 8.244779093317387 9.72353031586 10.760820160780062
Ni 7.988300657077728 5.846673757989459 8.17577324874175
Ni 8.21455697675319 11.71427687963071 9.536136219748524
Ni 6.61450010815372 9.96223849646429 8.800731861775228
Ni 9.602175836072577 6.197409601199867 9.861782006410253
Ni 7.73380685502444 7.74400356470361 9.560399728183139
Ni 7.35854545511515 10.195754837980527 6.484213177581028
Ni 7.3866817867144405 7.964725401858033 7.229467581736053
Ni 7.067989836823167 12.114321542595992 7.641292847357866
