25
Energy = -104.91162138 eV
Ni 10.401080557332465 11.315706684008257 12.155337057490732
Ni 8.145101435726 10.806476697120747 11.227197608685106
Ni 9.701205889048882 12.480268983545445 10.211020723605223
Ni 11.907252729050972 9.562507982472413 11.495799071850612
Ni 10.13548686508793 10.169000504700136 10.095546922476595
Ni 8.297621491794313 11.168640493799806 8.863139012465648
Ni 10.72916878409259 7.836994986799236 10.367856170481659
Ni 8.449319074109814 8.62016001973709 10.051420879340055
Ni 11.9748549762017 11.631821953427277 10.292815643786271
Ni 7.176011208358927 8.718740599634748 11.939704107597683
Ni 9.59614960255063 9.066370500411251 12.179688580952098
Ni 10.770347193324833 11.425774539192323 8.250455488235456
Ni 9.134796140226442 7.077870829184211 6.784205611205236
Ni 7.265685467991068 7.773385673371751 8.089562425400178
Ni 8.887843074963023 9.075332323827695 5.662288109521148
Ni 11.04895221022336 7.524558364827001 8.050188476533181
Ni 11.142532732275228 9.631592326160462 6.689956344324423
Ni 7.229066650694157 9.914090471144961 7.226055802358823
Ni 9.091693089850356 6.568087078752904 9.143655500427569
Ni 9.344865222987861 9.129386638149247 7.959298583083168
Ni 12.017067213815327 9.470511737701363 8.991280973991033
Ni 6.790207164783141 7.04985169432577 10.240607099447178
Ni 8.790457075315251 6.876448765072724 11.549694074651123
Ni 9.1724626484293 11.17654797144346 6.596357739735125
Ni 6.514412348147739 9.643513027571371 9.600508838736063
