27
Energy = -113.32218716 eV
Ni 5.492339979378771 8.99063638374697 7.183797351459461
Ni 7.429352303261664 8.134710335621822 6.064274228628156
Ni 6.8796742818908 7.429655835049852 8.251778029881175
Ni 5.539642462967428 8.846230851374306 9.566934535882263
Ni 5.926063676904896 10.882579561728692 8.600497208477972
Ni 7.558928217561436 10.204663541939965 7.060200792148558
Ni 9.176967327755133 7.847140313392109 7.640724878340059
Ni 8.016541925264251 9.272728592182018 9.172544677945972
Ni 7.274973861094865 7.750650267586555 10.736690967276637
Ni 9.485631763606358 9.353860313279187 5.892159145045731
Ni 6.9298176748854825 10.481122917677368 10.754035888820956
Ni 8.608064874487903 6.327358304283397 9.341773182593576
Ni 8.047959166169633 11.771545942219158 8.890016116435618
Ni 9.788884303975758 10.487387204586346 7.900782304996563
Ni 11.318927785649967 8.753762495839027 7.340727427372724
Ni 10.902516876517401 6.824080812914664 8.937221962595407
Ni 8.466459879019753 9.239677202545638 12.09108935772903
Ni 9.59295550505375 7.377162455646916 11.15083974294154
Ni 10.370187970241288 12.338415176031939 9.1536986461347
Ni 10.471958634585587 8.948021601920404 9.682387684739352
Ni 9.308812623817156 10.861680959804158 10.639305574834896
Ni 12.866093389813189 8.271781490481104 9.000195907631277
Ni 11.983912840013929 10.515212583369753 8.90449376056743
Ni 11.939866604898715 7.534509862233827 11.002805471275448
Ni 10.792331266976454 9.42335843046077 11.950079280050929
Ni 11.558125813357169 11.47416492786514 11.005110488563444
Ni 12.962574028821773 9.634805943206532 10.95398173009608
