26
Energy = -108.68119224 eV
Ni 13.397989314271346 12.790231819189968 11.451544465228881
Ni 13.814141096647155 10.696900461262945 10.689353355041819
Ni 13.115570774826706 10.884793063621057 13.198952268031189
Ni 11.840516943257729 13.175469010228449 13.080592108206845
Ni 12.388936045984643 12.162865306548591 9.31598783337025
Ni 12.639827488268185 8.997193314677993 11.700511015329175
Ni 11.824385432894836 9.947298491577085 9.660882988399576
Ni 11.506253379011348 11.231398540583962 11.734125516711703
Ni 10.710242180102922 11.415153155512284 14.01514547826863
Ni 11.265318184850477 13.645506580571551 10.796588590057029
Ni 10.864033659994004 9.292204281840279 13.127566534754964
Ni 12.37509237345352 7.692190542595824 9.727404202318294
Ni 10.717997429557458 7.655721372903099 11.30953254187883
Ni 10.47483746102862 8.528062698440301 8.48427363720662
Ni 10.096685136020739 11.713072218047374 9.94383722449439
Ni 8.807379842976871 7.838221695974018 9.92547125189228
Ni 9.599575247280287 12.599855000721057 12.231366710295143
Ni 9.617172235714394 9.707984152610994 11.151440048628698
Ni 10.538654336359492 13.447395497163585 8.469596459705473
Ni 8.727718793841502 10.58787935940449 13.04691423030733
Ni 10.486050162187743 6.3326551103222055 9.355287961211094
Ni 10.608138645394604 10.976939693547516 7.852630452635202
Ni 8.894420556553621 13.703445687339999 10.245730549405524
Ni 8.692639008064871 9.99142157670126 8.988983230467205
Ni 7.961028760192719 11.48995582457042 10.829803623581176
Ni 8.425624748412178 12.241275147477436 8.431170995557563
