25
Energy = -103.52457806 eV
Ni 9.82065936682274 6.359345377141181 10.613382466990407
Ni 12.222644559641052 8.472614755935869 8.310749080071641
Ni 6.3837055673577 11.702667172080234 11.706042545359141
Ni 10.788920497771024 10.12894278625974 11.692502806803788
Ni 11.363397983495119 10.458254293438124 7.054702934601207
Ni 10.089203076152222 12.079134691187047 10.354843382076211
Ni 9.349102753586042 11.434821249989104 8.042326933644935
Ni 8.86954916214998 10.01293095620641 9.790069699065903
Ni 6.927865584830508 9.528517589081265 10.830435810680413
Ni 8.947040301264899 8.465172113806666 11.713350371319384
Ni 10.551388272176984 8.467345490970377 9.957674386412627
Ni 11.153140030889288 8.094918338294985 6.331761138677284
Ni 10.400709400748546 6.8245247953712305 8.257247746514972
Ni 8.317099993478568 7.763517246352103 9.43660338595651
Ni 9.662815966945942 9.063874902778803 7.79914829932029
Ni 7.511772464148914 11.883771573649838 9.693030679836538
Ni 11.23035110703738 12.643990191516316 8.312247070408606
Ni 10.145652914550006 12.270045923775482 12.636943724614836
Ni 11.208442312980502 7.712584093786596 12.06884561387537
Ni 9.026332036894914 13.568857848313346 9.001673976624554
Ni 11.550579237793093 10.548503631676784 9.373190061260907
Ni 8.498598742563491 10.804428562633394 12.029069218479494
Ni 8.260530411084504 13.155361542906823 11.452035669582378
Ni 12.724325039909292 8.952690549691223 10.65993879018341
Ni 12.130329100592688 6.7373402080223315 10.016340092504302
