26
Energy = -109.57345634 eV
Ni 11.365763480764176 11.73561923006142 14.828104204454338
Ni 10.119216988646325 13.049469410798718 13.296332008526383
Ni 10.546749850329329 12.038037415839726 11.161917309114942
Ni 9.154966348528106 11.18637449823407 14.40355617057281
Ni 13.101036547149937 10.468342092840375 13.866313740750067
Ni 13.851881202816728 10.90912837216936 11.652130787447595
Ni 9.088703332122638 13.895698896428861 11.266714252328278
Ni 11.401471263950707 14.201985527981387 11.558585217992583
Ni 10.477285548598761 11.00402368774811 8.88537467460077
Ni 12.27080010067956 7.710151600341979 10.208764577671507
Ni 10.901880615872331 10.337047753780402 12.967410684697729
Ni 11.858543333749699 10.124115259636403 10.677467999651919
Ni 8.59909363818559 12.128227421166505 9.809527590465123
Ni 9.281261150910353 10.064961520303296 10.774400112259785
Ni 10.659615370414338 13.415948270604384 9.310350557739268
Ni 14.175145531175623 11.141322038959494 9.29325968630857
Ni 12.795169827507253 8.757811571002339 12.295722950481036
Ni 10.492725618035468 8.288185345357013 11.721030232128072
Ni 12.716590508381348 12.619960070651203 10.37083419317659
Ni 12.362713031140176 12.095824660185547 8.14068863543771
Ni 12.487603864759967 9.647181703312985 8.544133585750659
Ni 8.74100871627003 9.407432218641695 12.950604901152722
Ni 10.397045217522663 8.672356204085027 9.288451360503826
Ni 8.439108701451943 11.726836393415661 12.21828215464526
Ni 14.138522305465518 9.035605185853203 10.279994672004097
Ni 12.360875798322468 12.369671970321013 12.741548053632625
