29
Energy = -122.74258264 eV
Ni 11.565482735413429 7.444953138289211 13.551223168832868
Ni 10.350231183611534 10.953118931081335 11.314445221876078
Ni 11.434254903136383 9.966170408248805 7.979052991139887
Ni 8.633067866120207 11.531210487497075 12.791845619140595
Ni 9.689635421646383 9.29195203417101 12.908498870037995
Ni 9.73162390075012 11.341665623390876 8.955160271991677
Ni 10.296825527064026 13.282303881984681 12.443419037764931
Ni 8.26015560047952 10.29969126929191 10.77325269319039
Ni 13.998581562041348 9.974953130422067 11.545384018262933
Ni 13.383501744227319 13.044431549364793 9.848495049675032
Ni 10.126350950564031 9.181127441378809 9.754484862114605
Ni 12.255609799960476 13.296706941520121 13.814158162410193
Ni 13.212695194889847 10.99858041903724 13.868980008679051
Ni 11.572306211957757 9.411490418389052 14.670915927860028
Ni 11.942561795405535 9.528779493346848 12.269343497733677
Ni 9.969297471834029 14.881294781736164 10.640567781072376
Ni 9.693392141188625 13.724540820214107 8.575802010456096
Ni 11.080366222716489 12.87351068702193 10.228586396568188
Ni 12.425603646212739 8.622458426010212 9.831337529901496
Ni 12.424053849957804 10.871118801036028 9.868836433938492
Ni 8.733078778337838 12.731644215429451 10.67118280946928
Ni 12.229247397472033 14.407237293857598 11.582335022632408
Ni 10.808174308126139 7.693231385463298 11.374543162602043
Ni 12.618007245266666 12.032549651054401 11.905680667863747
Ni 11.75332420789761 12.41381456203446 8.077787107668497
Ni 13.676299960209004 8.70688486573368 13.75242134877106
Ni 10.858558329708849 11.363079938630179 13.657298919076112
Ni 13.187347637902024 7.579797550562274 11.776150905735971
Ni 11.866637503145567 14.72717288905332 9.114040445423417
