23
Energy = -95.21317036 eV
Ni 7.194828491667381 8.146506448127283 7.858032605449475
Ni 9.996944747816508 5.935135784034392 9.673442995746397
Ni 8.563813154566908 7.73142506125983 9.627581184862208
Ni 9.387664552526706 6.92093383985685 7.556242208359095
Ni 9.249180265094951 9.253643564802182 7.709464057021838
Ni 9.426814255405786 11.55410206666908 8.259515848199078
Ni 11.14173562186904 8.37500561625265 6.696055895988303
Ni 10.616081899029888 11.370426846956954 11.884132889451031
Ni 10.969582157213166 7.99167769159166 9.030385563583268
Ni 9.672832077353721 9.904549320356157 10.216912039643647
Ni 10.319236057362714 9.303968488892677 12.82500455311926
Ni 11.509198511679596 10.122774573164685 8.335041489585473
Ni 8.268101045417582 8.807353349414477 11.736213583721467
Ni 6.431199732134377 8.493451537264365 10.167405050138687
Ni 6.782831535226568 10.557487114007298 11.259286586191415
Ni 10.548350484524358 10.650669361120798 6.298956361163876
Ni 11.845145869949036 9.608218100869934 10.720706461694068
Ni 11.510652516046358 12.370252106693531 7.498288199986327
Ni 8.535619659989303 10.933640599505802 12.731050463261454
Ni 10.354675521924328 7.645278665839733 11.228490753255217
Ni 7.597566400456186 10.213145519283346 9.076355403680902
Ni 11.159343892233707 11.919562187792119 9.765748053162069
Ni 8.63654657838182 11.916410322283351 10.502909669111528
