26
Energy = -109.24430843 eV
Ni 10.51691789301206 9.191878618506637 6.790239408530592
Ni 12.930485132100792 8.144023995510741 9.850403318551335
Ni 12.445075231686296 9.517278748173917 8.092844315857512
Ni 12.330566364594393 10.615712655002966 10.31793250557829
Ni 10.762227646293391 11.10045615948806 8.424111092426367
Ni 10.3942103971839 12.128055142537747 10.464903433598645
Ni 9.211688060166042 11.2290956886354 6.65438588396569
Ni 12.0007811175232 8.646660365262722 11.91155594086707
Ni 8.521349807713962 11.943660764467 8.872788678185712
Ni 10.632061920886018 10.496586121169168 12.127737278883643
Ni 8.876387554883467 9.575538851687906 8.391951991983477
Ni 10.720477185935529 9.116505851873743 9.879874298446001
Ni 8.796376933498376 12.084450279976082 12.231473178897126
Ni 8.793833459401347 10.403961013091157 10.656455696545905
Ni 8.162288562706852 9.10433545352962 6.184378767797993
Ni 11.159673202179166 7.450168756618718 8.324407800952969
Ni 6.729424562431127 10.925887995510294 11.724052968261402
Ni 8.40115536447436 9.808555641295923 12.908516184378465
Ni 11.111132643053779 6.802102935156975 10.634611073230154
Ni 7.002381267848858 10.775883652469751 7.3133321420955015
Ni 9.055377062392449 7.313279824175989 7.300436611515022
Ni 7.3753196806943615 8.595062006434745 10.95661192248199
Ni 6.718232943692218 10.336763234821118 9.514076005967308
Ni 7.05964740261581 8.253957128467803 8.412344504651683
Ni 9.636319307603092 8.205007943877161 11.815142602974053
Ni 8.993752289292098 7.440152165894252 9.64249343505311
