26
Energy = -108.73002215 eV
Ni 9.954090980356023 12.05649293556585 14.108670285794904
Ni 11.018177393586818 14.113720583119614 10.389367210488674
Ni 12.296060010298431 12.505719452938168 14.510924617148001
Ni 13.490695833121604 13.478116125659437 10.81152392878371
Ni 10.45355507004903 10.705838379312532 8.35635063056304
Ni 10.77236533104156 14.250247026908612 13.901657009548778
Ni 12.420733452279823 11.636419846096862 7.545246874939318
Ni 11.79060438682458 11.976320567721398 9.962138953271541
Ni 10.475874557343147 9.938292337035147 10.509016399500585
Ni 9.514245148510167 9.735083232179331 14.217509565348873
Ni 14.060893386995952 11.810490850068515 9.196311378725124
Ni 13.33202174038403 10.419888459468007 13.642633391053947
Ni 11.455788376937445 10.495013636076731 15.245409965792025
Ni 11.235019632512365 10.671805258279127 12.705521349871315
Ni 9.492725626236968 12.135099111579775 10.135793532106725
Ni 12.771271688652057 13.75409128477322 8.619274126613904
Ni 11.808989846336884 12.962195085006988 12.303621949379323
Ni 11.711066015006892 8.623278636621743 13.884912117971773
Ni 10.578517525754046 13.055486806798264 8.208875518532874
Ni 8.989814461022712 10.90943029862375 12.155911488313368
Ni 9.496222080951613 13.267486449929223 12.148802735811252
Ni 13.446345949711155 11.065172655037475 11.374397775983752
Ni 9.994839141381588 8.57155745195339 12.254920756595109
Ni 12.589619874546832 9.89678381204716 9.367454188870342
Ni 14.058585042827941 12.648019165035446 12.981632068247972
Ni 12.394688643998869 8.951917855757003 11.639979237004695
