25
Energy = -103.93038812 eV
Ni 9.254301728034728 8.306608812304644 6.357946215119667
Ni 9.398413214306222 6.088395219887101 6.825519210216215
Ni 7.305361150132489 9.018392557657135 7.834315710661992
Ni 9.697683765329963 12.069446958110959 7.059888604831332
Ni 10.458073761382924 10.21094229190744 5.781286924482295
Ni 11.51931683737098 8.617785922226757 7.206462873128241
Ni 5.855322523715297 7.832676869154469 9.187111335354144
Ni 10.08216058141549 7.50969522717795 8.63761169943639
Ni 9.23518771975658 5.986307865802725 10.154640509736868
Ni 6.86920173467397 6.062799995355177 10.41250858675754
Ni 9.617841739226927 9.857141488451216 8.066179115074604
Ni 7.260602744757627 7.241796070264439 6.206065542876636
Ni 8.288264638671427 6.942435414980324 12.110677290956682
Ni 8.132498834713319 8.154758927941128 9.998266658934513
Ni 8.136873122226712 10.483115160839848 6.256771934369963
Ni 10.132623636947564 8.140095672081394 11.076342666048218
Ni 11.766032210961129 10.936708105258772 7.635203224324358
Ni 6.21992771335893 8.062220142656951 11.524424052041805
Ni 11.308408632462806 9.51589712791679 9.546773675784342
Ni 7.741974985340374 6.555992336896882 8.314062595120244
Ni 8.103863576955986 9.268198827605318 12.190033143233611
Ni 7.974715709737578 11.331283020105776 8.611568157033238
Ni 10.381417701853984 11.842932648189652 9.280215578778037
Ni 6.777526923964998 9.967748349542928 10.13495034779744
Ni 9.184007562621115 10.305742896853607 10.4696212775862
