22
Energy = -89.88352449 eV
Ni 10.98143138430964 11.038071691073572 7.71672260022198
Ni 9.61272086000461 11.621466617882946 9.444117154810295
Ni 6.332893573195812 8.469078402290181 10.452426038023166
Ni 11.909979493341092 8.666864075911281 8.167984010594987
Ni 9.725252949373784 9.992541556894013 11.153871563210751
Ni 9.643938603623363 7.934096198386465 12.336702766800205
Ni 10.60571123014908 6.705047374397196 9.068107763978873
Ni 8.44405419170868 10.641650558442365 7.4352187531708545
Ni 8.655226137457499 7.783448659887199 10.251846656251109
Ni 7.279083101957182 8.626696469016306 8.359397313747925
Ni 7.724744529599082 10.35296813786639 9.979344758680963
Ni 6.13143065407639 10.590513951166557 8.294633419214554
Ni 8.403718765772396 8.410830263051492 6.385428682373343
Ni 7.377814123689706 7.016552963812977 12.007493718323104
Ni 7.731452630531747 9.299386184076068 12.12680098171158
Ni 10.420095839762146 9.48759027762883 6.22356028684932
Ni 11.632192677376546 10.433566534802264 9.823523597806568
Ni 8.5232513436622 6.721505866186512 8.084729496933209
Ni 11.16914622997514 8.28564932770016 10.5643767904034
Ni 9.738384461787856 9.050359355836306 8.586366321141709
Ni 10.447556462373452 7.266902911049575 6.839111713659732
Ni 7.535984880695929 12.360467801624084 8.75496953212294
