22
Energy = -90.15772069 eV
Ni 10.606780306797143 11.678784643438773 11.10725773907207
Ni 11.402552155195766 10.54091496269851 7.459044848557452
Ni 10.18039798307581 7.59465379543656 8.899201003433935
Ni 12.344442385801159 8.832378541782246 8.918680766361376
Ni 5.916598439118375 8.76499339646774 9.36091422682767
Ni 8.959076236711404 7.386489520497569 6.924640011721269
Ni 12.105910694961048 11.730664609487816 9.283497608859202
Ni 9.233214323391037 9.731113341696728 7.430214789692756
Ni 7.146022916796876 8.717006816511683 7.437883229185275
Ni 7.41482078847799 10.881529108306797 8.630095060220116
Ni 8.38608203743055 11.75872452831872 10.62991690235539
Ni 7.02883783805037 7.919979880531676 11.272349332971373
Ni 11.187390339025168 8.228944978101902 11.00056792537846
Ni 7.762594714772976 6.8862203281788785 8.986251046089548
Ni 12.432972444071982 10.153189617364921 10.995415461777279
Ni 11.129440683730726 8.304983937165927 6.8938407435880835
Ni 10.47489772136873 9.93935992985003 9.60997032498932
Ni 8.267391430384473 9.00620486481362 9.576722581531168
Ni 9.15242002893901 9.64635425721353 11.629871644105497
Ni 9.157695626578995 7.195097058883647 10.96936885361062
Ni 6.775663884901848 10.216957589972823 10.970247992817443
Ni 9.6681727746374 11.829609294127204 8.657586690528607
