21
Energy = -85.08059856 eV
Ni 6.875502342886014 10.175808216362652 7.422305238700607
Ni 9.168776690146707 11.25600382318822 11.369414401096035
Ni 11.20037704938852 11.072493506729058 12.859970027781998
Ni 9.174791512670458 10.28951832029567 7.4505583424281765
Ni 11.31748021845098 8.14439459457314 10.293485416342067
Ni 7.750932815794941 11.079329727935155 9.446499304772479
Ni 11.125522717430309 11.541761981176727 7.018834815134571
Ni 6.775463478817934 7.38164750462895 10.34557595555264
Ni 7.709751021171964 9.35697690206699 11.24414550984627
Ni 10.021007459012536 9.136064417357913 12.08550840782787
Ni 9.430645258781453 9.496912141718099 9.67504258960608
Ni 13.252624449612817 9.528846803603995 9.855170779074133
Ni 12.524931940368981 11.632670748263328 8.927170287278113
Ni 13.295504255496963 11.378503330575404 11.31859945545783
Ni 11.294638558944873 10.634108321040168 10.634472010873417
Ni 9.073310337944541 7.448839651013971 10.626926645398024
Ni 10.021577815418217 11.7928333791241 9.060383834887276
Ni 7.862169716722545 8.355423813947548 8.483115590907227
Ni 6.084664559323758 9.425897302582623 9.488112442505063
Ni 11.370819468302097 9.64156788101646 8.358555102913616
Ni 12.448755441494727 9.213613032351255 12.095860572617212
