21
Energy = -85.87387712 eV
Ni 6.671457465055433 8.643712194754386 8.514753843313938
Ni 6.314941923283215 10.255258448030025 10.275299706577844
Ni 6.410344283753582 8.028302459287174 10.824153029847912
Ni 8.5847881269216 10.429509347572832 10.778909274074561
Ni 8.944525390366321 8.821036590009726 9.043375567429262
Ni 7.7320133486080485 6.9139679432478625 7.23701456457168
Ni 7.73477644577155 10.820121033660788 8.491287382444275
Ni 7.143693551809926 9.5662064717308 12.394133102994942
Ni 8.408862311466759 9.151329885490899 6.794187332901283
Ni 9.287210940747547 11.378974224891419 6.863255359993948
Ni 9.199759851039447 5.3592183389308365 8.2991083666094
Ni 7.816599275195161 6.722037195342155 9.553476065012818
Ni 8.719946980559751 8.134617224838543 11.347742940492047
Ni 10.742067970241685 9.637582563044315 7.397549259461238
Ni 11.498210287342443 11.899083694777605 7.4305823190201
Ni 10.047359630126659 11.112628348010574 9.119144815319471
Ni 9.994156370035169 7.3918606615025135 7.457908996294028
Ni 10.754304079104532 9.198347722989068 10.495883853561304
Ni 10.158686482902503 6.88999293137651 9.833554589748228
Ni 12.267299931939045 10.356485556607876 9.021109308628091
Ni 11.879611510343487 8.071673957298268 8.760806621677904
