39
Energy = -169.30167536 eV
Ni 13.527619052504022 11.875007337091107 11.194299881740614
Ni 12.364922766284408 11.500777712516781 13.167244907370264
Ni 13.35980567815413 9.708105086398376 12.112216305541297
Ni 11.461977819643995 12.948805858599268 11.441694550889967
Ni 14.470148746175852 8.306953034848119 10.531717244378175
Ni 9.243026243961912 13.8166836626563 11.945104824669766
Ni 10.114135664919328 11.775259632418019 12.923599507965255
Ni 13.23145000216252 10.08313391977563 9.738489991340657
Ni 11.022775353358504 9.410123299349323 12.923231069985254
Ni 12.137075228421928 8.01243806252271 11.195245724013931
Ni 12.155627722234318 12.175908399288087 9.2690405339437
Ni 11.202865343257239 10.569967029137969 10.868631149283562
Ni 10.283323708232603 13.732493704720975 9.590673562476034
Ni 13.257143663105884 6.441788802809598 9.841798438564991
Ni 9.12364464250566 10.284030729870318 14.308955952804613
Ni 13.38638009081696 8.27934559589539 8.288692242130542
Ni 11.21319878811949 8.60551929228512 9.123869425922706
Ni 7.82101788920969 11.925548000094059 12.816403054789756
Ni 8.388657135624133 14.999219429151134 10.083367425565442
Ni 8.785477437260006 9.888960753145627 12.09466063338768
Ni 12.059323780013532 6.3531983824403335 7.8391739284906565
Ni 9.14409249612472 11.92559859385568 10.650900211705471
Ni 7.108436746176038 13.213054502614963 10.913411951690724
Ni 11.623237990048663 8.286639424145656 6.636365681594557
Ni 9.804453700330294 7.9700446466086845 11.278711780158917
Ni 11.93987946766615 10.341316008648167 7.738722016440739
Ni 9.155566070850782 9.67301134048409 9.728700030559578
Ni 10.03343005962821 11.608034488220358 8.43573580229012
Ni 8.128994658351564 13.049288087482676 8.78644145095436
Ni 10.90377271066339 6.363820566005396 9.883266783429782
Ni 7.00991080143458 10.822852520601893 10.80923424796948
Ni 9.832659367132559 7.193993209226871 7.833000664426965
Ni 9.694762823049627 9.533187683695354 7.352085433839662
Ni 7.42576478068885 8.447270522489099 10.706169995132235
Ni 7.76248554098489 10.779268739369853 8.189627463073132
Ni 5.992687699882691 12.035294244008037 9.116480551346985
Ni 8.579997364960034 6.649819495856083 9.74551338241049
Ni 7.7926665932300825 8.323938620658376 8.292248064319004
Ni 5.97808629967668 9.610781507860626 9.125756060249227
