35
Energy = -149.61068951 eV
Ni 17.39539673175474 11.578185980630591 12.864142014177807
Ni 10.006547434053248 13.813159058393305 10.355742396448154
Ni 8.106062926573234 13.492129703628732 11.546996802670778
Ni 13.970779794555206 10.834845360887384 14.682468884486209
Ni 12.187025542339365 14.11481606073663 13.59144923217948
Ni 10.025811925469192 14.839032861571805 12.624736524152361
Ni 15.966281249364156 9.88767326946893 13.647221332931917
Ni 11.92776307537215 13.243664998342727 8.986744483490817
Ni 12.033637533556087 12.188469748393567 14.962653534342321
Ni 15.095176118564918 11.707753068362619 12.397299639311406
Ni 9.798066692394436 11.49524184942242 14.433115953692015
Ni 12.045621228418938 14.023146265500486 11.301760733258877
Ni 9.640381438870584 12.668426968557565 8.403454341221085
Ni 11.451872213560588 11.580278034734501 10.520597778556127
Ni 10.322990908002726 13.811744464995392 14.883999498420565
Ni 13.80279398726494 12.754637509612378 10.465717615765149
Ni 9.603529787205375 10.36557997835042 8.44929209196608
Ni 9.064963952172551 11.499473231437165 10.466916998971213
Ni 13.465907227771476 11.417490266312608 8.570317101171906
Ni 16.130933918360277 11.854080251503888 14.837898760609491
Ni 12.72722084758493 11.854662443671586 12.636064726727003
Ni 13.70006708780494 10.475427328382505 10.70287557650797
Ni 10.321802405811502 12.604311876698493 12.471028254008907
Ni 11.896974531291 9.260095571440397 11.56090373886783
Ni 14.205875552179458 14.060044211813 12.310118518033544
Ni 16.26556825979361 13.57716437360531 13.293208905956481
Ni 13.849802640135254 9.527723125319987 12.794069310798378
Ni 8.35037556917961 13.410542040899566 13.832309597002846
Ni 11.4085136238741 11.452381010453141 7.508432287152941
Ni 9.85571824081378 9.176313068533384 10.378244171346712
Ni 11.846112029594071 9.776771326682583 9.193825812370292
Ni 14.183044840795983 13.131767077236741 14.425028644216168
Ni 8.053687443601003 11.433498468345832 12.648766442883925
Ni 10.012937183124443 10.265284955661707 12.410850826200766
Ni 11.7907936490922 10.084419736270323 13.903812861366937
