37
Energy = -160.60590922 eV
Ni 8.559860206886595 5.416232385812768 5.013416232527153
Ni 10.356958370073617 9.159803456374439 4.845927542487177
Ni 8.25566930825989 7.87485654525565 5.088725507752137
Ni 10.557417875361097 6.7613192103418385 5.478186447329801
Ni 8.338968921986913 10.142602770504366 5.980492211893982
Ni 6.510045785298917 6.515581488642182 6.1022969077165286
Ni 10.681439284966496 10.58950491006469 6.857026127034748
Ni 10.11924223962153 4.68909237526911 6.7835728020293065
Ni 5.974226790970528 9.141938493858355 5.883116864689396
Ni 7.412431125071599 8.379725727192351 7.365410250988206
Ni 7.544701231164842 4.48755709827145 7.031456239327135
Ni 11.999541327251276 8.475296009117816 6.521856519958258
Ni 8.816551873020519 12.034850539127133 7.50646729442999
Ni 9.782447618914743 8.459789616971623 6.9188861481007775
Ni 8.747030850344215 6.435738901997518 7.036881765043663
Ni 4.69103630317025 9.837280967091845 7.926204071615872
Ni 8.831069081000708 9.913619952544051 8.470635219375
Ni 11.001808367375947 6.707055073176771 8.009305425946732
Ni 6.770684231029173 10.755156393911335 7.745880136841379
Ni 8.92954861644372 7.645477925971079 9.171583208250171
Ni 5.1662538046498785 7.592673572986957 7.8283172074257354
Ni 11.138797856813818 9.036963853149398 8.783692830450802
Ni 7.044534077160689 6.275240536165773 8.588485147156234
Ni 5.261351912575244 5.178867070117066 7.717893748247463
Ni 9.283030707883606 5.318708829707182 9.082716117135918
Ni 10.458612321022908 11.414715977591802 9.136659084636033
Ni 6.806469614737893 8.679406410261592 9.624321556268125
Ni 10.742436897476466 7.295288903569721 10.428345657601248
Ni 7.53674449823385 6.020009877217386 10.757932291947162
Ni 4.535680073620284 8.626964342400965 9.969268639203555
Ni 8.593161334575756 7.853182422357102 11.556417483233135
Ni 8.035719560251408 11.510697168382682 9.83704831810438
Ni 9.6649001362541 9.664797548067456 10.604370923544346
Ni 5.743942795409562 10.714649589602795 9.921239630659292
Ni 6.152243925980159 7.786659886186557 11.652544031650939
Ni 5.200970925839839 6.361059229595955 9.93332594452669
Ni 7.406528221551575 9.899693013393831 11.49215253712137
