37
Energy = -160.50055811 eV
Ni 7.159207543364414 9.69835725451869 9.369532626830862
Ni 7.600586049871138 8.902110240574935 11.653223949537658
Ni 8.03139496843381 8.178556155924397 7.609890336226891
Ni 8.863561386087905 8.129632811225537 9.83145273667896
Ni 7.0631773513736045 10.320771380041597 13.512185437915612
Ni 7.742536495310952 10.517653278878145 7.233211731584036
Ni 8.4373573107243 8.439311107000254 13.847618375557657
Ni 7.142394555202975 11.194226192768346 11.292235721836924
Ni 7.798871524503677 12.124210979515246 9.054315389566183
Ni 11.10877240285527 6.89588719810504 10.365877173217626
Ni 10.23632967572971 7.271930368403134 8.166807293765293
Ni 9.857299620910341 8.066661711333007 12.00350949561455
Ni 9.175408097640707 10.646037609110875 10.107118411926175
Ni 9.076290349740034 10.47764986380153 14.84452111900331
Ni 9.802529395714231 9.609010364626108 7.973601807020316
Ni 9.620826526023066 10.029171232950018 5.761068257087412
Ni 9.324252634116139 10.359541612314313 12.447370351962105
Ni 8.400029078088279 12.261065263677374 13.410172567652863
Ni 10.954303590891152 11.901195860195106 11.303356112969302
Ni 10.75465961112724 8.986361471766685 14.037031341568227
Ni 9.548254009623282 11.971018342892624 7.286583611457148
Ni 9.976056145684264 13.237524498249659 9.290915043312367
Ni 8.788046794179143 12.821222230619437 11.207506279337373
Ni 12.047894818556195 7.533310707155555 12.50964476893808
Ni 11.1910964321049 11.31350381058514 8.932153710110136
Ni 11.04206284817778 9.154968058275847 10.00586190860936
Ni 10.869218377758402 11.49416833911649 13.698694606818789
Ni 11.454837455578414 8.553400015866114 6.6246033862500635
Ni 12.527127914520891 7.256255040355794 8.466675349148561
Ni 11.810402718372364 9.850641474880799 12.156149488665694
Ni 11.578553687883835 13.231716291969555 7.50038155918397
Ni 12.353107915271789 13.173330043508205 9.815947018052187
Ni 11.639349617683617 10.940584335492652 6.633853874994678
Ni 13.114232611720631 8.420694757373388 10.54465500964056
Ni 12.749680197516975 9.542104412710156 8.332598109464243
Ni 12.984513069858371 10.871759659068967 10.368788773800505
Ni 13.366938115216353 11.812209820755983 8.11118192774509
