32
Energy = -137.07108736 eV
Ni 12.568833116553956 11.215357144767838 8.8818333804715
Ni 10.809259401028843 11.813412452878186 7.4695498854736675
Ni 14.270078538978275 10.731338266247498 10.373606943135337
Ni 13.234010479888271 8.91962062000559 9.262540646726062
Ni 12.365392510236214 11.830045884027461 11.165057789748536
Ni 10.400995150134563 11.869614400078392 9.824459852041269
Ni 11.61893140522666 9.499555998070303 7.475153945770649
Ni 9.828614454003592 10.228814773440947 6.017855475899015
Ni 12.624609392297625 9.515068424217247 11.591953716442207
Ni 12.40578109216864 7.283151893750326 10.806199509853741
Ni 11.354294048828534 7.443784796802229 8.72360778854614
Ni 11.080143629683725 9.525387702450564 9.841623926044525
Ni 8.608091689805493 12.447424068833287 8.364844246242761
Ni 10.551641899528608 10.627850031754905 12.145340757591528
Ni 9.666407558848617 8.129703720728344 7.155820801732681
Ni 7.968641328471021 8.870736864702572 5.67261214145162
Ni 9.34072955361535 10.180094890896115 8.31991861585204
Ni 10.505541462738112 8.26771959078448 11.746545906763206
Ni 10.31124312986417 12.960882631224239 11.864213637793583
Ni 10.28954224242187 6.240479478435941 10.576052366898862
Ni 7.649527317297131 10.85813051700024 6.867091736701349
Ni 9.108279034343129 7.870773914433318 9.450443542990318
Ni 8.834290800031273 9.955726924230367 10.65423166200136
Ni 7.070701850360788 10.825841658561766 9.241455290110578
Ni 7.452055223313484 8.770111427725231 7.983990638325502
Ni 8.258993309882136 12.293376373182184 10.723088901176641
Ni 6.899837167224504 8.619822633568038 10.249991429970601
Ni 8.617574799453784 9.284048027565326 12.877955149405047
Ni 8.325186769687424 7.296019320192221 11.614836642358979
Ni 6.857017971150945 10.54651919871756 11.708189258956113
Ni 8.609967523808477 11.664600273820884 12.924108227673456
Ni 6.4607674580101735 8.373340894608107 12.54086540487371
