31
Energy = -131.20788744 eV
Ni 13.852694578673098 11.176447049714389 16.819300207620728
Ni 11.569868552602879 10.711694109559774 16.296225622485153
Ni 13.212601384685039 13.777016647116726 9.019831142219466
Ni 8.560669386044413 11.32358908241169 11.210211628917088
Ni 12.82969015587306 12.579860417711137 15.27162963144044
Ni 14.56901787438205 10.749924360233466 14.589246086982277
Ni 10.012843402800499 10.361126205618872 12.945560456595429
Ni 14.008081635193129 10.344282209318246 12.21270105641407
Ni 9.243119756865472 13.454703273891377 10.368208723751597
Ni 11.333693759992727 12.827377200435613 7.6470823921916855
Ni 13.294733972678188 11.56721444099852 8.363077721479332
Ni 11.38655425697957 12.319138026685723 9.842318080814596
Ni 11.063415074848304 14.628476396132186 9.446711936001423
Ni 10.469146155294895 14.929391399711763 11.789409700872348
Ni 9.930709962113328 12.735610583900382 12.466911466632977
Ni 13.200411581803596 9.164734570623992 15.879441342703739
Ni 9.294388778457037 13.857550176759009 8.06309433170997
Ni 12.486529483207251 13.88968530062988 11.323864943666239
Ni 9.330582455667537 11.63882821711045 8.901869359756303
Ni 11.88379006626632 9.087804060563924 12.147496195510318
Ni 11.196689437466743 8.776235848606474 14.491887699614617
Ni 13.866673178268625 12.11644941098066 10.637653901538359
Ni 13.55435764218957 8.559995182060774 13.696463050401016
Ni 11.734975759026412 13.797126514376858 13.532544556402781
Ni 10.449124182312188 10.181977898240163 10.562536460767326
Ni 12.783684765621768 10.073244616929504 10.140026592511125
Ni 13.75589897818518 12.5749013488462 13.062319908829364
Ni 11.271516441921582 10.426603183204742 8.301501294358069
Ni 11.9036050341837 11.540168889245123 11.980193911847023
Ni 10.574297693858746 12.027206260763963 14.610600958542188
Ni 12.375193334836524 10.625379073051823 14.081400076557996
