33
Energy = -140.58664181 eV
Ni 9.293080917825574 10.513749090966144 9.679235074658637
Ni 11.035552776041019 10.63841202828451 7.976345814561656
Ni 9.637217759190348 8.443719636175592 8.424008472657974
Ni 11.01489062299609 7.042843043772629 9.766066438853768
Ni 9.231674296539897 12.410024904982768 8.232983623158514
Ni 9.606048056694076 8.687485736500863 11.230944290447214
Ni 11.459868032689174 11.700648330960702 10.197065075851135
Ni 12.276522450188228 12.461858846284837 5.882347598318137
Ni 8.48942691457259 7.100280752430293 10.019664781873333
Ni 8.535269106075189 10.318438334050793 7.368066453173671
Ni 7.73341263608962 9.516620930245857 13.31861518648828
Ni 11.17730983630084 10.3420367611968 12.230628942718937
Ni 11.518135617398746 12.885295593032957 7.982266211361637
Ni 11.89949245766526 8.075009342556912 11.857668643769223
Ni 9.771200203478916 10.714111728640274 14.05370725535292
Ni 10.147569912089555 11.581562958975727 6.10880788961227
Ni 6.677021836922874 11.34712291891422 11.533666250610036
Ni 7.115019480110889 11.00646887248184 9.184814493498498
Ni 10.416343905084554 13.72795817439288 9.877363840641175
Ni 7.323279423798963 9.20832985849314 10.87916298497325
Ni 8.864128193522582 10.91289421556168 11.993048705768489
Ni 10.279540541786055 9.144370898017362 6.2313095073800095
Ni 8.438939264719554 12.611089782783028 10.468376545360197
Ni 13.22106838786817 9.99803962814539 11.093033363512586
Ni 7.998183768227735 7.432954270459971 12.375226377602845
Ni 11.971494625371045 8.394536469461027 7.819794911079232
Ni 7.320659862893109 8.674480592561027 8.59434393640227
Ni 11.420899414510481 9.369491616412459 9.88020972424853
Ni 10.353344573861783 12.648779311731293 12.04449789387906
Ni 10.010054284360196 8.438925996901784 13.459477528997605
Ni 10.092391941357489 6.502268535136829 11.885966094850035
Ni 13.240764169224674 7.949015487107601 9.838602011134373
Ni 12.333632188375121 10.190429380713015 6.164931716263313
