38
Energy = -137.61582674 eV
Ni 14.749005612120522 13.940462177188657 18.775518131845324
Ni 19.203983703617375 17.128635147401454 16.497574241318418
Ni 16.221957423095258 15.86378313341822 14.739685154240947
Ni 17.90144396436384 15.066942144697315 16.238550079151004
Ni 14.420608068523517 16.621603153301475 16.049981346319065
Ni 19.62930941284028 19.35434208884346 12.833179186104742
Ni 17.512231446865723 20.907760466774004 15.352885850076458
Ni 23.048546359211247 14.690475129637303 20.10761416142496
Ni 7.202865229897136 22.012507773208693 16.871899668505716
Ni 21.058166634954098 20.769321586609166 13.80458446132649
Ni 20.87712380655842 16.896522688649032 18.018445832195983
Ni 16.434034943891902 21.174279805549656 23.837703248060006
Ni 16.2264142857357 12.17920476638227 18.985829096171884
Ni 15.59622795132069 14.809926009414346 16.79919990050439
Ni 17.961656517295143 19.96650545138648 0.2905573972904212
Ni 15.799121206202173 18.074311744380005 14.836130820653377
Ni 16.24894071474579 13.511511940842594 15.023035205328757
Ni 22.08343983337447 14.787300744624801 18.072228855948975
Ni 19.887889674123745 14.896634436576235 17.38243558300112
Ni 20.01125752944616 15.512720481397201 15.102462424723532
Ni 18.12298749840273 14.67861014995657 13.990036261158256
Ni 13.089718624908986 14.039245669967654 20.352037224767226
Ni 19.51769030362256 19.62285314598262 15.130601750754169
Ni 17.885923132415883 22.998141369267067 16.101197396721325
Ni 19.456845856934294 21.94197408579538 14.837784755647505
Ni 12.826409277033223 12.615331919598338 18.544727926379924
Ni 14.261208691205283 12.011910379306116 20.156115180716903
Ni 14.155648412836525 12.317925149520443 14.955708179071264
Ni 13.417975431398691 13.737437964064476 16.65118131448825
Ni 17.574875596138824 18.651920485392303 16.07392333014874
Ni 18.142380463912346 17.10562174286358 14.316163260082764
Ni 9.238596021084227 20.55650833258586 20.248948232758156
Ni 15.360865911471558 12.441986781286406 16.950940615926598
Ni 21.012473458062704 15.613827494812645 19.90427550904964
Ni 8.496377482405627 20.851503772044804 18.216579056686374
Ni 14.198813444917985 14.678323218086238 14.6458306747899
Ni 17.484640328283767 19.26030019541539 13.714623761230222
Ni 20.373906752438575 17.674430973116614 14.262379115418748
