35
Energy = -149.63245848 eV
Ni 10.730341518106085 10.731205999402837 9.061446927417578
Ni 8.31038907985142 10.735707878003756 12.138113966693204
Ni 10.738618243401492 10.733956338499667 12.762595367909183
Ni 11.93805233425858 8.625385267226473 12.134746395508413
Ni 10.169624235532483 7.2985826414684265 10.881311917281215
Ni 7.903959439428224 8.588182384923309 10.383675635289165
Ni 9.655361493452574 8.681573852652209 13.145545747880007
Ni 11.357646772380683 12.04796673745255 7.315516298436913
Ni 9.46123801317639 12.754320071168454 8.699104790693168
Ni 12.041445424939841 12.766870310406643 9.653241723836373
Ni 13.121582460970487 10.822929110681162 8.707484549218805
Ni 11.564566219623378 9.535188516334134 7.317328420307877
Ni 9.28550214539341 10.61197675720669 7.310362673400009
Ni 8.315364416667595 10.84554319508456 9.647926416551485
Ni 10.051382478346364 12.004501059703724 10.92774377962964
Ni 12.168669613638272 10.682438278222332 10.924897571983395
Ni 11.833480001751813 8.577329166684878 9.655762070614424
Ni 9.620500922695179 8.61606569302661 8.698171321444358
Ni 9.969321121222377 9.514094504258772 10.928723430584334
Ni 13.063838724723238 10.835597382970532 13.128534870253086
Ni 11.935306444727688 12.84503134455232 12.131355635246976
Ni 13.99144243370289 9.342115374324866 10.401227434666382
Ni 13.972969470826527 11.984301402367228 10.892473491712856
Ni 8.027992834504323 12.921304349742366 10.869897750367878
Ni 10.292912978561821 14.253222700238155 10.38466749572031
Ni 9.502893559669532 12.696379057899996 13.142999027115836
Ni 9.298712693836961 10.69536340963771 14.492439823014909
Ni 11.436234156759546 12.016495975850068 14.481181557540307
Ni 11.506761906178967 9.51425639490685 14.488390187543526
Ni 8.924712682477933 14.624151580944512 12.168216870267035
Ni 8.24953469990156 7.228073748412165 12.180430817664229
Ni 15.02799565638805 10.360081304450627 12.161492661501605
Ni 11.158367853459186 14.276784959269946 8.150337147902848
Ni 7.459950201096009 9.313961791660544 8.148075616032997
Ni 13.592611641220781 8.59834533749354 8.163864485898907
