36
Energy = -155.5445417 eV
Ni 7.0426711462203215 7.053373058241584 4.015928574928011
Ni 9.007746052477193 6.872730114313907 5.302721875095813
Ni 8.798382003305376 9.236815126074477 4.573962793606971
Ni 7.857938573026618 4.766665019399442 4.994219494419079
Ni 5.540693686913959 5.293951710729314 4.693274833134239
Ni 6.34770860244838 9.454648459364272 4.3597256288691035
Ni 10.998290600757437 6.9242105081815755 6.463111252605545
Ni 7.259663080069903 8.278033050903115 6.022263595130423
Ni 5.070151381856011 7.603687412929262 5.301099786303065
Ni 9.817335559427685 11.006891350372383 5.902812964445427
Ni 9.957853505544735 4.878166221937055 6.096945149051146
Ni 7.554080783371626 10.683004167527711 6.155159481239832
Ni 4.480981160298379 5.649057786964825 6.788430009672029
Ni 6.135209503793686 3.901963669749996 6.620680177192406
Ni 6.795988484987032 6.10211542633169 6.504628908121478
Ni 5.407705256108415 9.751312798890035 6.667909721165245
Ni 11.110419237295256 7.860830443059655 8.510469355671715
Ni 9.657071153096908 8.92718474444741 6.856674852535605
Ni 6.514963429692364 11.26199425299214 8.33959725524439
Ni 8.957154259570325 10.877245781668892 8.184674138518897
Ni 7.360596004928235 9.212154815008322 8.050685002967992
Ni 5.297010426767969 7.637050238697594 7.651914122389961
Ni 8.662040392789471 7.004359077197212 7.760961082620164
Ni 8.211992211927267 4.562986879822004 7.610626671949552
Ni 10.335947127639326 5.532131490974007 8.38250596303814
Ni 5.268196785102882 9.382663481439234 9.230802120254875
Ni 9.210637057266815 8.74205812327598 9.449965678386208
Ni 6.0891203976980615 5.365936998120418 8.66769456639997
Ni 7.373684497542134 9.941627852383897 10.295227803406016
Ni 6.947949827865614 7.455547317627241 9.441319743368703
Ni 4.644623666934165 7.020742972990286 9.80295232900783
Ni 8.334535790300247 5.584067531396551 9.777351057242104
Ni 10.197166764594934 6.846998066733699 10.40531406607586
Ni 5.886574242385914 8.358776206662485 11.34175676611263
Ni 8.178082543865896 7.6838630726614445 11.356335057705968
Ni 6.374846716264626 5.970166685064861 11.105310036257086
