30
Energy = -126.38076859 eV
Ni 13.447194634847401 11.671865893931697 9.44642331972379
Ni 12.07940257556494 9.302181728730126 6.34823548128138
Ni 12.515102248984848 11.402286318713823 7.294292889771586
Ni 11.126737738086558 11.541106573600409 9.237609568220305
Ni 10.318399563839854 11.101696497453405 11.335204507791492
Ni 12.198309740237143 12.514456038002699 11.242415267373419
Ni 11.868262472383309 11.188720320985157 13.145408869481967
Ni 10.324966416030044 10.327336637183702 7.4650686512963285
Ni 8.829067416849465 10.615999033825346 9.5538564350358
Ni 8.086526519869585 11.010110269966923 7.361936555580836
Ni 12.385227500338225 9.587313106988523 8.738233491890217
Ni 10.181266014807663 12.901790376922845 12.718625576161935
Ni 6.980361450777793 11.940897235028977 9.257595831584448
Ni 8.186120817727847 11.937317344928248 11.597899525336018
Ni 9.572871021885977 10.7967400521646 13.610360740194908
Ni 6.656775956701096 10.284726294567225 10.829676901347106
Ni 6.59644857770434 9.603940930734707 8.586847985050994
Ni 12.44714899213443 10.157134697826503 11.027320180705962
Ni 8.692171660398184 8.747307220723284 7.949045212601213
Ni 9.922030556093805 8.531138611138006 5.903044746218
Ni 10.946478917504148 7.869327999944258 7.884391022855242
Ni 7.079286624030109 7.121658184001267 8.281057625170947
Ni 10.933518381747783 9.050933221972663 12.493286067782588
Ni 9.15432595219833 8.445863247181126 13.84413119852184
Ni 10.505367366839572 8.881980262538448 10.0804868060043
Ni 8.551597361919422 9.54060804754314 11.919533331576707
Ni 7.787590403583396 8.300111832628867 10.14816086765791
Ni 9.040852251116092 6.637911520286351 6.976240296231417
Ni 9.353362326700616 6.8078528871725 9.312344442614187
Ni 9.449723545218303 7.396182619435768 11.627761611058109
