38
Energy = -165.37689219 eV
Ni 14.677059234237863 9.966350367113904 8.334048026127826
Ni 14.06297829885358 12.231855531227025 8.182867298717257
Ni 15.252703908117898 11.400756205385704 10.124730253043467
Ni 14.414059261369738 9.173408645059746 10.59672189946133
Ni 12.472449688815532 10.60696513143065 7.578244211075658
Ni 12.898412329759783 8.486755959587164 8.713108391610138
Ni 13.64008800027627 13.134326945235935 10.291032875477645
Ni 12.913573555128654 10.795319996922782 9.871132081886431
Ni 11.754432314441958 12.662250382947077 8.78789222643601
Ni 11.006954647264736 8.786042004438446 7.21908940885818
Ni 12.86397626343831 7.346555014773163 10.706448604196433
Ni 12.515562018684593 9.31269495287179 11.975350193205482
Ni 10.91642308712162 9.524436531630789 9.432038973010517
Ni 10.173797271997946 11.072365594239088 7.623962742059614
Ni 13.780106915218866 11.292847998346573 12.01064758756532
Ni 10.833428761421208 7.2774529198532845 9.248907111154377
Ni 10.387685781920645 13.953188118290441 10.4025409650064
Ni 10.76762995179721 7.717401409071899 11.62194493476115
Ni 9.412767363189463 13.228001809933486 8.364301162802073
Ni 10.316717293590786 10.07250594941444 11.701226153510328
Ni 11.768840483353923 12.299732599880839 11.313359790194257
Ni 11.553539246403414 11.188247753260484 13.327250479922263
Ni 7.9938918612246015 11.311762370356183 8.648453516679425
Ni 9.93135304411677 11.576386889302691 9.942425867399304
Ni 10.894308390999544 8.944992884187716 13.730572621927763
Ni 8.864137178728466 9.130291064840954 8.176582435976332
Ni 8.139849556673187 13.062847639358946 10.43580380733362
Ni 8.889739412798816 8.38696135778822 10.359790716253299
Ni 9.594346453235204 12.411534008076652 12.180749224852939
Ni 8.806372524159695 8.50669234304765 12.765507352233918
Ni 7.986693301039253 10.468756533390874 11.168102723548119
Ni 9.095802520087101 10.708152056913125 13.665738873372435
Ni 6.241466525717548 11.799716555774491 10.142529939148005
Ni 6.805657118375657 9.437756443521605 9.469733766543403
Ni 7.184712441409306 12.067865815337267 12.52998052194267
Ni 6.945263516519651 9.80840457381326 13.384946067861204
Ni 6.832509798192402 8.238538042583913 11.571291988662919
Ni 5.571242029964551 10.18660169565849 11.568143506501968
