35
Energy = -149.70469593 eV
Ni 9.431452493234948 7.273223153565147 9.954339534451114
Ni 7.78710637459047 9.070765834416173 8.658786517640255
Ni 9.057245266976476 9.83080698539043 13.088064593754597
Ni 7.152505526815648 7.041423438022398 9.702271533020891
Ni 5.608361074912322 10.23546647978054 8.506863862371723
Ni 6.6305469397434145 9.95434936331514 12.547824203867663
Ni 6.030336400310107 8.977420614740812 10.390324254698351
Ni 10.188565452155995 8.572114730181754 8.12045338003087
Ni 5.8247836724841795 11.25441484926803 10.69757185393684
Ni 7.178541454706314 10.589245031989146 6.841727445277567
Ni 12.630496653356406 7.848716569606756 12.05406236039867
Ni 8.713575468152202 8.942070334448937 6.333103015205465
Ni 7.532302313219679 11.432009586209572 9.055625856578377
Ni 10.382236875611342 11.328707102645417 11.909130412362142
Ni 9.368024460969218 10.808918827058575 7.730624841489407
Ni 8.126262912004119 11.165990953417056 11.287491116367876
Ni 8.110584449160369 8.680831842685832 11.268450545373375
Ni 11.155458880470524 14.029345712704481 9.094020988574647
Ni 8.567717188057637 6.90586460211178 7.725424073842435
Ni 10.973531150275216 13.52504572626996 11.359298620387648
Ni 9.695426356463816 12.270769758133095 9.680197186924552
Ni 11.07617634651368 9.836441359824013 6.3661282301416104
Ni 11.243140061643405 12.124454223024403 7.72095084819794
Ni 10.424597803557976 7.297854099582229 6.199590518208076
Ni 9.845660062726024 9.902704304941398 10.027677135011416
Ni 11.53994378027702 9.85987436161324 13.302298509855511
Ni 12.093825892270399 12.049130321717474 9.950847211679873
Ni 10.421961989370711 8.353043954626756 11.86613493751071
Ni 11.21538220843299 6.206083552710183 10.968388041434462
Ni 11.955583448415712 10.09519699599751 8.623854065535182
Ni 12.526086887342384 11.972206810410807 12.32369768623623
Ni 10.926556839728027 6.29577343629187 8.406023244045455
Ni 12.336642203345166 8.045084730520774 7.426747256793352
Ni 12.21506789257266 9.976551514847573 11.048239398593088
Ni 11.88653548506087 8.037076726613021 9.798404383550858
