32
Energy = -136.4775137 eV
Ni 12.274002112169645 10.850367043861784 13.131760750355093
Ni 11.181044115002702 7.065305446572057 11.98132697237216
Ni 12.831243188473813 8.937683785778736 11.811064412072769
Ni 10.787896672162418 8.952362418288688 13.29440001631176
Ni 10.219186494274561 11.18371601450631 14.198157581713348
Ni 12.239805037520014 11.090167629138248 10.834271659592053
Ni 10.176595668241264 6.97037878565495 9.756266607996421
Ni 12.411625491791717 7.463729699407277 7.834693881655972
Ni 12.845768071789232 9.36570669068297 9.272844812790929
Ni 10.928272584780393 12.752914820622033 12.415133489897654
Ni 12.41184815999755 9.692029857084867 6.961905340100636
Ni 12.588400298949214 7.1768624430888055 10.121132823994332
Ni 9.019210616317071 8.18242138844187 11.711352448297825
Ni 10.125920498436617 10.685943885787273 11.904742261342605
Ni 11.48281654417343 13.191284699257125 10.128526022440447
Ni 10.927430301028297 8.944650779796937 10.57803853286454
Ni 8.416309001831785 12.114726957746655 6.741857222395731
Ni 8.466288708784283 9.789619977462308 13.387233399118237
Ni 12.153507994208564 11.561130451201993 8.519402041513644
Ni 9.256008390987516 12.696144865489439 10.646713346331943
Ni 8.630907104119904 8.830252128102442 9.449057392020825
Ni 10.402551592832042 8.95967682329909 5.886491928069016
Ni 9.95653172084692 12.88003455175004 8.346850114593572
Ni 7.957005045091577 10.328708540416756 11.05193563937488
Ni 6.5185573340142176 10.965886747715945 12.765268217201408
Ni 8.608314073139946 9.854697588016055 7.330740498507816
Ni 8.508231674264994 12.18705595208991 12.862871857118598
Ni 10.505110032906583 11.052961641910196 6.90469454363947
Ni 10.608015817321576 8.805879750174697 8.149986652574894
Ni 10.057018312787337 10.82429955620029 9.400333120734297
Ni 6.963000967749873 12.434306464042391 11.010111386192632
Ni 7.88246654256143 11.549982784967229 8.951725195370443
