33
Energy = -139.72898701 eV
Ni 6.382185059314979 12.20384774413125 9.55331310131477
Ni 12.269298781058321 10.000114906905038 13.022404624973847
Ni 12.023467485343682 10.053626880211299 6.188540140149514
Ni 10.787501109380166 7.767180131908984 9.961433369266066
Ni 8.551083322183997 12.212131624296637 10.426952197425635
Ni 10.797716490756693 11.36340146769293 11.405481691253012
Ni 8.51589099995274 10.321986608151946 11.960062724902384
Ni 8.568910008013928 8.198732934725898 10.64507865649527
Ni 10.247017348371317 12.311573200121016 8.876689375408056
Ni 11.440381207191226 12.582178322810895 13.21864636578077
Ni 12.66970162627956 13.990290193257842 11.802333477493898
Ni 8.992579465463988 12.539668072945933 12.73686791225469
Ni 12.325614179710517 12.696480537441689 9.873815861164573
Ni 10.42501092929789 13.613368880420465 11.040591945402364
Ni 10.376272978620596 9.011295220713492 11.971487215744528
Ni 10.024323460031829 10.65775946913783 7.155947230668111
Ni 14.072372055537736 11.065836610820075 9.665133124542926
Ni 6.823174875697571 8.034628508600631 9.128887853690157
Ni 12.372812311036613 7.83947569247262 11.79096478728559
Ni 13.277799380077797 11.712124042817361 11.82837401158176
Ni 9.831996190505734 10.101857226201334 9.696587910027418
Ni 12.177494398115194 11.026102876463971 8.247953503622746
Ni 10.16139902015545 6.73215148158917 11.91178144938719
Ni 7.064359245337146 10.050020455243557 10.13156314633892
Ni 11.218465178632778 8.894678744580512 8.046770511399908
Ni 6.7795209068829 11.846847787609686 11.837230419405616
Ni 8.758900076546418 8.76802664462853 8.176206200129869
Ni 14.12556836302965 9.535908330154815 11.549776100525738
Ni 12.18752489472425 9.711450673449905 10.24015968611806
Ni 8.077077337384274 11.123432794216802 8.326370635199146
Ni 14.524036230452527 13.195523384285462 10.572708669469163
Ni 10.112560497037688 10.683334555744066 13.665207805244917
Ni 13.825596824083917 8.366574533578026 13.496783428644
