33
Energy = -141.12048121 eV
Ni 7.680394930448788 10.115799379974076 12.831553234942582
Ni 12.276908929040212 11.114014378034444 13.471713859240493
Ni 12.349685044213027 9.624665289569936 7.813600859821027
Ni 10.429011090606911 12.545816873585618 14.237130559862395
Ni 10.153955583674104 6.616740989694297 8.920550654101664
Ni 8.387546329621511 11.429230890741964 14.740033085502908
Ni 10.020420694122148 10.400731385763878 13.471412927050906
Ni 9.39558646329635 8.47892511540886 12.33764672194335
Ni 13.107858855498879 9.59324280245244 10.002656357080975
Ni 11.909211382171195 11.665269815124914 6.725790789709489
Ni 8.730847923965545 8.560566104606771 8.521758942345603
Ni 13.780660934859423 9.746593665861317 12.297630278369754
Ni 11.515195988310914 9.58916846780469 11.75500454661723
Ni 11.471952640923687 9.634247846104895 5.636813143641525
Ni 10.899047016453121 7.21647402632762 11.108523136905822
Ni 7.244674604409018 11.643862622799713 10.901558706992262
Ni 13.198704559564511 11.717742948647102 8.750013422665853
Ni 9.377594843944788 10.462100106272004 11.081942349940684
Ni 7.483458901064413 9.305637088033347 10.447672983156275
Ni 10.785628584961348 8.814320272252477 9.510918345536234
Ni 7.153797808301195 7.868846703913075 12.268044059999045
Ni 9.28533990773763 12.768619709048266 10.317733891523535
Ni 10.90800323441684 12.213023002657671 11.936807322077224
Ni 8.575510047755373 7.197376056488179 10.522136052240102
Ni 8.650764871665539 12.332516525201717 12.636832862844617
Ni 10.680191170792783 8.053057256851421 7.163349033507729
Ni 11.120924623996068 11.128765389226768 9.566881148884777
Ni 10.212257694097167 12.653618068124807 8.084583062873492
Ni 11.663161903245989 13.341682651081102 9.986772269469933
Ni 8.516800234380591 10.96034791107635 8.980997086504207
Ni 13.013861064834058 11.623223650204107 11.149360806179114
Ni 10.082499293106643 10.294431140020738 7.437712135266132
Ni 12.324321815280229 13.675120837805595 7.770644333963185
