36
Energy = -155.94657836 eV
Ni 6.461142138512194 10.35753071065671 10.62395511300106
Ni 10.012321359679866 7.891917548470373 11.217058972086036
Ni 8.060593926592125 6.749846013958889 11.695253351603208
Ni 8.500204139104564 9.309206831995603 9.561331982453446
Ni 9.93593556294127 5.414810148448238 10.780346296677294
Ni 10.046259428949512 6.123308468381338 13.01196385404344
Ni 12.394180047501992 10.283422748021795 12.555018290716502
Ni 8.792649354531898 6.842755594099479 9.384940685662947
Ni 11.51516493086107 12.2480262326224 9.069949487510259
Ni 10.071595804936804 8.436478705855945 8.041313865378664
Ni 12.374038130794922 8.938377199925878 8.619430845005843
Ni 11.935874419202808 6.317340992639862 11.655605344794923
Ni 9.165915636011283 11.46559221919868 8.667010001861541
Ni 11.027861242461896 10.514943012441039 7.381790822663393
Ni 13.234498860563171 11.050062509566454 7.971882444705452
Ni 11.443214538519666 8.121273502912945 13.162848539967596
Ni 11.941305599136705 12.587165924164694 6.725222487133638
Ni 7.899408528738717 9.129883844720027 11.900574496031528
Ni 7.1479238614748475 12.265994935266427 9.439903159891701
Ni 8.265996732389356 13.79489353487826 8.028727377814915
Ni 7.267063301793882 11.952442766835937 7.0424070531032985
Ni 10.724253001343353 10.01725513677376 9.935971854302505
Ni 10.53471678981347 14.02705286870148 7.947484779441704
Ni 12.929226592820275 10.73712544986653 10.292551559265432
Ni 11.26639079204163 6.978975753536266 9.463958583938389
Ni 8.68149942496491 10.04359124557518 6.8744961455208875
Ni 9.528497902727796 13.28075034838722 10.026508215676026
Ni 9.077987996420545 8.125069743382037 13.572337775949949
Ni 10.102515122179414 9.969184868526495 12.417898728817056
Ni 6.6766012011121845 10.068582595315652 8.319274996763232
Ni 11.015118208825369 11.89631475893957 11.377690174212162
Ni 12.360932619235008 8.543821233234837 10.975677569645603
Ni 6.70310830052199 7.988496031277212 10.011225146866574
Ni 9.575927811935708 12.296236771599172 6.552220075068651
Ni 8.684081358837988 11.25835017237865 11.0297922386661
Ni 7.7056335109054555 8.03355775582637 7.726015862142022
