36
Energy = -155.79949362 eV
Ni 11.061042229247121 9.150302269434182 13.718899441218745
Ni 12.797629116445092 10.016279930848905 12.420310739597854
Ni 12.149511970836663 7.656400995117233 12.120263194445714
Ni 7.857167073654176 7.356240388611408 10.746001678462873
Ni 9.751511502281287 8.438793027096656 12.005397769923722
Ni 10.436134158176788 6.720471848699334 10.439348895357224
Ni 11.41158776177338 11.438806271240486 13.768311487829171
Ni 9.176416612377137 10.67814907408277 13.164355755223738
Ni 8.916846052107404 6.633286434296684 8.56211755498297
Ni 7.0510588484160905 8.124301617975073 8.532320536831135
Ni 10.713640821154986 10.720967204440205 11.5086356141693
Ni 7.995606924068551 9.803352785270206 11.279506539651273
Ni 13.886471054940648 8.81601283189794 10.701066487259599
Ni 12.741554539430634 7.011598618989815 9.735837540709522
Ni 12.449735094430197 12.439267968402817 11.91837735272498
Ni 9.332846209982474 8.640462685959971 9.629896950790126
Ni 11.567071533050482 8.904430159581237 10.316859833087495
Ni 10.205749230715282 12.916721599828923 12.363644921543083
Ni 12.816135256428744 10.934682067514752 10.208080414933095
Ni 6.051358795123892 9.059224567609009 10.443145504905477
Ni 6.553906015177425 11.556558501949718 10.043659845474059
Ni 8.779075451418814 11.940511517983584 10.889840007822665
Ni 12.926268143713802 9.23277054684099 8.467384348012105
Ni 11.027954671457948 7.808087699799989 8.191041549120932
Ni 9.057972639630194 8.697106919466618 7.245745062647556
Ni 12.576271184215177 11.55791921668285 8.055052527726302
Ni 10.396802729239125 10.679126317710772 9.022037959605091
Ni 11.00726510257038 12.70707943006935 9.957072081052104
Ni 7.942134720638466 10.295936227821862 8.810852038821537
Ni 6.950796378461384 9.65326843234894 6.59476662274136
Ni 11.090789150061353 9.985314777541264 6.971540438300103
Ni 5.517024672931723 10.01364676935604 8.429101987382138
Ni 8.614769953889494 12.578593328136245 8.701138718649007
Ni 10.583651301944082 12.450311611865272 7.455120673449932
Ni 8.879773096462866 11.032279742764695 6.772194795070218
Ni 6.69767803310451 11.835455880243424 7.530307599359402
