35
Energy = -150.04754873 eV
Ni 5.833041030026289 12.590021387250713 10.33800006058724
Ni 7.128163232640315 11.055050507342301 9.114466028068597
Ni 10.979132134380189 11.216514549735844 8.187300598314843
Ni 11.572443047737885 9.538092105908449 13.856122278091792
Ni 7.526671798478188 11.581656486896057 6.816525888293872
Ni 7.962454125417109 9.082488274081069 10.10099900247887
Ni 8.951022641166535 12.221315850320687 12.404709386580128
Ni 11.283072886128334 6.862319683022327 10.689060808356965
Ni 7.22296337513014 10.923641303324963 11.470799203491895
Ni 10.68878478765516 12.759199120671374 10.269046697720402
Ni 13.195598017827823 10.058611076782583 12.23311685151584
Ni 9.762101768858937 11.09365295439369 6.224882253549178
Ni 11.0021317657827 9.11117069816443 7.143599248186873
Ni 9.064578471108383 12.422399056780433 8.321144989849145
Ni 13.216167214809223 8.597814236108945 10.363964739917403
Ni 6.818585556417487 13.254793846551134 8.326768861880197
Ni 9.157332068145868 7.589271181120611 11.328273553694368
Ni 11.037631602098541 8.983262068388509 11.6168810120495
Ni 10.40776121527429 7.540723371732791 13.292500294774765
Ni 14.212935418266968 10.750210054694842 10.169459525102466
Ni 9.04437906753529 9.747145728306041 12.543521445332443
Ni 9.467152562718558 10.791313424418783 10.343122674532085
Ni 12.922531877536882 12.346730364767362 11.468022295626271
Ni 12.711490811490696 7.6522528870610795 12.52693910222538
Ni 10.320059141824977 8.67261651248751 9.348614455455081
Ni 12.962497766918526 9.815257466271907 8.307210314868929
Ni 6.806891150044501 13.06309894534694 12.370215033551485
Ni 8.853647870939762 9.943687318659453 7.999540469064726
Ni 13.490083510261094 6.369087730994354 10.585405399170783
Ni 12.688321683650365 11.706430390043874 13.805071851779294
Ni 12.206163574053573 7.51623546670194 8.54291617182901
Ni 10.988494800310002 11.294919105009678 12.344058253987306
Ni 11.869779216776074 10.584436011857369 10.195718567545457
Ni 8.149095352718696 12.983880944142783 10.370519008657542
Ni 12.85951825602837 12.342021333554037 9.050689395820298
