39
Energy = -168.97334557 eV
Ni 12.917935194765668 14.28667571024234 7.7992244664971855
Ni 10.787532701419696 14.700661776920741 8.599433989988443
Ni 12.408934205079143 13.87069060824968 10.102164482616047
Ni 11.22902352048636 12.622447680617347 7.522893467579664
Ni 10.111179812659236 14.024652525223237 10.72477018551318
Ni 13.313090673047387 12.212597335261258 8.687573955531462
Ni 9.110940925605725 13.02193042539108 8.699901037271708
Ni 10.956095900398385 11.92682956743129 9.731781291938066
Ni 11.655806369045232 13.19809406788812 12.349155132164334
Ni 15.090665149935498 11.88731372600171 10.186141048256774
Ni 9.651481808540021 10.756916842082584 8.017845099439999
Ni 12.991694852738034 11.773231991333724 11.11681308350756
Ni 11.979665235789637 10.39062731505054 7.965638787572621
Ni 7.5946078195887985 11.211785995353312 9.047816318557645
Ni 9.376881443214543 13.33759228047838 12.859336398715348
Ni 8.684587097336564 12.178007542435052 10.934476702642364
Ni 14.166495442819869 10.066737670441794 9.024782549915047
Ni 10.626714790566075 11.129529110460693 11.970302546866462
Ni 9.54118217046104 9.895732756044668 10.312725783592311
Ni 10.722343047025833 11.901423024416273 14.160414821516081
Ni 5.932878863926036 9.607274427125773 9.470277356019341
Ni 12.86333244760449 8.235316031563482 8.248133735626663
Ni 7.248074756010821 10.381590964328769 11.22294666708202
Ni 14.151402429393958 7.972352680794246 10.135683541595844
Ni 8.518022277272676 11.127112086183864 13.153429401742738
Ni 12.138820528853259 9.668254173134281 10.279519064592368
Ni 10.527861913081663 8.571084698730255 8.588694007702657
Ni 8.673402697514206 8.771356083949025 12.417305064618375
Ni 12.474468564334767 10.266274339567435 12.995007386764499
Ni 14.386070580786104 9.957527437589267 11.428852722001041
Ni 10.265616030512495 9.638301747042146 13.977512703176554
Ni 8.133635865844925 8.891009905239127 8.774734231886582
Ni 6.414833371980422 9.069927298820366 12.89295789348581
Ni 13.153432870394308 8.116664842044422 12.201517144261087
Ni 11.845680212305982 7.302247442531576 10.23466547091828
Ni 10.924024913810314 8.580899279725179 12.002851280707636
Ni 9.435084452693468 7.529909384326058 10.449597102047665
Ni 7.119148972311035 8.08334475541598 10.781742350763794
Ni 7.999118301381349 9.387522653408965 14.58670709163843
