32
Energy = -137.51310736 eV
Ni 9.617973362897512 9.800805083586607 6.714940262142901
Ni 9.51051692795893 12.149195135114182 6.715590936446392
Ni 7.505969967995059 10.879303037572503 6.815995594704638
Ni 11.632400043073444 10.943418218851669 7.193361503583282
Ni 7.565812416097403 8.561238339983005 6.700968156005076
Ni 11.656704184792211 8.44878761411821 7.026194223239099
Ni 10.151300087029306 11.865296015194534 8.891993333474632
Ni 7.882192707258312 12.41233177243709 8.542653143577763
Ni 8.43879313552341 10.091493851087801 8.846834707259395
Ni 13.430698409936854 9.64336366461833 8.000593765442119
Ni 6.229754468113937 9.55511658252308 8.436905699185893
Ni 12.378987806538383 11.165745680913595 9.50389064772181
Ni 10.839261570402396 9.464186706510533 8.864321158525172
Ni 7.319683358572282 7.465158401784929 8.734966997663808
Ni 9.511873376804816 7.683905692018804 7.72462156794681
Ni 6.76924755397118 11.118460118986622 10.213000464193275
Ni 8.717329249396993 12.323869590997695 10.77368773879318
Ni 11.125729469833004 12.549735870584485 10.898749557163647
Ni 9.097283471565813 5.8511794914356505 9.127041837929564
Ni 9.18601267319573 8.12520216771287 10.03458428135164
Ni 7.015579076998285 8.83778780090034 10.666793005729906
Ni 12.743346525916364 8.921602027104562 10.0994315973195
Ni 11.236509071747763 7.122993442070211 9.33101592889797
Ni 7.576244876962714 6.481181717314811 10.882229182289933
Ni 9.886642673353855 10.301234628032812 10.871726337194232
Ni 8.013247265100214 10.42542600545805 12.175081257362837
Ni 11.972099359108247 10.457541229958945 11.822246550361589
Ni 9.974104675578397 11.877003736896462 12.772435066819066
Ni 9.925833895879258 6.212378851921542 11.280248962237463
Ni 8.65759598063363 8.057141646650944 12.29380410641665
Ni 11.04546128041606 8.240535407315464 11.54165763154086
Ni 10.097431331050196 9.630051600888779 13.19619446484369
