30
Energy = -127.33538078 eV
Ni 11.507008465780233 12.44337145351086 6.999575441511771
Ni 9.562304743004708 11.850255229004894 5.801424914785112
Ni 10.696429667435304 10.139335750798999 6.892569857718369
Ni 7.127354093730229 8.93605529055336 8.791596917955784
Ni 9.569428130326965 12.015951311815497 8.119087643543454
Ni 12.173758818365233 8.612401235920423 7.974764535562181
Ni 8.46086142985406 7.550239452698826 10.14504404148205
Ni 8.18259159421556 10.396273824259863 7.138445960855252
Ni 13.601865931826568 9.458525832544863 9.905563210779288
Ni 11.315269881744761 13.042248925557416 9.420706899293872
Ni 12.681166924505321 7.2444707405841555 10.112230047302058
Ni 10.536867085637404 7.1274390051039465 9.022701359767305
Ni 7.9376127270618 10.94078924997704 9.497729780701933
Ni 12.142463300685293 10.922312750804068 8.625696487172691
Ni 9.45573810021549 9.248178582092123 8.678420370404844
Ni 12.407693278863608 11.195599610890861 11.064928518864196
Ni 8.823121450012975 13.054320257685514 10.19188840379573
Ni 10.241177788228697 11.150608802338553 10.2149417068978
Ni 7.1910455023145925 9.535972298004152 11.289827002875882
Ni 11.355488568581748 9.105512952405988 10.023392809242955
Ni 10.623080740141075 7.159372282063685 11.392834547520373
Ni 9.472429063578439 9.242247850831454 11.367274512401071
Ni 10.705513953369081 12.795767944025313 11.764719744134739
Ni 12.375070833335513 8.886802996966207 12.033702569166943
Ni 6.626578746694072 11.920499840888324 11.055435664984495
Ni 8.663448233122386 11.489310778557543 11.983197791435897
Ni 8.439542011745868 7.501585916125543 12.511105306326483
Ni 10.47590427780507 8.36569046128895 13.421856964201291
Ni 10.787281460711133 10.622155549302331 12.755664208978166
Ni 8.513600078288773 9.69840070458183 13.455369661521082
