37
Energy = -160.11820904 eV
Ni 11.038571693430319 7.570629992314845 7.190521977548049
Ni 8.810922071710925 8.077163573018925 7.798548536244562
Ni 12.27956146705744 9.387712611607908 6.497926002565741
Ni 9.723310890783205 5.974732947731353 8.394496250034264
Ni 9.835840711743138 9.312607076424959 5.929204792273921
Ni 12.051645620405049 6.303900583277455 8.958464713909201
Ni 12.63468985856686 8.606883000507393 8.727409411921935
Ni 7.186922657685815 9.105626727063282 9.22317055173368
Ni 11.357379974094993 11.479984146549132 6.374206836489045
Ni 10.503116671769188 8.059959986171942 9.50867350056052
Ni 12.680974509175275 10.970915172489033 8.291519738907537
Ni 9.091713755506449 11.5824053455213 6.469864066004187
Ni 7.6415944893171135 9.788301076620261 6.851211149793568
Ni 10.439120770466433 5.96060915823066 10.655964679996123
Ni 8.355236704707545 7.176590371599914 9.995397897532893
Ni 12.203515924045504 7.68388336216667 10.981496839628038
Ni 10.450387963000292 9.976867971880184 8.012917878609548
Ni 13.16426749582132 9.92115144935162 10.622684320422621
Ni 8.376813826330245 11.090480110005918 8.611696647130392
Ni 10.423208733497692 12.43955216434914 8.429374492958237
Ni 9.691583000725633 7.794896634777688 11.87352962290001
Ni 11.19979357456219 10.96669219765754 10.047396756947974
Ni 9.160551801932597 9.719980453353141 10.456816736492328
Ni 11.206114546608498 9.572155802452047 11.972180475829406
Ni 7.399768730346801 8.719836643792 11.63078723828377
Ni 12.322552299729384 11.687567221096486 12.004608509556862
Ni 7.2134201820138575 10.991145733793898 10.689591984261684
Ni 8.683206615007899 12.852792549771237 10.087432033087564
Ni 11.01870585395997 13.308977162690143 10.67449402883725
Ni 9.736256740548264 11.69996944918011 11.80916876370436
Ni 9.031741078812763 9.783196427433662 13.035125248702341
Ni 10.894061665826458 11.03228335604456 13.815072750142743
Ni 6.9486143408535375 10.733965277725112 13.012558748480275
Ni 11.030930036868993 13.266531482817328 13.207013442022243
Ni 7.249235583737946 12.853074497309732 12.05531103414658
Ni 9.205864681426648 14.050807019870037 12.078765826059392
Ni 8.762521577308139 12.20716962359222 13.791926465426119
