30
Energy = -127.03107072 eV
Ni 8.267498993045484 8.55724679168316 6.653598189199727
Ni 8.551833931369298 10.873434636824797 6.883886940939115
Ni 10.798723136969222 11.556003245291329 7.146933054203959
Ni 10.568940193661765 9.14362213996963 7.199687402123967
Ni 6.407372808444039 9.964641414001827 7.002688900005589
Ni 9.167318432924892 7.2857611149660695 8.378792624907254
Ni 11.865712621425981 10.471220225958708 8.945005455632675
Ni 12.97618438565452 8.435566505106221 8.451839209459001
Ni 9.142407643529541 12.547250122611498 8.517664677240576
Ni 9.43420170283422 10.213285878398292 8.89155801078094
Ni 7.06943654662927 11.288497915020024 8.810872341068432
Ni 7.456907694349325 8.899801564735847 8.809874698830528
Ni 11.426075886130738 12.719492480314289 9.16826589118119
Ni 10.940912478422769 8.266446117359783 9.409358825329633
Ni 8.907097085992175 8.074448272014047 10.630456863626673
Ni 10.326819360918172 6.177693698398415 10.163524569222
Ni 12.649045799182835 6.898699197179056 10.370963849467707
Ni 7.643218346864065 12.927681723022486 10.352987910082856
Ni 9.812493858065846 12.234304840568957 10.778852494545719
Ni 6.049331079794253 11.426806492442747 10.981621934829649
Ni 12.144657828953232 11.535272330286368 11.178435960257776
Ni 12.807833716198129 9.21703037883807 10.721644855000648
Ni 7.983679499067599 10.196631855206087 10.789196906438892
Ni 10.45205499990091 9.990999832356358 11.017883568835314
Ni 9.158350765292282 9.385747159536066 12.760225632606733
Ni 10.9443289023024 7.744825617111499 11.864682467381666
Ni 8.106205074012012 11.714210617717102 12.418776500208654
Ni 10.41710899882798 11.470906719167072 12.910624646948607
Ni 11.902853421368242 9.651741438491847 12.89275377242516
Ni 13.212714390655366 7.722049258209351 12.48866143000593
