32
Energy = -135.58212409 eV
Ni 12.124633513688218 9.652716646728427 7.241870497287965
Ni 12.575197900904287 7.8318481974602365 8.863105761935849
Ni 9.87914453929615 10.141401285840058 6.492296566796843
Ni 10.368565409202517 8.631875415630443 8.354871897900136
Ni 12.248577987438722 9.984745876833848 9.59914007048313
Ni 8.777070890714095 12.196237114571945 7.529593356079509
Ni 12.915598940780432 8.45724946295219 11.157889230855718
Ni 8.491693652951803 9.977667207500524 8.32435598168491
Ni 10.776528916677846 7.551401199584002 10.42264855912175
Ni 10.706720203564128 11.202459145374725 8.329691795743631
Ni 8.447981431476268 8.165044942974326 9.891198517890645
Ni 14.094897809825628 10.836955651247854 10.54371681781105
Ni 10.94248880477477 8.734020345152603 12.421988800905147
Ni 12.68813432436731 12.379869767652146 9.196202752597019
Ni 7.019969623695002 10.186846028389184 10.086574526995271
Ni 9.078041158163904 7.466054872682564 12.143986627231635
Ni 9.944540525506273 9.794806236762572 10.457577248853234
Ni 8.708594676446676 11.809982140932462 9.884364955846221
Ni 9.359255109366975 9.408427992829028 14.006695590123833
Ni 12.319615412050792 10.585687257084018 12.083357916586426
Ni 13.199706741384633 12.745073561068644 11.552608998759135
Ni 8.136885100905404 9.535349695331314 11.947671955845326
Ni 10.324331689067584 13.435535166523987 8.967904419789601
Ni 9.794740621593398 11.107236435541845 12.48038650366942
Ni 10.346671533881537 11.734689860525036 14.665025176663942
Ni 11.718000019241854 9.982660567596808 14.226423438887004
Ni 11.6464369223297 14.288259578092582 10.826758926878458
Ni 10.980671862310631 11.977638667046213 10.657885184688297
Ni 12.767076586172623 14.458733621337498 13.005696088277887
Ni 12.625238395231174 12.176949144086263 13.875630077590477
Ni 10.883174036070336 13.144981474453312 12.821001945158832
Ni 9.327925497056718 13.635705276349738 11.159989647198405
