37
Energy = -160.57636011 eV
Ni 10.327535671643288 11.589431190768128 14.990230054410995
Ni 12.255534281013915 12.602215525223144 14.109644746712982
Ni 10.111675723341786 13.068741827553499 13.093741588183242
Ni 12.305602816218487 10.314275487860886 14.810265893692016
Ni 8.734080025907593 11.07714116374531 13.322199354843043
Ni 10.212241113793105 9.268283765858854 14.16572210536666
Ni 8.20383412348234 12.722693836608006 11.661631541286472
Ni 12.184951701820133 14.665301786032005 10.260694951116577
Ni 12.194302838301649 12.822669696011186 11.720778431535607
Ni 10.98953018575345 10.929405479800748 12.739282981114718
Ni 10.088580858513362 14.192674609012531 11.071349872280283
Ni 13.396813401874414 10.977238166422095 12.802984960764775
Ni 8.25532225131268 10.36740728779509 11.111855004052028
Ni 12.358176214054936 8.894836218960936 12.943804233483846
Ni 12.78958225810098 12.594633286300624 9.44056379406066
Ni 8.274899697158531 8.792047983231235 12.863153391389073
Ni 8.381861385299175 13.660242794289655 9.51830968262563
Ni 10.112440452101508 11.854202852590538 10.591812835713194
Ni 10.65287612267014 13.390489170900237 8.861197452958297
Ni 10.339470628026369 8.655666619565206 11.784147911628466
Ni 8.992499386721471 11.629119383194427 8.49855221266285
Ni 7.010622009546685 11.772557235443323 9.740414898480905
Ni 12.0724209348249 10.483784222386832 10.67358930588723
Ni 14.333801872305571 11.602817081714885 10.820312847455035
Ni 13.892994996770161 9.200814946757081 11.084800670861725
Ni 8.297656356003209 8.065254938145033 10.58773869916659
Ni 12.30460410470304 7.3491326304176425 11.239470410857356
Ni 13.636005715516216 10.423216002705002 8.86573256220027
Ni 11.329560159201813 11.116677295177775 8.382588015815793
Ni 7.736075522375044 9.662898522597462 8.811998100575714
Ni 10.011493408538472 9.514024250809326 9.587246077153358
Ni 12.281059168994878 8.535581017312637 9.255601674756473
Ni 10.39088704420386 7.160793451182132 9.869049579531026
Ni 8.70107500536026 7.615121952084828 8.28513540056873
Ni 12.208627031688193 9.450472098841136 7.101429251420757
Ni 9.739150253035524 9.60282174556984 7.3039556905997145
Ni 10.930235618125307 7.566200596329732 7.592283782789333
