39
Energy = -169.03654053 eV
Ni 10.810472755966806 8.49237074030155 13.929296444161578
Ni 9.007551191664252 8.435231144836097 12.218439849336772
Ni 7.620966216276953 8.94470056112054 10.24617915509169
Ni 10.616182337399021 9.996620471687944 15.777012284202803
Ni 9.151950361531538 10.114379525545377 13.980295468428961
Ni 11.23784601077536 7.560279929389985 11.799685096874109
Ni 7.7227150800782365 10.475528485999552 12.158941448056733
Ni 9.937286958969462 8.368004376248313 9.964063173283622
Ni 12.878919700482685 8.913843863841683 12.760718880838978
Ni 12.210240973611803 7.65473237890811 9.628961701338966
Ni 13.512151378916565 7.060862402327266 11.48405243857127
Ni 6.570873434682287 9.83312401529382 8.312506030930608
Ni 11.84831870127842 10.685848281657925 13.91395411909514
Ni 10.748559512567592 9.947366405401173 11.913010313414613
Ni 9.156108439129735 10.695951379887518 10.3014944456322
Ni 8.851443038312638 9.537368278674405 8.138323645043025
Ni 6.408348255185252 11.012798790187308 10.29949887274682
Ni 10.25575841533243 12.104287631847408 14.794398732726075
Ni 9.491245118586964 11.962064836496486 12.60412414876371
Ni 11.045160654618059 8.648673984498839 7.8396838675379605
Ni 10.317191141070424 10.199079990411873 6.288721800392268
Ni 11.598711842108791 10.111243383280936 9.661798953976998
Ni 13.693679118971964 9.208522005478692 10.541698065699196
Ni 12.41061555998977 9.161568001970707 6.0148658889975
Ni 8.033254352246116 12.676108090969008 10.927167652330812
Ni 7.873844821930169 11.791216250136202 8.64423893346306
Ni 12.873947787690364 11.098288331242445 11.760164331351644
Ni 10.176061306233105 11.51574500786889 8.196652129351286
Ni 11.670255607503076 12.84786244329309 12.927245143106976
Ni 10.970477636157222 12.201460509140984 10.632626229781666
Ni 12.299570735567661 11.065821055096393 7.349948467386515
Ni 13.382676916463305 9.198109391190023 8.195825473914082
Ni 9.908754041158314 14.07079212081843 11.623374027871172
Ni 9.527367796713147 13.477434827131743 9.273797854641613
Ni 13.541332122134381 11.365935517811641 9.426294963490925
Ni 11.951346638112149 12.995717321165124 8.642632551637478
Ni 13.002759662604177 13.314240287143924 10.83979896203435
Ni 12.02398255653157 15.002934719579793 12.190785351866422
Ni 11.377260666235253 14.842468350641541 9.970642790581493
