39
Energy = -169.6931716 eV
Ni 8.517577621006991 7.305552982900493 6.490024266441346
Ni 10.951877431730539 8.247425956144543 6.6319462419345845
Ni 8.914549251701873 9.54956608314591 6.766309442414343
Ni 6.845386793033564 8.679483999213783 7.509566916141152
Ni 10.119533691612018 5.964378707998108 7.5478151657235575
Ni 9.431585038528295 12.498856598175335 8.112424147812018
Ni 10.865869189334227 10.759617400249914 6.896565821526382
Ni 9.645124178339511 8.036921664121273 8.485789404918394
Ni 7.97465728664298 6.5414594485259565 8.754684894365264
Ni 11.996568050849564 7.022430405443994 8.48648015202494
Ni 7.604067213054044 10.894514801666046 8.13335462864095
Ni 11.145798804123213 13.95401286523458 9.220897903333016
Ni 11.75178809725534 11.706722049388416 8.888787549889704
Ni 5.822344148218846 10.22961253219359 9.46716450948655
Ni 8.910416948347814 14.296259032855577 9.735175528135017
Ni 10.14440236929448 6.258478694103384 9.963401486774899
Ni 7.1837210873884825 12.871278680297806 9.271619010927951
Ni 9.819115727189594 10.293003028693615 8.985724858859466
Ni 12.330900588648328 9.456194228006222 8.220369557800707
Ni 7.689519568325149 8.863496947369606 9.59269195591216
Ni 11.265880911687752 8.577964956330112 10.100592329364563
Ni 13.650212682413915 8.20189174384844 9.771915768793006
Ni 9.867054340176546 12.214836470157184 10.409822118273658
Ni 8.346459675196181 7.2399499957392806 11.119381454230364
Ni 12.34400249220292 6.57970450715539 10.871462220960408
Ni 7.693902199926258 11.11291127114252 10.590213184544991
Ni 13.427954014937308 10.528739249579207 10.109573142762624
Ni 10.501775067406966 14.20998119068685 11.501227199217817
Ni 12.362472023568834 12.757385909498534 10.927556891822396
Ni 6.915442894612205 9.237457168931424 11.750034482579716
Ni 9.360458056725877 9.489172306299784 11.215126675016647
Ni 8.291666794459502 13.109241086300733 11.790795345125298
Ni 11.459836406123493 10.657723834644997 11.20520203687351
Ni 10.530764061645218 7.4949043579140495 12.09307994690921
Ni 12.64853902132137 8.756846212625426 11.965168500757864
Ni 8.471490762988461 10.859533520071395 12.86730232163735
Ni 8.630051049726175 8.458431547962832 13.202526045753949
Ni 10.418068307690337 12.153111314683782 12.695223953887565
Ni 10.666631973135972 9.716226767692634 13.191276939775939
