35
Energy = -150.53851368 eV
Ni 10.391812635456072 7.115018002521498 8.202508683432198
Ni 7.101359074742457 8.94702206679434 10.801464956997672
Ni 12.186844407435574 7.263411443482802 11.96875579032807
Ni 10.672427974928159 10.70716303644682 10.173541802200633
Ni 12.089180775876947 11.07153289580619 7.3901029838669166
Ni 11.821662230842785 8.200448934960301 9.81401248372382
Ni 9.601651373468828 8.76279855255265 10.824344385644693
Ni 12.322784775981185 9.776335578718118 5.4978792122533955
Ni 6.222566037358508 10.973922562896748 10.137915164203651
Ni 10.32497305174849 10.304908961508412 12.694980917534131
Ni 12.268800524911727 9.560431528622619 11.676939903167005
Ni 7.988353347221939 10.925973025852757 7.036513678370277
Ni 10.774820655544834 8.188046295326542 6.119177072122728
Ni 9.825074130678555 12.809795672374435 10.327895638487764
Ni 12.62391208304745 8.741556539873011 7.629291385749433
Ni 8.607939716324736 8.60301839020986 7.107907251899218
Ni 7.801654202355707 12.33873305860363 9.074842421117589
Ni 10.088683247284123 10.439869304795664 6.098678347530992
Ni 8.168369863332645 7.021652767788868 11.617655006212624
Ni 10.281631500729315 6.5648093205673845 10.566017490391825
Ni 8.459583849808755 11.119949700134246 11.322332056684797
Ni 10.522985641469377 9.425029288955187 8.186407896248525
Ni 8.379535580545918 11.258134913786472 13.655238491307822
Ni 5.908840260659188 11.477543985968412 7.906066938729813
Ni 10.103478401018585 7.669816859755591 12.826037745191945
Ni 11.831606461639954 8.81648548461115 13.815081480325306
Ni 8.484886803691207 10.128173897552198 9.16329243155436
Ni 9.939660405538957 11.8671702323301 8.103134889036793
Ni 6.576230910194021 9.231360409918441 8.37578237615875
Ni 11.934713970627428 12.535995605121375 9.22205723597797
Ni 8.308118678220504 7.605798046043788 9.234139544124051
Ni 12.904770816844454 10.350776085204572 9.53287580625532
Ni 6.448123300882649 10.594353129807217 12.445911884624422
Ni 12.033239927981166 11.898080380792402 11.534730661698637
Ni 8.24839678374765 9.098077430962997 12.876641220832072
