39
Energy = -170.16740029 eV
Ni 8.415970981500159 12.641382931249707 12.504482123785825
Ni 7.7261057858654665 10.32147020449968 12.875260960163697
Ni 7.9809050554753345 13.362149661776826 10.269492372102599
Ni 6.679195788969685 11.58661718656597 11.168216322537942
Ni 10.449679894902381 13.384912998337995 10.448820601384222
Ni 9.959551939386989 10.936665342018314 13.122514920204502
Ni 5.678895313182254 9.4840448517462 11.859860748537974
Ni 9.203282902671809 12.932240022583459 8.30659687296229
Ni 7.845257551197972 9.409493551256979 10.695766255316917
Ni 11.484662756151922 11.396492131651858 11.44957495867086
Ni 7.581472597403619 11.331661804865927 8.97420536362832
Ni 7.210679241082306 8.00722339369372 12.70149950936314
Ni 9.156616203466603 11.375931214056976 10.752454845004495
Ni 5.748714385297069 9.9568149269089 9.61896492195794
Ni 11.54046195813109 13.655897126171423 8.314481465102586
Ni 12.879130287267648 12.463131731399743 9.922205746191196
Ni 11.877624339810115 9.45271938287441 12.918921165581244
Ni 10.255785656738803 9.312922594731322 11.299630242281037
Ni 9.413902036691962 8.636191169801338 13.358274036432912
Ni 10.973048464216152 7.203064936818501 12.380858188497085
Ni 9.591870800559834 9.490178519202498 8.968877409778967
Ni 6.646017696849396 7.604364223232116 10.187905424722242
Ni 7.390275347980017 9.05880527200819 8.240985699799124
Ni 8.828501882183112 7.261316108065964 11.256797996922657
Ni 10.878834462202814 11.527915994556308 9.0383573421494
Ni 13.520123792888015 10.345376371020661 11.140841681870686
Ni 10.82403579123683 7.356271187704758 10.022075719325906
Ni 10.688661545291671 12.302709269810356 6.557414841465036
Ni 12.785868250965578 11.704478645858588 7.605404813167912
Ni 12.81264324169416 8.045987981824709 11.193073779180578
Ni 8.886030229959891 10.80450075451298 7.125046520959362
Ni 12.044117953667293 9.502818350056025 9.49356380673529
Ni 8.754991282175974 7.271877123396733 8.880382994608837
Ni 14.382663609149379 10.862418380193736 9.024355937593942
Ni 10.975124327425817 7.88444376022242 7.76161098015566
Ni 11.144647954372655 10.09743970154071 7.134276064026713
Ni 14.514688573047204 8.669017126513307 9.692801521524908
Ni 12.904442203733328 7.214046859765261 8.909293630520434
Ni 13.3117404373349 9.233978006548647 7.599381922696546
