31
Energy = -130.46784131 eV
Ni 10.447761689062732 8.387092809485981 14.96213030045825
Ni 8.791039437169351 10.005192099113192 14.552894884318437
Ni 11.993145468963895 8.281663491899533 13.155056315996166
Ni 11.011092837409539 10.338292269400602 13.83977880572349
Ni 13.466210319537783 8.154896503809862 11.294262843405841
Ni 11.581312372147691 12.409397737721855 12.768490211541968
Ni 7.222192581165745 11.56649837905122 13.997939594447109
Ni 9.674540870056227 8.664049687998643 12.756904342365326
Ni 12.813687857355278 10.31461060285016 12.272668464495693
Ni 11.142016050247973 8.175606429049457 10.940331568263828
Ni 12.532687426062584 7.6993498650818255 9.058365869856447
Ni 12.473569002507475 12.074913196827794 10.667393328004993
Ni 9.245614701044094 11.794719046235697 12.928652442778786
Ni 7.80135901840303 10.017726784246953 12.384471193233463
Ni 12.570588652823925 9.860902235797585 9.94946988542777
Ni 8.954603408605971 9.046836335020826 10.506643169871053
Ni 10.15943142247449 12.874686802571992 10.939773542368204
Ni 10.609866828999738 10.5257893285254 11.401100124466957
Ni 8.429088276848447 11.357100629057124 10.580118020975611
Ni 10.401983676267802 8.713541335831996 8.688900318961654
Ni 13.047633372732376 11.732153087355622 8.42326705585099
Ni 11.535654923392398 7.587142561429096 7.000100574274977
Ni 11.400942520982072 13.369599040134643 8.807642025564641
Ni 12.26064276841173 9.67287102783715 7.626471681523034
Ni 10.754682484434655 11.088248211394006 8.945035947735102
Ni 9.069237620877688 12.758315910500189 8.798697124823963
Ni 13.545633679051278 13.844752509600255 9.533653929683343
Ni 8.61848509155279 10.326448373020753 8.497557133525818
Ni 9.92870199384231 14.861336486536976 9.75241540972551
Ni 12.05952485901715 15.609866353808197 9.227220158056738
Ni 11.928404797835226 14.357736878088357 11.213929741557958
