34
Energy = -145.19796239 eV
Ni 13.020767940789234 11.662816455495472 8.865151421879391
Ni 7.538864933189234 9.75627139648652 12.19456733656515
Ni 10.012121999613585 9.086488947416193 8.517689277934117
Ni 11.716670217659013 14.70924880202737 10.987111787057108
Ni 13.333760357817502 10.022875580136859 10.586866853057911
Ni 9.629743253532702 13.609143679790929 11.021585595742787
Ni 12.30038415550501 12.173248441713758 11.209536164854242
Ni 13.435468695138429 13.865729222118146 12.379372822572826
Ni 11.965293883899045 6.095639214995419 10.149990257919459
Ni 12.345636776726858 9.499793827535282 8.280372626517487
Ni 10.766407792404724 11.292511014280203 7.791048962010085
Ni 7.6498395495191565 12.123055057077819 11.393680968648834
Ni 9.709058290534522 11.372115515283708 11.89551138283343
Ni 8.127883239204527 11.270597104452566 13.830423463068659
Ni 9.713858481196318 7.056885016385745 9.80299156340058
Ni 13.536204850890813 13.69805454379423 9.955631146051738
Ni 9.584640881333904 8.994914474116145 11.176736363854545
Ni 7.881731217759853 10.11028502678098 9.943463193809578
Ni 7.6403546456083475 7.78325974106003 10.875674618957214
Ni 14.613080625501116 9.865920778742053 8.664125477361653
Ni 11.613554614597378 9.999303407581927 12.284577471147616
Ni 13.618790086654238 7.814896573421732 9.331543241869774
Ni 11.182774338384876 13.447914437331997 12.899459487129471
Ni 11.518012565050496 7.279714806875344 8.2663745706186
Ni 8.891680301600212 13.308292239413072 13.216146898159986
Ni 7.906828462142059 8.193224085570856 8.620909879515173
Ni 8.434267607433581 10.512551597849178 7.697116842548485
Ni 11.013337866737514 10.643883708411797 10.005440847326305
Ni 11.241588948006656 13.149443729518982 9.274210404425084
Ni 11.665204349581689 8.341751864329167 10.459357203577069
Ni 10.557583895710781 11.477498806887455 14.060000833713266
Ni 9.526576229765478 9.439916830369683 13.467958727788059
Ni 12.819999097695636 11.785888633730305 13.424997572286408
Ni 9.128050512912965 12.001354546671603 9.416203987246844
