32
Energy = -135.6817417 eV
Ni 15.023795286639208 10.495934869937942 10.469443307723491
Ni 14.2365927441363 12.338283929276944 9.291814555876053
Ni 13.222576250633074 9.189336862437406 11.271812800488965
Ni 12.34988703952552 13.591209750361458 9.937286672509146
Ni 11.724048808623726 7.600960161350038 12.008618468634976
Ni 13.048465276583014 11.564201233463319 11.180932334409503
Ni 13.085922943840854 10.246264319837497 9.153059538639008
Ni 9.88333336909851 6.065341398722485 12.31033373435841
Ni 12.317698475293524 12.14109651335809 7.911206101819895
Ni 11.08057951537147 10.137800483789292 11.739566792980945
Ni 11.37047154512406 8.715233034614036 9.801227434978282
Ni 10.539441721709693 6.552041666195922 10.120710457671239
Ni 11.17831451701978 12.829367889555465 11.879277511884514
Ni 11.051598388162658 11.603702011722453 9.803553050590722
Ni 9.441047948006148 13.473587782012835 13.233704468506733
Ni 10.345605111022254 8.877898445127679 13.557650338537393
Ni 11.247191017226083 14.225789342278867 7.992580680788002
Ni 10.171365464687527 11.318020584896797 13.529755363950722
Ni 10.972012859837612 10.094850959850783 7.983557528876002
Ni 9.204811433714449 10.127913670119908 10.006543107970295
Ni 9.919625534600376 12.306622927757761 7.807485856125411
Ni 8.974018622434036 8.108650452806032 8.9491487632681
Ni 8.084111912249721 12.020063099272072 9.261817391865039
Ni 9.546917257584031 8.153564970265514 11.445520148841155
Ni 9.901497054577503 13.634989840928267 9.8656786903821
Ni 8.564579841436462 9.99453152183608 12.445567143093534
Ni 8.984494503596638 12.08765117367096 11.45420220781775
Ni 8.69645330006912 10.278564756644794 7.651441161582063
Ni 6.9486492159458315 9.814295263667962 9.00833118274352
Ni 8.220550290464853 6.454954565246665 10.566118169824056
Ni 7.321490162561569 8.589768486299828 10.87834112417743
Ni 6.918413840623673 10.943069285094861 11.059275161485456
