30
Energy = -127.09174791 eV
Ni 10.888377217026049 11.069563621586596 5.122549153964975
Ni 10.458154955991075 12.270601949605368 7.098139930454071
Ni 8.914934627994054 10.703671719622918 6.314868751048731
Ni 10.847691081093902 9.214635713272905 6.560753731926472
Ni 8.556027122232045 8.57757424392927 7.1437488948202
Ni 12.404396023920672 10.904467270868007 6.916722189136107
Ni 8.511057396951719 6.368665605571597 7.831493574460162
Ni 8.070918788966265 12.442836275333507 7.624502690836782
Ni 10.354383820656798 7.782237837390978 8.352760708629827
Ni 7.747400029153473 10.307660002624726 8.531049001302499
Ni 10.089559174087555 10.35162248098933 8.488365769640465
Ni 12.157564171459681 9.2737100905272 8.690071827320969
Ni 9.637441898137004 12.645129230118457 9.292337885179819
Ni 7.526376327346867 7.995316594394752 9.248563364680896
Ni 9.282259175833213 6.499255068435248 10.008261731794807
Ni 11.89256819917993 11.751226744005361 9.031316371483415
Ni 9.404717510127277 8.880892754667018 10.33339491899974
Ni 7.351209717172807 12.140838849237648 9.899137326003293
Ni 11.438362992399112 7.7279588626756 10.486166482351825
Ni 11.427634569781626 10.169988399281529 10.7779132373182
Ni 7.9442803151375045 7.642383658149517 11.661933731338877
Ni 11.105268883327723 12.498903020772529 11.137529998972987
Ni 10.084411436367946 6.453590571711013 12.14899558386456
Ni 9.149014630998213 11.174140701428062 11.02724560191922
Ni 7.210803711488785 9.81390130135574 10.792426159202616
Ni 10.616398898876504 8.666227220019652 12.51053640205595
Ni 10.584955843493411 10.995809282423252 12.86227728685538
Ni 8.514355196460391 9.673164151812829 12.801801491933398
Ni 8.953747592647975 7.593611372546461 13.834728045593696
Ni 10.009131272233928 9.543817986185678 14.603810737453879
