31
Energy = -132.13890684 eV
Ni 11.324994852533509 7.88589056464549 12.276960382972504
Ni 11.261679257655432 9.46138473892239 14.203186253787466
Ni 8.944573818283589 10.477844918759997 7.042380801890248
Ni 8.841427520517588 12.003560375632043 8.809271529756012
Ni 12.66218146757771 13.833204994399834 10.474439459215157
Ni 10.788963327529281 14.19650060137155 13.226726059288346
Ni 10.997083335386996 9.586851370961691 7.778248691287418
Ni 12.795069209419832 10.82753583733114 6.889449417392705
Ni 10.64348292084294 14.985275709531006 11.033065834913508
Ni 9.168594490620366 10.339724413276569 13.331252809666415
Ni 13.17299581166687 9.154058699486544 11.300360108578705
Ni 9.216590103011944 8.8100626690371 11.456737340863217
Ni 13.098739418859237 10.667836849007333 13.146598561647876
Ni 10.761303752922569 11.938225926140783 7.328025276250894
Ni 10.69508341591968 13.532294570157985 9.133775012646364
Ni 12.805650303703409 12.995506407034364 12.752275758229946
Ni 9.06559777343259 9.596690624777658 9.230984863003945
Ni 13.011102029166558 9.9670095470829 9.078449641064314
Ni 9.01236882229602 12.6649384801501 12.897774364808068
Ni 11.165091484414498 8.714288777207386 10.039876414596257
Ni 11.054885059063476 11.7904457823442 13.801176545564264
Ni 12.760141895340524 12.345666229096793 8.65231468553378
Ni 8.813783698782359 13.50618675901094 10.635631727227903
Ni 8.883845745343429 11.140675210034367 11.063792448434121
Ni 13.04460155067358 11.515023936159396 10.906015714502669
Ni 10.864171629453802 12.647244243495992 11.447674108451945
Ni 10.921985531192037 11.118158194480056 9.558931499227178
Ni 11.091558910647878 10.268997722919586 11.87359552221045
Ni 13.249097977401314 8.357689354958858 13.56025882513155
Ni 9.453153874172305 8.032088433402812 13.700189216922935
Ni 11.477621378124148 7.155847857392591 14.522061225908415
