34
Energy = -145.14238799 eV
Ni 14.429721867682954 6.884594592063108 11.226901840882364
Ni 8.362475194087608 14.687562646570365 11.218409045591901
Ni 8.802908517013824 9.946580410753965 12.384534889579582
Ni 13.006061573111177 13.849373673712522 14.779989284605204
Ni 11.186347267884267 13.019393249692202 12.167711110467014
Ni 12.44659299234932 7.657538325639132 10.27447694292965
Ni 10.759941725926106 10.83250225703973 13.271858619040852
Ni 14.300890814298292 12.749051503209886 13.150139571315831
Ni 8.51097132653569 12.270869241843055 11.802471176675866
Ni 12.824280666366814 14.62796706910195 12.549117975990395
Ni 10.031435216734403 15.527412567539894 9.538687591984374
Ni 8.813076322505372 11.757222037241156 14.041223521887181
Ni 12.543209227514655 9.296092129517264 13.54788834711864
Ni 13.813054264752372 13.142333359911621 10.926759935958865
Ni 14.557698832649306 8.038725198429388 13.26366267074358
Ni 13.97078993999099 11.148648840660291 9.578440963135746
Ni 9.838349560334686 13.323881890572125 10.141997086702245
Ni 11.002887172599529 8.900986954660198 11.788653711124669
Ni 12.778165115531753 11.15944260596806 11.893378354927304
Ni 12.510601890942514 7.192291721047716 12.535338415284361
Ni 12.04955298324687 9.877065030516178 9.879468746833155
Ni 12.75275239826475 11.514332599792892 14.346589018383092
Ni 10.58485940108421 15.332710239559262 11.803117597833264
Ni 11.182170609469138 13.8856267304465 8.229226928848242
Ni 11.871746634373586 12.232278225180089 9.775227547344919
Ni 12.162789364712001 14.615309835522588 10.204879324358021
Ni 10.272190970409303 11.024433270678479 10.92335099201772
Ni 14.631996828584011 10.34988973706869 13.460243494904326
Ni 11.139407664722784 15.1707885952014 14.098389031976927
Ni 15.255071915997707 11.296630154334432 11.486489855608808
Ni 10.880161034367767 12.897765899008593 14.586782250257679
Ni 13.940921411708755 9.19004231824957 11.295606437379915
Ni 13.507473356237762 13.361001154734451 8.597812150040031
Ni 9.268694199893012 13.962632206787985 13.249406852445127
