31
Energy = -132.05047701 eV
Ni 9.40654021193385 7.336967270423028 12.372031035251654
Ni 10.638478500438008 7.655095871675359 10.460301486177132
Ni 11.971971169427515 11.962189575498407 11.485833710663892
Ni 10.163133702466826 11.279241687477706 12.913086686790281
Ni 10.67473605476153 15.200231896559377 12.986605225275786
Ni 7.613199929484421 10.379112031642874 10.159997455870803
Ni 11.014785454000842 15.415827467031336 10.606831952114552
Ni 9.570409649037641 9.43541361477442 9.255350867714629
Ni 11.181416553573282 11.09075057568133 8.65529981422397
Ni 13.180294813343297 10.55709059259743 9.662247489422986
Ni 11.84081085479393 8.787383561709811 8.767222804762984
Ni 13.853504132123417 12.639020102762867 12.988005556275859
Ni 9.951148413980121 13.531024834600846 11.612245050936057
Ni 11.190243723507125 9.84358761897549 10.956704981718312
Ni 13.119895685857246 12.541958598061019 8.386923175931019
Ni 11.267820568737038 13.262016448104765 9.606631043076934
Ni 12.570488544352443 14.24357189816378 11.776825061967111
Ni 10.934315546813828 8.993168951699706 13.134298310584207
Ni 13.99129388226697 12.653827377579983 10.577180274165137
Ni 11.589206046409373 13.098505190646573 13.609146057596906
Ni 8.18079380720701 7.96403548238135 10.454522738671248
Ni 9.648824801196922 11.594883224771582 10.349870719262006
Ni 8.117404089249836 11.935226227044637 12.054750253417119
Ni 9.248892071073605 13.305140838363506 13.776989004308524
Ni 13.101208162076173 14.660402547448196 9.523284239262432
Ni 13.001192277398113 8.44439924742464 10.875030490670023
Ni 11.809151084200629 6.978895820412549 12.392532525503011
Ni 13.264950416913763 8.664219618172849 13.199777583533825
Ni 12.365576982139643 10.83773240481456 13.633114908821819
Ni 8.899372716078561 9.610846448596144 11.889006965904139
Ni 13.887353533721402 10.529627879075592 11.869931352097456
