37
Energy = -161.49454563 eV
Ni 12.981970243041513 10.554142361206502 10.0641005646216
Ni 11.78340146184085 8.649238158322168 11.199719736197869
Ni 12.658596046339982 8.077692799663994 9.125822713290885
Ni 11.169106938713913 10.866124164696561 11.743517973677367
Ni 10.61999855893265 9.071787738263916 13.29279263647714
Ni 11.664146226153445 6.31343531500592 10.47759365033991
Ni 13.074932694307156 9.833427289203735 7.5996317059964955
Ni 9.960175520842053 7.025754360570238 11.88713860780185
Ni 12.284447437466946 11.945400649531289 7.980548701410519
Ni 11.280293471776437 12.505961559573707 9.997786456505562
Ni 11.34477895819344 6.1634090041387495 8.212827390036772
Ni 11.10732138943158 10.06744097055425 8.9908285653949
Ni 9.647720108016648 12.810739421034926 11.836361738370346
Ni 9.484786199998378 9.189866141188727 11.290993588128874
Ni 8.84317552502906 10.793633897304723 12.784616422487424
Ni 9.236753367791422 5.929515114083687 9.637478418484362
Ni 10.179432532654925 7.918538524102813 9.400955431957946
Ni 8.345813934996112 8.410334851165711 13.169969027312161
Ni 9.134768905425496 9.388864559149225 7.8523138262969
Ni 11.319230254599162 8.299109520817948 7.186578534228183
Ni 10.939027150469823 10.540405376781793 6.524714062774179
Ni 8.904947097072426 13.443794091055748 9.66851295437322
Ni 7.794396360091281 7.480757931246592 10.963279230526718
Ni 9.362251683376483 6.970722939982034 7.220354266051593
Ni 9.850424415297136 12.005018921228903 7.958065825083977
Ni 7.448298322736783 11.977973251042778 11.117645039677038
Ni 7.742573849957367 9.597402802589958 9.779069487881273
Ni 9.375408829936204 11.235075030077644 10.146201871556304
Ni 6.832375906037669 9.687187796186674 11.867667695285721
Ni 7.594196423315845 7.544933516550806 8.614933044673826
Ni 9.674554983607424 8.79687183044997 5.559545192885322
Ni 8.308569835761993 10.806976880929422 6.367627916386775
Ni 7.590086628527161 11.702988688322428 8.58183109371873
Ni 5.772160277616979 8.41674587435699 9.96679952972722
Ni 5.756056532052782 10.799297136773571 9.952380363877532
Ni 7.563544364878227 8.332997866343618 6.312797078736965
Ni 6.494503344817135 9.70057857666565 7.859058480665107
