36
Energy = -155.07139527 eV
Ni 7.190413210416887 8.12922442044099 5.41855501281319
Ni 8.450591638870932 10.15371147191616 5.091972071365467
Ni 9.714938257994646 8.071342667428903 5.217275086532898
Ni 8.28839775019331 6.134391300303571 4.819914453076323
Ni 10.804277399421204 10.034834854416044 5.929268294515882
Ni 5.068878985929324 8.112887004286197 6.779097376049137
Ni 8.51614871381195 4.6398551528805285 6.676593110249103
Ni 5.993520603343102 10.038200888295698 5.432920328371609
Ni 10.430928136124164 5.909310404597033 5.9907987006534595
Ni 9.377777888138707 11.900919722561724 6.460802235345278
Ni 7.281500700266065 11.042920959878991 7.065678427512858
Ni 9.049504464918087 9.406009340179626 7.2439929341628515
Ni 10.633998641447313 3.834006339868283 6.9746681678824975
Ni 6.466329541241614 6.127715372532588 6.566682282223224
Ni 10.899175583548466 7.898562527560668 7.409530986114157
Ni 5.034998483185233 10.396913174912124 7.51694326077105
Ni 8.564922377178814 7.022490838028062 6.9704130649968485
Ni 10.493121740704828 10.85049135867053 8.233212512976184
Ni 8.508791357836554 12.059645080268128 8.717197096082048
Ni 10.044344091833633 5.527315198950433 8.423467940420007
Ni 6.927430888848012 8.731070371870679 7.890643031819941
Ni 9.214226564214787 7.6549291260911945 9.042289940918748
Ni 7.577168468213075 5.572385455041235 8.63069490131684
Ni 10.860309265498582 9.110968750819818 9.66935203176142
Ni 6.470042304598666 10.82146475965312 9.331300361772593
Ni 5.031301514516205 8.912317286555615 9.326986254811425
Ni 5.397629024021315 6.597215278892515 8.682155821018211
Ni 8.568805047556754 9.900459616994699 9.642058759102756
Ni 10.985024572624347 6.808074954567295 10.203403836121607
Ni 7.087583258682597 7.571886955175031 9.93673255487112
Ni 9.14551938301336 8.25094220295775 11.281162752922784
Ni 8.820967667881574 5.9006962412164405 10.656422374305869
Ni 6.745185338733505 9.369574995704971 11.216910711976455
Ni 6.420470999657737 5.460126825164795 10.688410428866696
Ni 5.109593669543834 7.407473664592507 11.120797239065165
Ni 7.285568446892621 7.099051417628546 12.201081638136438
