36
Energy = -155.79936851 eV
Ni 14.271083638599977 10.826068877332736 10.839419468735509
Ni 12.031234352943278 12.004178644317303 14.713598282624146
Ni 7.029534931986017 8.186179070231884 9.60818851305427
Ni 12.421127632790244 14.256940965843382 9.012210258365213
Ni 9.437660003328844 7.258965881616303 11.979282091842693
Ni 11.469251150342714 8.381539409540887 8.718358959247404
Ni 12.923546369568623 8.78118820836706 10.673346824875155
Ni 11.72866067906787 7.921600505687436 12.80156048546287
Ni 12.005019887523014 11.207312053693139 10.801787721114225
Ni 8.894392525899004 13.15192094476369 12.022440221762432
Ni 9.656680696625273 11.135150528205177 11.527211200428729
Ni 8.136731412390022 9.22632127637404 11.361502404490281
Ni 8.033652295654543 10.194875970540043 9.118779637866421
Ni 13.902144151607565 12.365980104651577 9.001166884046151
Ni 10.684584541650507 9.080706329568862 11.171319554226729
Ni 8.856217014645997 12.457019220523383 9.59621323746089
Ni 7.827472231275382 10.897023736992038 13.11345772840874
Ni 13.469727085229822 11.786923464596955 12.871300197967152
Ni 11.30742734849011 12.787477119750056 12.612153422314568
Ni 10.355325341997652 10.393841271253459 9.254739401189413
Ni 13.205554207973899 13.232635809432379 11.040771911295467
Ni 10.83533392664644 13.348220332201048 10.415780066629962
Ni 9.556097714202586 9.244546876759177 13.29674305784816
Ni 9.828784311728047 11.61570090966499 13.96809369966085
Ni 7.297298482622623 11.477181871757676 10.960698194265293
Ni 10.072140915150552 13.862706564427421 8.190902101175999
Ni 9.369202074275147 9.067546980534688 7.529027820860821
Ni 13.013768912571296 10.210789437174274 8.80492479196205
Ni 11.634889388675036 10.327833077461634 13.123147404262513
Ni 11.648200050396866 12.206152718902338 8.311528674026745
Ni 9.288923588834843 7.935020904891151 9.642865051271595
Ni 13.722157582764796 9.410136416427255 12.744981750602154
Ni 9.379516319707546 11.552213252241701 7.487772400128323
Ni 13.322554649598857 11.50887388493869 6.864601196037182
Ni 11.347551264827116 6.917705148536886 10.590000191440637
Ni 11.400475280152772 10.15201880969326 7.062054099263102
