32
Energy = -136.76029034 eV
Ni 6.9029210600709305 6.700627307981819 13.113477352822079
Ni 9.949343939444784 7.732215292162915 7.961821077364897
Ni 10.520061190958764 9.631017078218727 6.620375526453516
Ni 9.443803103134224 6.357310908632824 9.858558794949529
Ni 8.335247390684922 8.733026488211676 6.524579644875907
Ni 9.275173231906937 13.232564002417712 7.142311204878095
Ni 7.351302606751222 7.059085780691335 10.82595921037613
Ni 8.699351506619152 10.2056184069491 8.691409371435112
Ni 9.226791488434056 8.618781188795735 10.425623153452294
Ni 11.62858948141478 7.371468245289961 9.654852431342247
Ni 10.93159478138645 11.87349859183495 6.042317898364309
Ni 11.806040491076503 9.272064235284464 11.1521194954608
Ni 8.099601732443054 10.802909450518822 11.14706141619987
Ni 6.742062903152402 9.241532429970574 10.069466407796588
Ni 11.02937413205194 9.55270950338963 8.937833723891522
Ni 12.550508546220758 10.582903065246672 7.4299315409106
Ni 12.227990838334325 8.148709879911463 7.417147402753963
Ni 7.103070738080961 12.406661084001765 7.605990972133388
Ni 9.802353678775681 9.59267674611347 12.457625581047788
Ni 6.4289723571952395 11.49059222502576 9.609872106852185
Ni 10.620275041773509 7.30893824071429 11.80560508472552
Ni 8.681688283241666 11.084362913229482 6.517934269252838
Ni 6.684672720977323 9.986845838443074 7.730333606532014
Ni 10.300747901327448 11.063842873762418 10.579697968940739
Ni 12.506609498415653 11.210734563018221 9.791530306085038
Ni 8.627863742943992 12.43584055983641 9.377315161108996
Ni 9.033943861303847 7.5883584215581905 13.521958256744576
Ni 8.829159582173437 5.790519266978146 12.09662369446638
Ni 10.692866495297892 11.857041868606691 8.340378724710169
Ni 7.731292850662994 7.772595847796906 8.584522083960996
Ni 13.351604080233976 9.073219521719595 9.263463598542932
Ni 7.495547500670296 8.832154930845862 12.31272968872781
