30
Energy = -127.67110314 eV
Ni 12.23165418011298 8.779528602710641 10.671544458410084
Ni 12.710100469044429 7.925484770631222 8.413793484492407
Ni 11.530920898876422 11.141267299935475 10.781725630600377
Ni 11.8227811018283 10.036831879652048 8.6585473972285
Ni 11.433101071269235 12.295036608095002 8.642679171870478
Ni 12.028129376527104 6.412195418688382 10.03665135032695
Ni 10.11806165412342 9.410464319343898 11.61058450622283
Ni 10.088492248980245 13.100239388203226 10.357554059866947
Ni 10.685132760091017 7.157900187110461 11.723742475440382
Ni 11.134004107805152 6.277532722996875 7.898597781311772
Ni 10.754964540406553 8.554991490430977 7.100969798915986
Ni 10.091036784020261 10.843489603175453 7.209483645868333
Ni 10.334835365174982 8.218128218406028 9.411324409549831
Ni 9.38761329875204 11.601228530910126 11.930495819397889
Ni 9.604518047733068 10.700759965389356 9.519844986554968
Ni 7.838565698960875 12.143775495158167 10.069434194829618
Ni 9.228175727304329 12.901839481384938 8.207318725084896
Ni 8.977469091505736 7.058973243874068 7.725935248036547
Ni 8.498195418528242 9.162815869157992 6.672367436432006
Ni 8.51787581596003 7.735755690605094 11.079530045630397
Ni 9.60345937218977 6.029342026536541 9.820885192384711
Ni 7.8122773660659846 11.126276293366452 7.880891133238551
Ni 7.851257412642287 10.026686654628788 11.188770206079543
Ni 7.881917682756368 8.901084217030292 8.942817889414792
Ni 6.807516779456696 7.464604761921363 7.099993421498148
Ni 7.252424459434829 6.6796483577914785 9.358859221173033
Ni 6.274358414197354 8.348318996791884 10.8830950222367
Ni 6.16057600763001 9.691029289790611 7.176171154755278
Ni 6.183987957616711 10.408502048224511 9.513724106559962
Ni 5.38913992542997 8.196464032104055 8.78074675038875
