35
Energy = -150.10230057 eV
Ni 11.858108229794663 12.176460158247266 8.092189425321065
Ni 10.111168989276601 10.475376165590518 7.8713575519161765
Ni 10.831109031817407 6.058679959161609 9.207402819994355
Ni 7.907286645007137 11.206406093728768 7.305729076981107
Ni 12.301410793556723 9.71849957187771 8.092201981457658
Ni 10.476541545648487 8.12433823364734 8.108643011980934
Ni 8.23787619810362 9.019599996968596 8.155721970712994
Ni 9.382173496719371 12.681788386324412 8.327510425517856
Ni 14.030876795897806 11.186597978595096 7.7922931294373265
Ni 12.473587645943423 7.698448853535652 9.359764168950283
Ni 6.324001432249371 10.45731643899599 8.838917800877974
Ni 10.650672578184501 9.405153931308696 10.103401117357533
Ni 14.281488868531184 9.20967323102813 9.403377679800428
Ni 10.921368061293457 7.37168234001685 11.181698928156415
Ni 8.531974087553968 10.761082679149201 9.707550591925171
Ni 8.97263901128354 7.386402874870024 9.724698778245976
Ni 7.03356775279704 8.734951331045684 10.231908736063595
Ni 10.739569114650244 11.794451759176429 10.103711096851807
Ni 13.060659171575868 11.050937646253239 9.860132079065744
Ni 14.366763301676379 10.637920034829301 11.741080929752027
Ni 6.730904740766696 11.84924935192537 10.6942982057238
Ni 7.139556888015197 10.126937768414086 12.16411634790678
Ni 8.890857645188866 8.65077939792521 11.665986362100861
Ni 10.670595470598954 14.086387563021125 9.703123055257828
Ni 12.82588055928573 8.977217683577173 11.338396602086199
Ni 12.620294750600566 13.176763805988594 10.608143201965285
Ni 8.707617881413745 13.036504220848268 10.612045100180392
Ni 10.890070442477763 9.23314800559526 12.672245781574444
Ni 12.128407331095763 11.317138388333916 12.02351535330115
Ni 9.370620323099304 11.092337384623747 11.957805977652251
Ni 10.639592212526363 13.166438952969147 12.015281073367113
Ni 8.829424737792092 9.753592235258944 13.776370755854298
Ni 12.963473012261668 9.886586336870913 13.567744808933396
Ni 10.740339129036515 11.249062486602538 13.8948585572547
Ni 5.190049712342031 10.055946566977015 10.864289880789634
