34
Energy = -145.25404279 eV
Ni 13.210196317344806 8.55746343822245 11.605024375584883
Ni 12.557793346845894 8.600525654054822 9.380128887735115
Ni 11.454015994277084 7.145282726997012 10.86258325585338
Ni 10.985227571145131 6.940569040054159 8.551416330169296
Ni 10.532311101367874 6.881977236011418 6.2358899036935656
Ni 12.025138334330586 8.488005692426901 7.042603306223845
Ni 12.4741061881807 10.31787971542086 12.888823350139683
Ni 12.763021153710076 10.727589954677969 10.522064455158693
Ni 12.316237365475645 10.631639028982852 8.131803257467041
Ni 9.302001695738591 7.7244599584140765 10.15955664033834
Ni 10.358927384382243 9.290934940324965 8.541053157246683
Ni 11.22080120726339 8.268499762302076 12.949526453847824
Ni 9.890245052487677 9.162937842469546 6.2131873455298585
Ni 8.857080885000157 7.632727229824684 7.707895324103334
Ni 10.221862905441853 10.281218264103702 13.613377286766198
Ni 10.848403201722299 9.52927827574102 11.03515670014516
Ni 11.824363945517954 10.479335151073146 5.828325487457492
Ni 10.146196058581069 11.312065100327096 7.215495254423393
Ni 7.218794020747401 8.290952749205154 9.147119098801811
Ni 10.664771972640775 11.54957317982631 9.576519362163953
Ni 10.909922781423822 11.7665505139662 11.9079475476335
Ni 7.223890054098623 7.464247139735976 11.306632455365103
Ni 8.913559662830933 8.789223557725416 12.291759169274966
Ni 8.658460700694599 10.144451286529545 10.06914428067849
Ni 8.597493333978298 11.182601306749614 12.194997570058257
Ni 8.08192144515535 10.043826630769017 7.710287980093184
Ni 5.249610387492247 8.439883212792056 10.326671956792907
Ni 8.557051167647993 12.19063982700257 8.653051953001944
Ni 6.816258107915157 9.747977862369911 11.491816227250691
Ni 9.210814311066013 12.977517288794555 10.801559001752732
Ni 6.151692937546604 10.322660780637227 9.220141423487295
Ni 7.044514974337807 12.00517710639071 10.5930234708297
Ni 6.300842094159999 12.43261459181241 8.365124017983916
Ni 7.52528527786843 14.063221622793082 9.56900930852962
