39
Energy = -169.08172941 eV
Ni 9.427861833483552 6.8641072602547935 7.343746691846502
Ni 11.012067745451965 8.19897105271538 8.458343198693559
Ni 10.205320951279374 11.536560706086922 6.498576863928774
Ni 9.845431471189594 9.190946938876516 6.6801708621679365
Ni 12.2592035385091 12.483612657504578 7.212777537269587
Ni 13.657354771433232 11.17264583510864 8.658424938791686
Ni 15.1097487150823 9.940050760292788 9.98115190852532
Ni 13.204679151561649 8.824550164927908 9.114924486235703
Ni 11.799035320417413 10.212760869889875 7.630288743422727
Ni 9.608475202866469 6.78884247671049 9.794451938900908
Ni 8.391450294670998 8.617861096447175 8.406410831344939
Ni 8.142216863690937 10.74342357584967 7.430049612507522
Ni 8.347535245567325 12.962915435043485 6.703794057609921
Ni 10.1814081547618 13.339773205121004 8.109356947864464
Ni 11.650694908297652 7.76210313298929 10.709438453072194
Ni 9.731682088588093 9.123482741963468 10.327521714929127
Ni 11.953945168016231 12.592626775466304 9.516407344392876
Ni 9.972686728875093 11.124602756712314 8.899029451863713
Ni 13.486656592397887 9.195034866233824 11.49398492360861
Ni 7.736441031007938 10.4067554045388 9.799205565473194
Ni 9.864053068804264 13.200913495541384 10.479511742384119
Ni 9.634136580024359 7.611618906126445 12.091487908566982
Ni 13.70580459311229 11.564238771458355 11.005113255223216
Ni 9.797259038965429 11.082135503088919 11.57509620322608
Ni 7.552309786876606 6.498577829318454 8.74295421077572
Ni 11.28629253316098 9.323959116605414 12.453574050804695
Ni 11.830415368692417 10.329155161869767 10.280468368846783
Ni 8.043982871178601 12.608276424860088 9.000513136899794
Ni 7.631144703696461 7.940446811627664 10.633261463267965
Ni 9.615321201760608 13.16330621998702 12.806002280197914
Ni 12.954785007870795 10.833000605018213 13.141886656527932
Ni 7.538865618874917 7.802615142124917 13.04005669156208
Ni 11.706836915238677 12.419903092323842 11.897618828931723
Ni 7.802923817419251 12.237258781262538 11.400683455494917
Ni 7.773286072450634 9.850743371774044 12.0345173932666
Ni 10.769175510622539 11.250305417850518 13.844479004484816
Ni 8.336597438370648 11.455673803334617 13.67956108999331
Ni 9.389681977949023 10.696725126889254 15.582910432329083
Ni 9.279899920628976 9.286186509052033 13.77891555761291
