34
Energy = -145.84769238 eV
Ni 11.276004775084226 8.030566756369325 12.435571479528623
Ni 11.306543970049507 10.53171451007165 8.479203608926301
Ni 15.225464254603882 7.75567061040292 12.108839579358484
Ni 11.63582701368868 11.762863593255029 10.617645125511249
Ni 13.026160126361107 8.76099599610411 8.789970574427509
Ni 9.561253856584118 11.306048914541877 14.004118541150907
Ni 10.448201865793344 15.336057152379357 11.819169096614363
Ni 12.16794319928209 13.798982672862403 12.115734964266066
Ni 11.256362724941779 9.03783466503474 10.266374972585067
Ni 7.79480669696095 12.178956441781402 9.773778380238127
Ni 14.803662742547793 9.253337840973435 10.329036200873958
Ni 13.832264762653528 12.097312086626948 12.259618384713308
Ni 11.408582539849043 9.671460943021696 14.116378214988572
Ni 15.114767882700445 10.075194940916306 12.511097704009362
Ni 15.391897856693179 11.573747721067546 10.625953108283047
Ni 7.0440781056873485 13.320466626236952 11.604232676251378
Ni 13.52491834506416 10.68264160144259 14.163465057509265
Ni 10.302340729943824 10.169806226668854 12.110153604958427
Ni 9.70235608935865 12.732850279140202 11.6047828396055
Ni 13.141974680364951 7.738031649919463 10.99440828386532
Ni 12.234045042884523 12.706634252442104 8.376365600747466
Ni 13.587971474134852 13.238046479000237 10.23909530366559
Ni 9.939677042642298 12.562001489113138 8.967090828852653
Ni 10.224027183579066 13.69721191889663 13.612962335008913
Ni 13.483679418977138 10.957773498265539 9.435054104600344
Ni 12.866316863024977 9.972405562471149 11.752716675061091
Ni 8.824746835403836 14.35418352811448 10.261340796289922
Ni 11.284736556183578 14.156938568414196 10.000507460324968
Ni 13.414177973767464 8.421242552101239 13.408981030045954
Ni 11.67897881874318 11.809293582750795 13.176066962138945
Ni 8.09012079017691 11.152051280484672 11.975246559581928
Ni 8.356946841813974 14.883974757016288 12.612444436675187
Ni 9.433578528238488 10.549051565647549 10.007542684136567
Ni 7.926150392970131 12.883783561101453 13.68661523843983
