38
Energy = -164.99962271 eV
Ni 9.014684952116648 12.478885107099904 13.569595108150104
Ni 11.379254227568696 11.782943217837861 12.693412708000496
Ni 9.829146694580304 10.32218539242642 13.931829958259625
Ni 12.168283235385193 9.632376516273428 13.431017588117404
Ni 10.048963027832562 13.574907202187216 11.708825278165474
Ni 7.502919144218632 10.653147667033453 12.627583971373987
Ni 7.673494217167316 12.90754892736977 11.58926212959118
Ni 12.47555260761771 10.254324944120764 11.13738746254691
Ni 10.44298326918093 9.282426035534812 11.929463914813004
Ni 8.425784370472668 8.557603135342443 13.227869804969755
Ni 9.3750845223212 11.356131557743966 11.60145420870349
Ni 11.530132279327404 12.31542531545224 10.279905210689812
Ni 10.616171035766508 7.897863118532866 13.795684589735908
Ni 12.060410282649949 7.75368979243817 11.696708766015318
Ni 9.198487424932425 12.658249744405678 9.633039087369088
Ni 6.444134178070165 8.709396215130024 9.699636377666506
Ni 8.363099577988736 9.043972920946555 10.934539060620423
Ni 7.415345509486592 11.056584948827574 10.076754989225055
Ni 9.526829966379289 7.051605044693365 11.755944848105491
Ni 6.277319964068232 10.302205909471098 8.097676824186237
Ni 10.396239670920584 10.360134452418686 9.798956814076021
Ni 10.422174818860546 7.878018909176901 9.77589032806095
Ni 8.583873589440232 9.421263651037835 8.521273888830766
Ni 12.672000940992206 8.52152895146836 9.531721356937616
Ni 8.240351003462905 11.589846454836279 7.770364673129655
Ni 8.215197554585163 7.1253848757074065 9.550560084498473
Ni 7.15761022247163 7.998230083660777 7.454132054278236
Ni 10.95497672446805 9.226052015957215 7.872482598280626
Ni 12.62495810691423 10.762843503245328 8.74023500763367
Ni 11.797282525583821 7.030395402583657 7.865444212020165
Ni 9.48743368135651 7.335429527555459 7.538997623490462
Ni 10.630319664354486 11.796120437322969 7.923652556955827
Ni 7.3703522976081635 10.0341849089468 6.117543896281637
Ni 8.731926449229745 8.240870805282874 5.572211166043806
Ni 13.180870703530642 8.84774228147898 7.220393103828459
Ni 9.663531272524933 10.316261341503287 6.2548452559122625
Ni 11.122905159392715 8.311152911974034 5.817068892020701
Ni 12.0017497546441 10.651575468123506 6.302762548338813
