34
Energy = -145.98805041 eV
Ni 9.317106564617474 10.602280568799612 11.957503834518207
Ni 10.370737214752207 10.109549757190837 7.163737597490297
Ni 9.191831290706496 11.921492995840605 8.182242200086051
Ni 8.311698213717579 8.77621822997209 10.240351315742979
Ni 8.413725845204647 9.958155872739088 14.004288109728972
Ni 12.406021075006011 9.665376069645053 8.130503787406195
Ni 10.31810836850234 8.27821420176143 11.216056968401018
Ni 12.311338225269012 7.865803062670371 12.421870966901283
Ni 10.034362738044248 12.418203465268096 10.412475848029445
Ni 13.954068599787684 9.28929035301687 11.676892145099853
Ni 12.244604477682028 12.73097286505762 11.591051752212367
Ni 13.095509982952526 11.045047508929033 10.024965173345336
Ni 12.316714940595975 8.687126367046195 10.161503130804812
Ni 12.697623294917664 9.846714694703541 13.828168960238472
Ni 11.900826550379028 14.54510719386555 13.124826250272791
Ni 14.456032038875417 12.95312851174874 10.72235653368445
Ni 11.662644026794421 10.361112951803591 11.875083946621048
Ni 10.289934811036309 8.202887251391672 8.74516392837398
Ni 12.3765396777628 12.326473822751185 13.908257345232755
Ni 10.387924984802938 10.241173258105556 9.70072001326817
Ni 10.220776085008636 12.834351455314673 12.714991070720165
Ni 10.455341272325072 8.762741661706121 13.501545348898057
Ni 11.552505010500866 11.833157789642122 8.30175815957424
Ni 14.144621408168117 13.669370863761525 13.015206559174302
Ni 10.922547058586558 14.575361072934896 10.925670817878283
Ni 7.092891959741221 9.983042595754094 11.91985179333724
Ni 8.023545394766796 11.112538362982573 10.042512088533948
Ni 13.275229666123549 14.945449640733958 11.232236862619436
Ni 12.562119492021138 13.545428228724557 9.444060939479266
Ni 10.547729513753266 10.960244705967428 14.080242587427456
Ni 13.985256218178 11.396080226616224 12.446100086745327
Ni 8.372712294585835 8.143968646889041 12.52585665687575
Ni 10.37659082067218 13.90147752300169 8.657435000504318
Ni 8.357805622025811 9.696576893047064 8.132553776205262
