32
Energy = -135.73229458 eV
Ni 13.72899064460426 10.872139508659615 15.303203240852538
Ni 9.947961384640477 10.584041762741041 13.903726987263843
Ni 12.039025190832456 12.43226049107623 10.984307782675423
Ni 11.667239625107714 12.190425857003513 14.881188756056485
Ni 12.27050922773466 10.150009752415464 9.562789740149924
Ni 12.49588255914711 11.032748772027515 13.106069461222667
Ni 11.186254682826414 8.628910712136221 13.190993511482068
Ni 13.4734672075472 8.987535434939938 13.885940200759237
Ni 8.01515191509735 10.241322713303273 7.977986721384
Ni 8.602754566243643 11.387739444860575 11.84648642641327
Ni 8.97615076665926 13.927648924590024 8.574520898843083
Ni 10.437009813128157 12.54687317236596 12.821465622188137
Ni 11.79979236315032 11.347649091718148 7.605918800700484
Ni 13.3794006993923 12.27597970183793 9.102349647376993
Ni 14.058959836898108 10.964209140102447 10.883046912862252
Ni 10.263641490639966 9.563709770629204 8.306993252754383
Ni 9.531239506499473 11.928583119350783 7.4912088523237035
Ni 12.858643957438028 9.11259783460054 11.610855387435517
Ni 9.698982038365774 13.38097613000186 10.781378456247998
Ni 14.20387655910786 13.012728206951447 11.889181090065922
Ni 14.330732592108989 14.894328122019328 13.235678444513292
Ni 10.245368014792213 11.452101279641955 9.617296984786398
Ni 11.235810299715038 13.350968979496226 8.805639380041686
Ni 12.29348152575491 13.837300672784828 12.962762142596313
Ni 9.015596677278188 9.016760882927521 12.329081281533126
Ni 8.034133589181467 12.010245554412212 9.557834356197047
Ni 8.690973247606587 9.695695759703506 10.129032853464356
Ni 11.6831428875187 9.775409078627176 15.221757123191882
Ni 13.975386004233512 12.885963061223926 14.259284456119188
Ni 10.77718036372014 8.452738521143944 10.535144841596537
Ni 14.781009707620845 10.922141737820874 13.115310307511045
Ni 10.740108881944124 10.420438990932722 11.643915503884612
