37
Energy = -159.64241876 eV
Ni 10.817257004454103 9.984123904790176 13.248748561124225
Ni 6.983672090305538 7.2713911619671965 12.319960391118011
Ni 8.76364417584832 11.055496232773812 13.00097632688297
Ni 10.920933697285363 7.673391940630351 12.941994124670313
Ni 9.112691994269666 6.340025236533081 12.257410165477467
Ni 12.11520130608005 11.381050660563158 11.807238599141739
Ni 6.783766620927458 9.585181778042672 12.820014186420101
Ni 8.02825770702931 6.820460647961669 10.206908042629207
Ni 11.16703830279105 12.285456998274514 9.878183854863435
Ni 10.363338288354642 7.6223391400878855 10.681278363618333
Ni 12.143950928649126 9.044978988634343 11.412180498783338
Ni 7.560835163122622 10.817293599772713 11.02605358740033
Ni 8.859219087819488 8.719193687637697 12.278876096811793
Ni 9.197161443229911 12.578053142293644 11.189498759916257
Ni 6.486914455533584 8.741337307824676 10.561722961359306
Ni 10.217589310333535 10.345039645159364 11.018309655531827
Ni 9.072456877726509 11.297268735074525 9.137005802128135
Ni 12.728967859338647 10.461655910153953 9.569782051302465
Ni 9.883207336280567 7.4546229953756304 8.360480864397609
Ni 7.02070749091179 8.015993700386971 8.34496409980801
Ni 10.703705355169424 9.757782511595629 8.610227146426697
Ni 12.19952971352617 8.103908854786766 9.219693233990537
Ni 7.318056600328049 12.72246298244904 9.586005993460091
Ni 6.830488033348062 10.452088075019754 8.791147587531732
Ni 8.505727064252415 9.613193996215857 7.348470815325118
Ni 9.41274507240108 13.553292366018589 8.87218097600433
Ni 12.049727368682401 7.191514834963696 7.107045966851487
Ni 8.16537432740849 5.9504427226775976 8.00072177888522
Ni 10.041476339875251 6.1539956288626705 6.432476297878345
Ni 8.211265386177464 12.080547839310443 7.21630221565375
Ni 8.199358928504942 7.552070623400635 6.317110103040429
Ni 10.39549661028106 8.566862229588132 6.288714734911674
Ni 11.877827769683874 11.821964920568089 7.77042217362823
Ni 12.445233976908415 9.584688016926668 7.169460263097247
Ni 10.226042303811777 10.911863426649232 6.4679299805801325
Ni 10.293382733810475 13.22315407652531 6.784160870883855
Ni 8.668560980464507 9.036621185428546 9.727152573391683
