30
Energy = -127.40158065 eV
Ni 12.97594935629481 7.729901711659212 11.15449095602598
Ni 12.488105772658578 8.424423820688741 8.948905375870849
Ni 12.278296370657714 9.917793456172927 10.815188190417144
Ni 11.175635406339017 6.72201838880095 10.086151296552053
Ni 10.832549968267152 8.317476559624819 11.856559249071287
Ni 13.535341518754123 11.51868712626909 9.765947760608814
Ni 11.800214266523245 9.153509244858109 6.801788517292033
Ni 11.831099985135943 10.686395176558943 8.526722539581852
Ni 10.25094677589842 8.932053935122703 9.568110362258034
Ni 11.39717854193858 12.109353917699856 10.407358971215574
Ni 10.647716002907734 7.273004475062278 7.808146739384794
Ni 9.302962284629583 5.696033948134926 9.150123101665569
Ni 8.915369082277305 7.319543241336284 10.785267277222026
Ni 9.96644217541904 10.50205488745684 11.354158060485238
Ni 8.654685698913523 8.927159266463843 12.496199431874315
Ni 10.544202513276655 11.428439859843126 6.761948484000669
Ni 7.917369231570136 9.782406199142224 9.18255625919086
Ni 5.6669536189513785 10.361707922682042 10.098851648840297
Ni 6.971162610945419 6.436502109504186 9.762394803073267
Ni 7.648417779081776 10.752610358264976 11.352136896084495
Ni 9.631627147332319 11.461824609004728 9.004225118235869
Ni 9.613658776753581 9.401438317864963 7.335604910263454
Ni 9.067986783226104 12.638389819926251 10.916212878588636
Ni 8.160692572082919 11.296683815445029 7.18681219092971
Ni 8.360338394824229 7.616809236955534 8.348220529649508
Ni 6.9038034347429145 8.524188389992974 10.945576079778574
Ni 7.283927329179659 12.047489538464278 9.360828867114193
Ni 6.044381762921496 8.387034934064959 8.706464603512673
Ni 7.326261279815762 9.105826924534602 6.8302280731040215
Ni 5.965783978353315 10.688299228073168 7.8418812477803534
