30
Energy = -125.9549147 eV
Ni 12.327285211810352 9.122207779072667 5.104378562527098
Ni 10.216543890800928 10.054114125423501 5.429720486588393
Ni 8.589899818220758 8.45289279838541 5.729115720366625
Ni 12.12281915125975 11.395271966382131 5.470593877367094
Ni 10.798150009748507 8.029631973222926 6.537628988424719
Ni 10.379330251175125 11.819523312449018 6.998996106112428
Ni 11.856385201307686 9.928458263150274 7.274506425639694
Ni 6.992016531864709 8.553556937385558 7.45688676500356
Ni 8.98444360187687 7.116879404135149 7.604345990900143
Ni 9.108078834649884 9.845244327124709 7.617764280024855
Ni 7.028065924378777 6.409246686288391 8.759688525602305
Ni 7.160564357864412 10.426726041009577 9.054560712869963
Ni 8.984315637573282 12.098035641906812 8.862170846030002
Ni 11.166010212100785 11.044285699512246 9.089658940868542
Ni 10.722751285768991 8.489459431236623 8.992107043584449
Ni 5.860070980057026 8.403198289939775 9.56923724669254
Ni 8.218163594996344 8.299798180951862 9.418453980693053
Ni 9.454527719831015 6.407609210757686 9.861431800582796
Ni 9.26612833743329 10.156792540454347 10.105544051084477
Ni 5.227588991593952 6.278563020293036 10.33470199256392
Ni 7.8864940445888045 11.740021958735142 11.024407120482834
Ni 7.347751332888913 6.884166667099357 11.104694771747416
Ni 11.33641692099066 9.806598181357296 11.090885999765646
Ni 10.267456077588811 12.075435754309245 11.018760794139245
Ni 7.21369130701492 9.451438117949847 11.366829309999645
Ni 11.345408730444108 7.422252176562552 11.034199211755183
Ni 9.258837260551774 8.142638609972545 11.56090942518807
Ni 5.45976708154189 7.992026965796485 11.859190380661575
Ni 9.336807029779694 10.344410326076886 12.45120145483521
Ni 10.93353278333827 8.658817726099379 13.066731300938248
