34
Energy = -145.3935517 eV
Ni 12.63195376874206 10.300089594559337 10.077792455947522
Ni 11.149038179285787 9.281719678726178 11.585033917360652
Ni 12.015171341000544 12.720626139861496 9.921448013830894
Ni 11.556596245317165 11.156985521087124 8.193054556077731
Ni 11.715568675990276 13.303909033831863 7.469848259447735
Ni 12.622699800340587 8.957027109696215 8.044571826604935
Ni 10.236270068817685 11.202644747342706 10.45268366546118
Ni 10.63731133584611 9.242398370755762 9.250729122464826
Ni 10.647691889202456 11.280236723351623 12.787292634928127
Ni 11.939304423217575 7.826554034500753 6.067914241019323
Ni 10.556989956892084 9.556445583016979 6.810795100312904
Ni 10.012253547969626 13.2164895873491 11.395498669861244
Ni 9.860836733197914 11.814584244860566 6.705819309193451
Ni 9.942998452322366 12.950594192127456 8.820932319799926
Ni 11.333423662667322 9.279925566391443 13.877659917099955
Ni 12.207999114302979 7.763943554291032 10.14795715449349
Ni 10.979481627933636 7.191141510221469 8.094304544995584
Ni 8.08800619918499 12.653155214448798 10.084740095041873
Ni 9.583009532969642 7.617373747737824 6.130726402644301
Ni 8.72414633579161 10.81276714271392 8.544333838907724
Ni 10.574987680268508 7.315498457213415 12.55196147144176
Ni 8.259111405390845 9.753180909077996 6.490583185908962
Ni 8.39325284452218 11.337694937864578 12.011632326989455
Ni 9.213714228459242 9.324861635096749 12.974061017979361
Ni 9.832463873793785 7.210489236427773 10.264408622721245
Ni 8.618551138044825 9.297477799857012 10.521989804529357
Ni 8.795480681540349 8.17796343292273 8.251093699546564
Ni 6.81542665172931 10.794826819875102 10.232773146145735
Ni 6.815076009651397 9.33058328241661 8.384200101071608
Ni 8.280704870080351 7.324309953747249 12.133673404319383
Ni 6.93514549140014 9.354767717121325 12.154735241105278
Ni 7.323755338909593 7.434163883427878 9.95248906063203
Ni 5.51235860039282 8.861421405289983 10.320032718447106
Ni 5.986638404388738 7.197986750927419 11.887241904775468
