33
Energy = -139.6769297 eV
Ni 10.437665972767116 7.579570848872282 8.909398951170344
Ni 7.6183507184624855 7.355246733603472 12.690721380887808
Ni 9.8404845879643 9.60056083764964 10.026647209282821
Ni 12.896740300363158 10.283159492605636 12.121092430714262
Ni 14.305762211173853 12.146616829509076 12.0632947936037
Ni 11.898878209073272 13.043030346767733 9.209178728852951
Ni 10.002541403004939 13.50384820971938 10.649207304716798
Ni 8.861026258797175 11.397770151831011 11.434429579801835
Ni 9.6486671869415 9.966963331230952 7.6235500626539965
Ni 8.056048588527725 11.830433107663971 7.430941941728058
Ni 8.911670025408172 9.285583760338668 12.709142074091728
Ni 7.37364268810724 9.546378095675804 7.143831580949865
Ni 11.203951798765463 11.338077624298665 10.915788900232627
Ni 9.156022048241239 7.45437960698049 10.939268445805363
Ni 11.089839586099536 8.828378364437022 11.94635625268176
Ni 13.437836731820825 11.330874849645966 10.051047900313828
Ni 5.993957820993129 9.064581387183129 9.046639198792093
Ni 12.209545500282132 9.051091970291308 9.896572629628444
Ni 12.307348455597182 13.254680167032216 11.528661948254587
Ni 13.569833699816071 12.155780636312171 7.906982709725457
Ni 10.629462016577174 10.765364676561232 13.145560542127653
Ni 12.503993001230578 12.146980219594866 13.582585685697234
Ni 11.438308493242577 6.865907173961246 10.881776168748363
Ni 9.298634994579169 7.865398320843267 6.855870752662792
Ni 7.3901657266052165 9.030931428784287 10.97785191972302
Ni 7.851318875773563 12.906856235332965 9.75959538081531
Ni 9.94169668825776 7.133601448085999 13.054417534430943
Ni 7.699713799548556 10.62411776455727 9.342141982932478
Ni 9.761603413085998 11.89826923476609 8.995673668539931
Ni 10.381909613450874 12.998107291603649 12.857309371231716
Ni 11.639003882422626 8.758581861349237 7.387603662603709
Ni 11.771180327148583 10.822119721595575 8.410319013778015
Ni 8.146247078765109 8.19699149007193 8.873139969826195
