37
Energy = -160.32644971 eV
Ni 7.988861255362506 8.093379482611148 4.068553891442142
Ni 7.666640390034961 5.7216686312509815 4.3770249251587225
Ni 5.718664414469201 7.31804852631666 4.6380377269965205
Ni 9.785372066423502 6.865878279190582 5.348249650456954
Ni 6.64897085879486 9.352382844402722 5.7043460379399304
Ni 9.008828382506488 9.069704327742098 6.065852874806052
Ni 7.569747324605499 7.185152797300396 6.1129759445555765
Ni 4.225621092055089 8.934594981580906 5.820171875724145
Ni 6.005166468136339 5.350644715741158 6.104165525434282
Ni 3.8133186184953525 6.554609974456108 5.94078194951039
Ni 8.596667716202777 5.044972260593015 6.528701978686114
Ni 10.364613589080555 10.759520451663557 7.09720036233628
Ni 11.123329616931644 8.36549113711571 6.873213634370553
Ni 5.507279474335978 7.560397889383024 7.0770757916383715
Ni 7.908668085164499 10.74691115961407 7.299752246569291
Ni 11.010132087640388 5.849979274106049 7.191438065658208
Ni 9.186182106906209 7.084502461643808 7.728338055156809
Ni 7.210284077588783 8.569859178010732 8.293107465477041
Ni 9.321931673147798 5.163809418089976 8.935109479391448
Ni 9.433678191975167 9.204738626675539 8.529711058906454
Ni 11.200021517288056 7.457698373902038 9.038694927181227
Ni 5.49973731245074 10.061994668827273 7.637143779615263
Ni 4.611796237334776 5.731171255476371 8.06256608519001
Ni 11.583507602203387 5.219403078115041 9.438208972182476
Ni 11.610606575661274 9.806725878211997 8.899349786993128
Ni 8.211139096559714 7.119594009690976 9.951334700703406
Ni 3.773027883514702 8.330966917606867 8.247893719432948
Ni 9.465376425976357 11.256518758179187 9.361698619108237
Ni 5.010498619625536 9.552248655400119 9.876915534358472
Ni 5.636666607966136 7.297907366965168 9.564546633741852
Ni 7.0756517913619446 5.918178409179846 8.197987585559925
Ni 7.131763677604206 10.615735221903849 9.498260453756107
Ni 6.936002872330552 8.774210472831324 10.93156520730993
Ni 10.21050634902553 8.891826099075262 10.682996913545532
Ni 10.22046618944399 6.477164247880162 10.909721318079134
Ni 8.580856802259444 10.346043458876744 11.3977120677516
Ni 8.716662984856882 7.914612745711542 12.13784119059644
