38
Energy = -164.42487105 eV
Ni 11.05648710823123 6.624315575658814 13.72900912317147
Ni 10.396727134597013 8.942506583058423 13.701346279513997
Ni 9.862873854158277 11.213632517077917 13.061126961889343
Ni 8.522199085648158 9.461109829224574 12.189035213249234
Ni 9.40273065910398 13.468730157175807 12.307009085195528
Ni 9.536196726096504 7.335301532068645 12.120404515026241
Ni 8.03858742637719 11.69812219921904 11.488921820449939
Ni 11.671283250844965 12.84895653799873 12.495062597462208
Ni 6.687984817024806 9.863079818482559 10.677017846640549
Ni 12.190962387027074 10.600641624452942 13.03619135583375
Ni 12.636449959104086 8.297850979348453 13.43925085959246
Ni 7.8831731595998065 7.8226762544184485 10.499829900340893
Ni 11.807508402729026 7.226395081097682 11.54594871968867
Ni 10.889287844043633 9.459288963074815 11.471513083119293
Ni 10.361563668231677 11.805078429914364 10.812502698895308
Ni 11.072019671380533 15.037287541260156 11.764875117376556
Ni 4.9563385211873685 10.292886480500902 9.116508324680492
Ni 6.298305154795826 12.04400562371113 9.889698224840059
Ni 9.772793769764084 14.011940232166774 10.066816509201601
Ni 12.78849083596331 11.437509648920335 10.863018580094465
Ni 13.256882712582517 9.182724363259181 11.327001785494588
Ni 12.061387900099634 13.595489141401963 10.2192424787547
Ni 9.038155750090736 9.941954067937758 9.895005992729207
Ni 8.510285937560953 12.219997524855993 9.170990934676588
Ni 10.161110136584329 7.768792629151079 9.839157337815742
Ni 7.173523811276759 10.404918674864405 8.36396532085872
Ni 11.439096173191349 10.165961702188222 9.27788609603914
Ni 10.769612880255892 12.416834912048992 8.514329356438466
Ni 6.207397726354563 8.32473219079504 8.920309113427141
Ni 12.458623475691544 8.014374380695104 9.398360485993688
Ni 13.118046485250286 12.178016940191574 8.619605407004409
Ni 13.829066752091116 10.014061525462195 9.179656264960752
Ni 8.489382837585847 8.385510031502942 8.201301233129357
Ni 9.494881453129329 10.594862410432873 7.6399324387781515
Ni 10.808966332733172 8.582996949947281 7.671278143020753
Ni 11.862467466275906 10.818908061149125 7.087062955514342
Ni 13.13455119193613 8.864074345347163 7.273587976348781
Ni 14.233377326540243 10.913254325076313 7.005019647892069
