32
Energy = -136.9291826 eV
Ni 7.508505271524514 8.45707624997487 8.042068377117985
Ni 8.497104034899264 6.442267958916462 8.441835786272962
Ni 6.363580634617508 10.507245366182019 7.858609638158694
Ni 8.471160799511948 10.042208401616534 6.6106961821008445
Ni 6.50784651348474 9.513753879714306 9.920282266883325
Ni 9.241640921231685 7.720266302579194 6.530303298229508
Ni 7.766423090404888 12.214883708637245 7.320998910653177
Ni 6.525524824343503 7.113010278538441 9.696079129266097
Ni 8.63968902845659 10.456809538895826 8.94080875800193
Ni 9.994724345436019 11.82135712361091 6.61571176798016
Ni 9.988307471262239 8.559024363377711 8.53664730022087
Ni 10.810686242833187 9.515331448362138 6.504920281837725
Ni 7.2649486195221 11.939706567774836 9.84538408613742
Ni 9.432434714464893 12.725103943434846 8.780592831162846
Ni 6.720433977997639 8.187620673046357 11.826759672798227
Ni 10.977485080489918 10.876707013436803 8.46411305849183
Ni 8.567007662503634 8.006220249444228 10.366818808721954
Ni 8.06903721678084 10.227578382347053 11.465624623546574
Ni 10.505480592083655 6.506557047696008 9.538880796221918
Ni 12.76707308393838 9.484682917107795 7.872646660762256
Ni 9.569436601356115 11.940456394887665 10.982452747244519
Ni 11.598532893464675 7.407383519227437 7.486238601294294
Ni 10.336137123466235 9.767478827876772 10.626480569782368
Ni 11.532661285659387 12.70423499638772 9.825241685700147
Ni 12.654080528153946 10.562495788641588 10.043979603416398
Ni 8.839625090587397 8.399194443595762 12.759812085650966
Ni 12.073178096640541 8.276905187986715 9.733293890335684
Ni 10.689489295330779 7.544300535376287 11.598929700510148
Ni 10.051709954615616 10.42614516191262 12.879609270176822
Ni 11.759334947219335 11.695414785046335 11.899230565615735
Ni 12.162600796022362 9.35131430996255 12.024065776691303
Ni 10.928387860065103 8.421533232774248 13.775151867383807
