39
Energy = -169.82533709 eV
Ni 9.75603149383093 6.814266770921682 4.953977500462087
Ni 7.397430880470026 6.71930652857734 4.171848577066161
Ni 8.337613386729105 8.99651763956111 4.705104715380531
Ni 5.9943774028284 8.459444248481935 5.351463017109878
Ni 8.199934540577376 5.001585085973754 5.784787898148892
Ni 9.137439663425296 10.984925811434781 6.191404905719341
Ni 9.93145344277701 8.69097560190908 6.5220123180119876
Ni 7.908535759445437 7.24583096151483 6.2808940971763585
Ni 5.834574861276104 6.081133399062574 6.042454369398574
Ni 6.770523411472652 10.851867223661584 5.4091855387980115
Ni 5.254257992967444 9.940625282120708 7.200269530850774
Ni 6.164993546474035 7.781993501781655 7.702320589577431
Ni 7.230131888315188 5.541904707897323 7.97440007271911
Ni 11.62006895051609 6.98972809734194 6.582496140240536
Ni 7.587492412978258 9.44100620470549 6.9374886152734385
Ni 9.46853323363499 12.266479173414739 8.191824028917393
Ni 4.101820492463152 7.724706109701254 6.847957873002149
Ni 10.581954318655404 4.808477422793378 5.98286085577828
Ni 9.668554202817568 6.276097006171185 7.474758814629682
Ni 11.102183017363872 10.4778052685233 7.613714688898641
Ni 8.46433612807139 7.8532677518838225 8.619752319682842
Ni 4.882277090120285 6.018230832773859 8.478810556726463
Ni 9.112197630793867 10.05009762554184 8.601803864019294
Ni 9.152792563867138 4.117388794593373 7.900364934804446
Ni 6.611854648470394 9.71610439404583 9.215564549251344
Ni 4.518082517698968 8.430709532196403 9.191665144514007
Ni 11.042604813347298 8.252622233708784 8.578459309685648
Ni 7.22240287247683 11.580119205509183 7.743138569706696
Ni 11.045274956836046 5.906205296535258 9.188611156783054
Ni 6.6820685139041585 7.202312988599206 9.904641516813244
Ni 8.723583905242759 5.54382209490267 9.825559658361328
Ni 6.378861838146293 4.971050737399821 10.140961521458443
Ni 8.072915108042272 11.418904869058098 10.072751000651316
Ni 10.461775568313046 9.805967021444626 10.358203649805612
Ni 8.192390372933433 9.128754304830435 10.884033548944824
Ni 4.647740400329903 6.645294389599103 10.784069155649084
Ni 5.809060387055346 8.784447649656475 11.273279343171195
Ni 9.878382366322903 7.503840316015579 10.497584513367462
Ni 7.9451505645608815 6.867841061706841 11.711178684996002
