33
Energy = -140.30052787 eV
Ni 9.89746938405533 8.059715622271595 6.0428097479316225
Ni 11.91347534885944 7.756251646913222 8.066224199645918
Ni 11.107175178090971 9.825411010992234 6.84168818623853
Ni 12.662302762705025 10.090671135853869 8.547525473590644
Ni 13.488740094770792 8.45260678048274 9.988424545828813
Ni 11.671108626585127 11.990871996372555 7.496042899526462
Ni 8.662668464339363 10.126407047324689 6.9020376510798
Ni 9.68844366772993 6.283062187333423 7.615473182054001
Ni 7.794957725915487 7.854973210619501 7.095407392628252
Ni 10.439071014749864 6.72307808269745 9.84905746352415
Ni 12.166381501668956 7.112970106364193 11.344340195239209
Ni 9.72055458238464 8.475716436130803 8.315521488409402
Ni 11.261531633778143 8.917772756304316 10.06374387345109
Ni 12.601880860767173 10.275967716518307 11.447616224255219
Ni 10.058102056256677 10.848680236528129 8.738679283421307
Ni 11.919962422684677 11.894873381077213 9.79519669760063
Ni 8.115881034249258 6.966159323664365 9.267130965842684
Ni 7.776072791735009 9.533643321622833 9.150265500574042
Ni 6.445024417055102 10.828197447453707 7.363037643090357
Ni 11.612595254634313 12.560665253675031 11.950586709988922
Ni 5.873381169138969 8.7277312650114 8.023614804988357
Ni 8.963231535199155 8.486253375307541 10.92026921268146
Ni 10.20073572036274 10.715140987682897 11.138511860541701
Ni 7.9754562561308076 11.90269656128685 8.72558394832609
Ni 10.88131035020831 8.714806756154138 12.390883258060345
Ni 6.275171084134667 7.991969386062922 10.157840408475765
Ni 11.072379145211862 10.803772094085511 13.389997390773036
Ni 6.889256989601736 9.497037714714077 11.70470701227338
Ni 9.732498286096849 12.815931506835627 10.230915331392273
Ni 5.991892073294517 10.738269608357031 9.7469942530155
Ni 8.850846890829182 9.977179018127728 12.88761337349606
Ni 7.936974657302926 11.394290671486567 11.020755046293496
Ni 9.371845361862732 12.340136837347682 12.63737886957412
