36
Energy = -153.56412583 eV
Ni 13.37339576454923 9.607668193705305 9.331354225389825
Ni 11.704162936337598 8.159012330411027 10.222904963557465
Ni 10.005846111574177 9.826940130902901 10.706822894588402
Ni 7.910791536688203 9.716217934332834 9.857414940119973
Ni 9.133561028547765 11.742155920730037 9.74181895533699
Ni 10.260427237861306 13.848368569199351 9.70915268218121
Ni 12.488294689050324 14.197029023903685 10.456787910535052
Ni 13.559263163618501 11.89756304739542 9.3357999566575
Ni 12.280305445512823 10.187852255984016 11.375311703251777
Ni 9.728283634633614 7.582887249805813 11.385055002816127
Ni 8.260044820657924 9.19609398844521 12.124096738897462
Ni 7.432024052853333 11.321257016874682 11.496279069228333
Ni 8.75149324905096 13.244944390128543 11.50475464433434
Ni 10.325201565430875 14.862831778109229 11.83953879634193
Ni 11.013350252114344 12.321949815771646 11.31874168152907
Ni 14.244879696043636 14.65089498120894 12.106959025506727
Ni 13.416153422592636 12.410571079075414 11.63233110942291
Ni 14.782210869757929 10.528728074626676 10.987328407813152
Ni 14.818096970989801 13.621459192042265 10.103123383605237
Ni 15.697078543142124 12.57732000058933 12.101263839864231
Ni 11.870194192648375 7.19044078228337 12.307913667625844
Ni 14.27481150567729 10.88878102651924 13.283163825120734
Ni 10.675068967553127 9.143739991865177 12.937623984222032
Ni 11.387839697741885 11.147749002819324 9.264082777690469
Ni 9.4451407695334 11.154953357941281 12.728676055329299
Ni 11.858606273618506 11.40286547230306 13.450044159607062
Ni 14.11485282726463 13.030531478120425 13.884631858906012
Ni 10.83076703102565 15.490459938492165 14.002798253394644
Ni 7.714911633060421 12.538714907636978 13.488913735915586
Ni 15.396825439593648 9.02765609550955 12.787156021480559
Ni 9.990607934534655 13.267708134774503 13.558283465194927
Ni 12.92380915269068 9.0087270868683 13.424920317484208
Ni 13.76064436963052 8.320006567868372 11.356744772930643
Ni 12.155607982058475 13.839261624913497 13.041280041546033
Ni 12.334782028663568 16.041461369264926 12.16481520019181
Ni 11.15537374806154 16.078990005782853 10.085288975111723
