38
Energy = -164.72200321 eV
Ni 7.611718287378132 6.027631703644501 11.21883932651839
Ni 5.983224352810714 9.753181644942051 10.53615855838537
Ni 8.864656145700124 6.442129216330292 6.680843349875667
Ni 7.045281514145424 9.586456831646295 8.310784354812938
Ni 5.032678914930237 10.671552859717842 8.213360935206756
Ni 9.020436348108673 10.885347181021483 8.21638474488512
Ni 7.366968326704093 10.333155404296189 4.667519845731721
Ni 10.910014910698212 5.310866414693831 6.284284372178974
Ni 8.404063956806121 6.0978321300916365 8.958951805716076
Ni 9.146452132978753 8.27364477477357 8.343973770052466
Ni 10.662387135256878 9.750124211551245 6.983533330395064
Ni 5.250022575792379 7.130027409586216 5.728039536453261
Ni 7.048933298293338 11.38117334457599 6.84203036739775
Ni 7.087273065252449 5.712970012014056 5.284174761396675
Ni 9.239176599150316 11.20578594479589 5.774985308516895
Ni 8.883152362254698 4.274731892161155 5.691378269408809
Ni 10.717813659237454 9.468628570513703 9.40593746854738
Ni 5.822965835121605 9.30980212484596 6.304881724654247
Ni 8.501579375230335 9.815222682980556 10.284245173859762
Ni 9.843534823904216 5.127097564706373 10.379515339897589
Ni 6.019502188080158 5.877615977854797 9.276037959409845
Ni 8.340069799705933 9.132005543867315 6.403882059054715
Ni 5.069316027412436 8.25497291438122 8.67771778679706
Ni 10.727661839531246 7.6432989875035515 6.164789377338775
Ni 7.29095906773042 7.932298203693965 4.738501428499516
Ni 7.511756337705418 8.367540917181714 11.96821724190932
Ni 4.890399926879822 11.739046248285193 10.235964873646127
Ni 7.007011015582517 11.65687143960083 9.331124387139532
Ni 5.453478602631754 7.41451859650375 11.114508975768077
Ni 9.497277055203794 8.949783723973768 4.492331041307923
Ni 7.200699261887004 4.753009661205824 7.4376247391320565
Ni 9.521011291540844 7.582826294098407 10.59874104504383
Ni 10.709594684677649 6.5084541391402215 8.456312723149798
Ni 6.818068272011329 7.276685667494995 7.3944932493571285
Ni 9.394606204738285 6.498332453548156 4.502324338234337
Ni 7.200154920853398 7.8603686914226 9.765533172352594
Ni 7.733575569867446 4.062460159137782 9.703591608322643
Ni 9.572335209987509 4.332359357997823 8.028292545426437
