33
Energy = -140.3130518 eV
Ni 7.710989560004604 11.66380059455411 10.73685980543041
Ni 9.41721977347821 13.373301546554478 10.546444000336807
Ni 13.440287943327071 12.691590484396272 11.42448203259119
Ni 8.336089709436813 10.642134104390394 12.713181187887686
Ni 9.077943038969165 9.219258795531614 10.435280861543436
Ni 8.257366159012461 8.295095634449492 12.88001386955398
Ni 13.18238168650743 10.676120783294767 10.23717978353279
Ni 10.48937027183813 8.015495427845881 8.819331481273021
Ni 12.106009716807947 10.85933062507309 12.36391783507999
Ni 13.996001409036863 12.6777067033295 9.160569625553128
Ni 10.714086068387811 11.647969965003677 7.178584465170224
Ni 10.213639976107691 13.654112663782934 8.310121675174116
Ni 6.05782897012489 8.045806336067756 9.534212758887588
Ni 7.129792054562053 5.8613340442728346 9.16939104286669
Ni 11.686759796712646 12.60159239780659 9.749858690758758
Ni 10.040877115867975 7.346145962435361 11.591652875847727
Ni 12.909379540586347 11.007521010780426 7.913441814139291
Ni 9.081993194297395 11.668905569395104 8.895048054917549
Ni 10.071064726959994 11.245599636578723 11.197507651685633
Ni 12.755653100305635 8.736383254540733 8.83175609116749
Ni 11.22172204095003 13.076425766013783 12.09890903124014
Ni 11.016345565065468 10.305459459526011 9.088137492427471
Ni 12.86877577972608 12.602881215218975 13.640775036228138
Ni 6.881305502750972 9.439000180023134 11.288037648984735
Ni 7.744854072235168 7.201738661063074 10.917200307872621
Ni 11.682895018760057 8.948992857570365 10.920732028312928
Ni 11.79571957205527 6.6973471024052715 10.133425587905343
Ni 7.3542080824317 10.033828328234199 8.9885531201577
Ni 10.321284120576344 9.406820971087207 12.751256419341185
Ni 9.294674605605211 9.704250411273366 7.626767911235048
Ni 9.470050674623005 6.082078054932308 9.67006813695437
Ni 12.395851730782189 13.300538364274777 7.55459317587878
Ni 8.15730615951083 7.827032919956893 8.565582671498914
