31
Energy = -131.15445085 eV
Ni 12.084229406162438 10.553207230919156 6.898555138113005
Ni 10.40838595636185 8.819147097289118 10.494297016099386
Ni 13.777008995533208 10.788109573830825 10.144631024761894
Ni 10.82209071264445 13.559662035157906 12.073435266823036
Ni 10.246950336440907 10.513524593961243 8.335808981744934
Ni 7.039510965182919 10.645587404265534 11.59822759868922
Ni 11.306617391091443 9.17556262086289 12.852672031929776
Ni 10.621209590647853 15.754050413847704 11.34171603277146
Ni 7.427099252789841 12.531593231363384 10.070551014508764
Ni 9.40445525075406 6.674211547416041 10.123710690754509
Ni 7.925318571128368 8.418985224109562 10.865601098421438
Ni 12.070824262071513 12.012399188238655 8.838384216121424
Ni 8.966848790904713 14.279859220274837 10.749590475302734
Ni 12.577918726252475 12.725389676346323 13.45975741789415
Ni 9.672586844062499 7.52868105935401 12.292889505414575
Ni 9.901061245068236 6.435169489202753 7.8410363643664
Ni 9.156921919978904 9.873015647654947 12.288304671911156
Ni 12.740477790970717 8.74037069583795 11.03206397666592
Ni 10.952172411930515 8.460565460395925 7.351106801200937
Ni 10.660491972617729 11.476841036337287 13.202119043262643
Ni 11.151210698067823 11.049122307426781 10.876314125123052
Ni 13.079864330223156 10.727232342884145 12.337106453922091
Ni 8.90037952644502 12.138926120294173 11.801639607497131
Ni 11.594465917704136 7.267893128254594 9.279906284324495
Ni 8.955656119689973 8.455275869631878 8.645805796042872
Ni 9.757293463046185 12.496468211179865 9.488279592726961
Ni 11.334824754587062 14.150109143319368 9.86396198555794
Ni 12.279597016265473 9.556508717892802 8.953926678190992
Ni 12.352337069863077 10.554003536980387 14.508250054355072
Ni 12.794072119081964 12.730329087678944 11.030390172328566
Ni 8.603286169334885 10.473366664694828 9.925128460077469
