35
Energy = -151.07172405 eV
Ni 11.987440923389224 11.607555321666965 10.247448501113901
Ni 11.536094315367748 9.484814425465592 11.21408801116332
Ni 12.63145401014669 9.624847859110472 9.122263986125441
Ni 10.056651809464546 11.40926992281944 11.477514093411191
Ni 11.820173426356282 11.60104995298959 7.94697396624313
Ni 9.863293142526333 12.34433363270931 9.241789775215828
Ni 9.85943207883948 9.394912746264579 12.796851064101329
Ni 11.803550598461264 7.476639693081447 9.94827683961334
Ni 8.301994587309176 11.107942348331123 12.946294972754732
Ni 10.2368066697792 10.042218326199421 9.256597552520821
Ni 9.608509337304383 8.115228331577073 10.796167917587383
Ni 11.417512039734698 9.410959884747681 7.102053510771015
Ni 12.886818471160913 7.708418567750555 7.807206730967747
Ni 7.90438194049392 12.369951277651387 10.74125887152697
Ni 9.707111416724311 11.041816954305771 7.122165689500401
Ni 8.24284873882314 10.110924583491723 10.699144054277303
Ni 6.277994880922985 10.865844789272566 11.94051396367431
Ni 11.591855934442231 5.835929037197322 8.230389430804223
Ni 7.590521481429339 8.74329476067177 12.36685855063132
Ni 10.178573643688015 7.797994650175383 8.3598790394937
Ni 11.066295471652104 7.227538526550109 6.259294525382256
Ni 9.596041211064515 6.0008830948615675 9.647860034892098
Ni 7.867672510415205 11.177675715434845 8.59655192840928
Ni 9.86467897008081 9.35579542051089 5.404071642108998
Ni 5.859718926607507 11.446935900825004 9.75370454542673
Ni 7.973946807343701 8.701690155685046 8.71421599782196
Ni 7.48743191424441 7.1651949940241675 10.502794801201022
Ni 6.090208363651376 9.129107267388033 10.436369909247508
Ni 9.549970820795467 5.543439261712271 7.213661049356211
Ni 7.788941638100844 9.810899573680853 6.592101629104515
Ni 8.743784545704385 7.652772098467705 6.48382777473935
Ni 5.9324084928182685 9.75434364105514 8.11666497299837
Ni 7.667751980756939 6.3950077760721245 8.24556690171827
Ni 5.681450605303593 7.422668949353636 8.929160143018409
Ni 6.414505474248869 7.859519351059924 6.775528992605233
