34
Energy = -144.90211502 eV
Ni 7.609328581789245 9.612669869081111 10.27652630679706
Ni 9.47749325875559 8.014681370835977 10.548280962738628
Ni 8.364994261156834 11.846229506284532 11.070388569917231
Ni 10.242086196034391 14.653797889852592 9.265351398646942
Ni 13.731025464231758 7.506021055993458 11.890836512987919
Ni 9.580745331525303 12.035475708306528 13.090018863613246
Ni 12.981447707689261 9.382488260516542 7.694074732656328
Ni 7.240154038810672 11.689468193682584 9.046415395325578
Ni 9.729236825205872 10.233133439867524 9.648515223398306
Ni 13.620827681544718 9.93161456265152 11.729191875272804
Ni 10.809616623125981 11.846564545745899 10.978749212159457
Ni 8.015625011055667 13.1346438788192 7.392841418237232
Ni 9.6602860676244 12.489112217260585 8.843256669836071
Ni 11.172712714876903 7.442675891975891 14.862196775734088
Ni 8.742746953154375 8.570601593613862 8.346784902442778
Ni 12.101102043294421 6.329455539987373 13.082932503565276
Ni 7.9814813980621615 13.843533358827978 9.713895332185094
Ni 6.692205607232023 9.658646241651246 8.07097520827595
Ni 10.29105307502179 7.818072053627589 12.762194919406205
Ni 9.327855174104114 9.915916832664614 12.076938354787295
Ni 11.073974611160379 10.811100966761064 7.781056052131053
Ni 11.687381202620843 10.871412023963686 13.021604956808003
Ni 8.68017803941137 10.790100203462744 7.481282253692524
Ni 13.063300315599777 12.210882170159316 11.321301782688849
Ni 12.39305601711895 8.686198753695312 13.384048000326386
Ni 12.582887733539783 10.604542915678383 9.61107234638379
Ni 9.669136655350934 13.839762418530398 11.406988798455206
Ni 11.939008732632512 14.299204234282243 10.83179480678638
Ni 11.64760774814274 6.989892642671507 10.834097762203877
Ni 11.564894255401557 13.24350689665179 12.875328406773953
Ni 11.94946990566005 12.769646133597497 9.08607918515357
Ni 11.444941559123826 9.281038190049184 11.212344796028802
Ni 11.139646830253062 8.492950205192102 8.832165891141353
Ni 13.332040990581591 8.38762301833354 9.798302322550905
