34
Energy = -145.17162611 eV
Ni 9.138448477920893 10.762736379247938 8.743276805238219
Ni 12.874438451514605 9.303368461635712 13.858599813220682
Ni 14.299058663699654 13.15961711467443 13.788888158443925
Ni 9.921988548667448 12.337999825565308 14.200981893338714
Ni 8.547285856018002 8.668059817950413 9.583766625480578
Ni 11.96055589273188 11.78553203703723 11.133731877072785
Ni 12.638126322839822 11.543373113110462 14.746086122678934
Ni 11.048890724547887 10.76476831142953 13.035967562027556
Ni 16.585962552186427 14.2619509801286 10.471547795926321
Ni 13.069002444101894 15.174646092355731 12.50028780082295
Ni 8.30865293568177 12.499355718753542 10.257109090830928
Ni 9.965770347663828 13.007203077408342 11.884518805196539
Ni 11.671150497937097 10.39056949695361 9.321637952055218
Ni 11.04264808905434 9.856937135666515 15.201797859084182
Ni 10.716006990776803 15.003304116127618 12.830860328191527
Ni 13.970699182162106 10.892124260545753 10.276112849611122
Ni 8.27063608730961 11.484152016211226 12.49962574107298
Ni 12.462730497409478 9.478256168242348 11.520743956263798
Ni 12.860806442023062 12.7881466426252 9.18082061238279
Ni 8.62508203145888 9.015167695569273 11.97591173650744
Ni 13.793531707850214 13.173798376957308 11.427258661840222
Ni 9.067464085012462 9.976788619269461 14.063654457142015
Ni 10.75163454861565 8.484702792231976 13.04347008969372
Ni 11.729789932749076 14.247793851065225 10.77367245098797
Ni 10.565985060181676 8.51588167792119 10.6393882878229
Ni 15.342697149704195 14.704198648295598 12.334164454590686
Ni 11.996582507408178 13.133598698269115 13.188125476546187
Ni 14.27435698259681 14.909482022211632 10.121382774292238
Ni 15.82242354521554 12.345643189239052 11.814377345715656
Ni 15.19598739985978 12.742073314537953 9.508413434378399
Ni 7.366331487865405 10.411531386630408 10.520708912998035
Ni 9.826914129386079 10.70506201063443 10.917560087254508
Ni 13.802090210556482 11.134247226792244 12.699779086835003
Ni 10.509782407080552 12.594267705935781 9.459454663653151
