38
Energy = -165.30608482 eV
Ni 8.72545092806463 6.210673981137863 5.807979905359628
Ni 10.395256030820928 7.66546086728834 6.527862090154449
Ni 8.177110637839066 8.544378026198908 6.068992480734233
Ni 10.016333004685785 10.055509800275965 6.770592949229742
Ni 12.11974001818603 9.067575846885735 7.271516303516668
Ni 7.145553781900188 6.880341590194692 7.363403799436132
Ni 9.269660851453192 6.1298980676364705 8.10708691350023
Ni 7.736556802715019 10.660145905151177 7.0700361645367185
Ni 13.916448103537567 10.354659055866058 8.0129031020766
Ni 11.808400401323505 11.470471200148143 7.702451120773217
Ni 11.072004294672672 7.4996736800011785 8.83811624506762
Ni 8.951614315198642 8.493674322114446 8.244477749006853
Ni 6.655941097815177 8.958828907077871 8.378277600628003
Ni 9.499749130422984 12.154416086035877 7.813472453225158
Ni 7.160643839704331 12.705837275639444 8.022356663289653
Ni 12.835552646422444 11.131664974209327 9.920033387126049
Ni 12.989673873524383 8.780971832123127 9.482763741994951
Ni 7.633925080063565 7.0697768917156925 9.655069728336292
Ni 9.778035274482315 6.289502170451434 10.499556006988534
Ni 8.514305177871716 10.59281840509365 9.283404352897113
Ni 11.94538312730516 7.226703776502135 10.965245316998619
Ni 10.836675365994974 9.9763431171094 9.140503388014212
Ni 8.515280743459535 12.860964724458666 9.918773246652774
Ni 7.143202919531948 9.16993988525468 10.714152451831996
Ni 10.851301537396939 12.416725265177318 9.767288337766836
Ni 9.527179002417526 8.600409305294301 10.57648346682526
Ni 6.31083855840206 11.095838655201627 9.450248862062653
Ni 11.771625977294585 9.494419313521494 11.412372947958962
Ni 7.494181436947843 11.388585711817953 11.522934701334217
Ni 8.118097977110939 7.270172625107166 11.951803764910084
Ni 11.863639889683682 11.856486208532349 11.921766654555936
Ni 9.78510719064176 10.896503225416986 11.280464985104649
Ni 10.352045342475282 7.926500078358716 12.628268609810293
Ni 8.467194881057852 9.468809257580057 12.713164971432077
Ni 10.691640633803457 10.224689319793704 13.391475617003513
Ni 9.829972986408604 13.131293956729932 11.901991306387123
Ni 8.813643095600781 11.67797035147562 13.457602793167773
Ni 10.9181865685611 12.509991824815181 13.954909577876098
