33
Energy = -141.00214259 eV
Ni 9.884050651328174 15.13580967129105 7.4313826447353755
Ni 12.617803880068328 12.747334370759145 8.88485069676416
Ni 8.513391869753756 12.01168600427679 9.326715549361246
Ni 11.354836161485132 14.757896920344551 9.159232285759096
Ni 10.079955169775936 10.282106681624937 10.754436411041704
Ni 11.176874558785153 10.773062751915381 8.715016078706158
Ni 14.021069816034814 10.108577948081859 11.996050287349366
Ni 8.697869214638896 12.898089916715286 11.531615724892665
Ni 10.362543464430448 12.923018012756998 7.87156939604001
Ni 13.055279415560546 9.908192624468086 14.202726676853311
Ni 11.388382616713463 10.031076963438993 12.717911360201821
Ni 12.27743193967164 11.374841069463265 10.914271769916164
Ni 9.122927632950113 8.981245085422273 12.767112632770058
Ni 10.547018452432479 12.695220799599543 10.174378316722645
Ni 13.617840861399666 10.634514334617593 9.070513271769817
Ni 15.49252600476349 10.231758959063042 10.284964338106448
Ni 13.216351797101552 12.101764995711381 12.963566998327206
Ni 12.944561752404358 8.135309634745703 12.532067032006037
Ni 12.568622870084225 13.793325464962631 11.059852929081742
Ni 10.121597972269969 9.768529564559868 14.832505046131619
Ni 7.901583708367543 10.609106547939797 11.260505457539491
Ni 8.767535873414362 9.847718834652898 8.810519691002618
Ni 11.40482363238941 11.657185812400362 14.480242926113954
Ni 10.589200950542793 8.438983409745875 9.189715063152851
Ni 8.64303995606338 8.332001362187661 10.576190534944534
Ni 10.312992585747406 14.721908290349798 11.326459741231066
Ni 12.469871996688246 9.117648519064572 10.397551586667639
Ni 10.976305999757347 12.784351589802315 12.51940163748006
Ni 11.06693640034279 7.944585733681126 13.88103664256883
Ni 9.310531402115078 11.262035222430224 13.142122137937946
Ni 10.804776339278664 7.887709446212165 11.520497549860874
Ni 8.968482691134378 14.3182489290624 9.379726894207764
Ni 14.38049771873896 12.247615355108234 10.719481892901586
