32
Energy = -137.54837456 eV
Ni 9.925239548166333 9.129296358899945 12.592674921280672
Ni 11.164263309175276 11.164045157811717 8.480119442058603
Ni 11.16390178187622 9.93760516997382 10.579083821094205
Ni 9.904449228416235 7.995552720652225 10.462617588481097
Ni 7.251138888718507 11.164131492852713 9.989683230469703
Ni 9.159315285104986 12.398354407200708 9.199713510248456
Ni 7.1761455741070375 11.164087862767614 12.45635219195418
Ni 9.17368718873498 11.16408093653934 11.321145530085941
Ni 11.164259979863946 13.55268714517882 8.515623090052294
Ni 7.958491141383923 13.133776124810558 11.19810975672212
Ni 7.958452556097103 9.194410174790312 11.198011219371853
Ni 9.904475942157028 14.332543856213212 10.462688729816524
Ni 9.92546558791372 13.198905692938586 12.592661017380019
Ni 9.12443721534685 11.164181094045377 13.775589664380798
Ni 9.159341675478743 9.929816416328304 9.199674735063937
Ni 13.153784524236642 11.164001762630397 11.320977297219608
Ni 14.369525735703832 9.194548657741068 11.197943544094045
Ni 15.076583429625687 11.16401025495373 9.989771044334722
Ni 12.423805234003131 7.9956093781404105 10.462459742862487
Ni 14.36966201576962 13.133510811755022 11.197857440321615
Ni 13.168837983994285 12.39843899951907 9.199616435416203
Ni 11.164215085867951 8.775368062781757 8.515432662941981
Ni 13.16877296202296 9.929633249407297 9.19959496999951
Ni 11.163930809672758 12.39042046508101 10.579126462548794
Ni 12.423886861379348 14.33242743341805 10.462599321857697
Ni 11.16403932676997 11.164028825697192 12.61040442700335
Ni 11.164333969164792 12.384102596986983 14.536840809693762
Ni 12.402896103518586 13.19870181418688 12.592491459185878
Ni 15.151753020685621 11.164059414560551 12.456342612540102
Ni 12.402660358796211 9.129294266399663 12.592447346677893
Ni 11.164190783148868 9.944017580194501 14.536869922827293
Ni 13.203641193156331 11.163935665514233 13.775059901985877
