31
Energy = -132.07386002 eV
Ni 9.116172721768054 10.502268051194509 5.735441752205313
Ni 8.27866926717693 8.37434874080597 6.43914695160251
Ni 10.58700486001093 8.710925736909855 6.083636499556073
Ni 9.90024024866457 7.4263748605640805 8.023689613374225
Ni 7.308107376219274 10.427605178590005 7.281741120753053
Ni 7.774386233034675 8.308965226818824 8.749769410655844
Ni 11.221934381232936 10.95079654751311 6.827075073399079
Ni 7.65887180323852 10.496013361983985 9.643003830088379
Ni 9.486250494677169 9.7508151178237 8.045485696840684
Ni 13.129080527959434 10.711352022033408 8.50778152247085
Ni 7.018947199946293 12.426262407700065 8.524776598471998
Ni 11.751827440095054 8.95151713351783 8.080934230019917
Ni 9.117388870504177 6.958633858111762 10.196722516516864
Ni 7.54658347874913 8.564519406275906 11.11984506309406
Ni 9.150673315383436 12.028153465246032 7.571326864641389
Ni 6.910924546363437 12.400526165771648 10.905792166088151
Ni 8.99791368528102 12.439502344391277 9.907325664460283
Ni 10.913581997015742 11.331815347444513 9.112677317726241
Ni 9.740558709921455 9.247105405290723 10.485587952579463
Ni 11.440964583894997 7.500061952884323 9.86751407562641
Ni 8.25995892607605 10.73685050348732 11.889256502694202
Ni 13.598294104089115 8.461209836591847 9.436372035223277
Ni 8.381026800386902 6.763145995775884 12.4144734741932
Ni 12.123843397185427 9.889871947131175 10.487953762291937
Ni 10.593082225853028 7.357989505714574 12.06528198679012
Ni 8.87593950226299 12.899684184780485 12.27192578134123
Ni 9.0731946582342 8.89650987022521 13.002621637321589
Ni 10.52755369719281 11.427065481735463 11.45179245461237
Ni 12.829172372846225 7.9975730014525706 11.703300257036991
Ni 11.348789473764196 9.549207729334285 12.685175827486075
Ni 9.77915983212023 11.0689119434797 13.64097762577109
