38
Energy = -146.30288029 eV
Ni 11.248801533401615 11.968268083544437 17.028043384086427
Ni 12.687888193861728 10.994665310619943 15.453752013964758
Ni 18.875413113707417 11.717973184331573 15.996917247797848
Ni 12.05682066595075 13.049032612708322 14.985891165444425
Ni 14.349702176673349 10.150229252814317 14.167434309725866
Ni 17.277559081085865 20.08270464202274 11.934420769321578
Ni 11.054302957334924 12.819065108744239 12.903907246327408
Ni 17.66385519615539 12.655557270231078 14.359961420025941
Ni 15.38726352512468 20.374227862407785 15.993241418993161
Ni 14.220894073186841 19.695299841231737 17.969882962221263
Ni 19.15456068205376 16.273451649118368 12.56006425600058
Ni 16.432716331703645 20.27399936793238 14.010871537338678
Ni 18.73716502595811 16.410579078903844 14.831878002132154
Ni 14.82220014884194 18.62616076056806 14.683831042834012
Ni 12.960649379308505 11.679289259513421 13.135498808987705
Ni 15.528648233706573 18.120597262638235 16.828997387332517
Ni 17.540299671593356 17.189753607858243 20.082407001914053
Ni 16.58521545870531 20.187554725341677 17.92589376046573
Ni 19.476595919683298 14.379429346438851 13.93991945780945
Ni 11.360626904367686 10.668116515458882 18.80483447674651
Ni 17.72678132861054 18.108449545192677 17.942040684509376
Ni 11.247631430941594 9.60238180493469 16.785766876041738
Ni 13.327762029551472 8.838889445231048 15.812891819618988
Ni 16.875435732518987 16.27578010599637 12.78479915821758
Ni 18.060816280631045 18.50776256106837 13.600329937918673
Ni 17.933104454908158 17.867808038886132 11.381248311633227
Ni 15.664715326556253 18.203660826479233 19.152244114769918
Ni 17.6527198339913 14.144775534996446 12.542549718042112
Ni 15.934579649372798 18.375631176124983 12.657793645731255
Ni 17.372839818359786 19.439193594421912 20.052303351289872
Ni 16.936649492888854 14.838756172595874 14.633957606300534
Ni 10.511576033559495 11.363092388408147 14.608914512477687
Ni 15.290797937782662 20.392707872930924 -2.1616055120316973
Ni 11.999618593478507 9.642295445754792 13.725318178315701
Ni 18.626641477932598 13.974626513839208 16.007675416883735
Ni 16.501027690646787 17.043864569209767 15.04244984313816
Ni 13.272354474790847 10.232535027326154 17.60959247623067
Ni 17.454600999408537 19.12445389952226 15.87037581790418
