38
Energy = -164.54124719 eV
Ni 14.881632176656405 12.528525442382437 10.090678982017241
Ni 13.109759337096092 13.246668485685177 8.773260910192196
Ni 11.075309954795022 13.703621464975575 9.721934533200013
Ni 9.278262736464661 13.510892482983062 8.287007692597433
Ni 13.46015322028964 10.978922485648878 9.051167568445162
Ni 11.159459147324794 11.794285208638177 8.276987183276782
Ni 8.776836230029762 11.320229070827434 7.821780440831332
Ni 12.93318218505149 13.264437128234283 11.18455827090402
Ni 10.584921359333999 13.169315353613406 11.927435255688113
Ni 13.956734868955607 11.018765572488306 11.610754997746133
Ni 8.89440443072135 14.145594269238842 10.516146160437012
Ni 10.388618024730434 9.966955225790961 6.848152137675795
Ni 11.59198732914586 9.50775278616793 8.78021821591505
Ni 11.823927894483692 11.308847977964582 10.671460413068441
Ni 9.558659578027623 11.72971719409614 10.111692613075892
Ni 7.441766086790357 12.469520362299885 9.497893494329704
Ni 13.14081704860489 9.122942291011652 10.483134824868923
Ni 12.249592583535838 11.902842300276296 13.014692018918952
Ni 8.211406147874888 9.092934806521502 7.1462830223612395
Ni 8.229873315101473 12.396316799375834 11.943943171421223
Ni 11.662558459073336 7.284810733039018 9.815905662424022
Ni 10.11278188792635 10.942465357914331 12.4332251472663
Ni 10.762505320107438 9.096843555809054 11.022247238916021
Ni 12.298013262178436 9.562627359629975 12.75856458823515
Ni 6.76509444021078 10.34926829796622 8.6279545787012
Ni 9.171765158861918 9.425725466038353 9.275626480584922
Ni 12.820299493583278 7.354221597138523 11.925797264204444
Ni 10.18797046894289 7.797845808362513 7.913676543704498
Ni 7.533919560197911 10.449630968004247 10.842277115622887
Ni 9.296365133739704 7.072026518590405 10.003486950654041
Ni 8.057073504020275 10.299554411629678 13.183829082245037
Ni 8.559741772195403 8.544744037424397 11.689494796411973
Ni 6.082198814678779 8.310675836795756 7.684864784420848
Ni 10.022685916477096 8.884771435920383 13.522024539335725
Ni 7.1804940760259965 8.288357532236404 9.759120360794464
Ni 10.51941462110841 7.031412940340167 12.046948743837822
Ni 11.856960100144843 7.58795789538479 13.992951997205587
Ni 7.959935915886729 6.927923358385705 8.042511870333623
