36
Energy = -155.54591439 eV
Ni 8.359382994356293 11.238019081979438 3.872798077704311
Ni 7.591366798038327 7.853231124878658 5.4815377433526296
Ni 6.72098059899776 10.128525527815635 5.057151726529374
Ni 9.969851159001788 7.39393463264947 5.0334118058551995
Ni 9.280055172816683 9.701010495227894 5.282805173329944
Ni 8.692765412501517 5.971818398732459 6.5158628640278495
Ni 8.188853897319772 11.751297158300256 6.108440599433361
Ni 5.606379747743982 8.610757927823675 6.608643475356742
Ni 6.254613605696698 6.06813913290212 6.545068132646762
Ni 11.371797721000616 8.908318471482378 6.287231221064542
Ni 7.66934956498702 9.700876049928626 7.112960422928755
Ni 5.904152957608022 11.125919886910694 7.2408630905154165
Ni 9.358557911215055 8.142755514192375 7.145322363927384
Ni 9.92830737257795 4.695566478003611 8.075628921564897
Ni 9.97025166035867 10.419746797876101 7.654611115504864
Ni 11.034474644765124 6.540355177873107 7.0749170803298504
Ni 7.245794137241015 7.502075831864976 7.963033087043373
Ni 7.9933936510521075 11.582069388043296 8.427913930700464
Ni 10.433497445291652 10.140468455257107 10.186644984389455
Ni 11.369131804579595 6.024908648203845 9.427100287380936
Ni 11.12232141680948 8.44092648081706 8.63457980338152
Ni 6.064580331018882 11.540378137080332 9.722711065566974
Ni 6.069832755218383 9.361393624246299 8.911793846769765
Ni 9.225182419244469 6.794994017961361 9.174436017660282
Ni 7.001024259794861 7.591659633521055 10.341418166245937
Ni 5.555743615250638 6.292264687278474 8.931541386457623
Ni 8.547328497324713 9.20473071629858 9.27705498930539
Ni 9.207570800666694 4.767240365395532 10.28186664653029
Ni 7.564182193625089 5.14217356270612 8.470216325014295
Ni 6.522317152111032 9.727042228995897 11.22300381935922
Ni 10.641462523169713 7.8163532386228125 10.826355401248463
Ni 8.27252319105863 11.157900694855668 10.66892655490957
Ni 8.796111500063262 9.040260391820194 11.627794540069717
Ni 8.741402221324979 6.643880486998064 11.635062130913171
Ni 7.00803625611364 7.863747532405964 12.640686608118767
Ni 6.943917421557006 5.341754832550114 10.757101406362327
