46
Energy = -203.68466786 eV
Ni 9.355086009663587 10.871202116608854 6.025383250874406
Ni 9.740300834253478 8.846912307408067 7.218945276746501
Ni 11.615406235028793 10.257549886130382 6.504386430813941
Ni 10.665555585760327 12.687046889378395 6.765231711860437
Ni 7.6914781766969575 10.047262252128398 7.457662296647366
Ni 8.4704405655645 12.324122103751018 7.772368091606726
Ni 12.010421079634238 8.139285748785799 7.57204962792657
Ni 13.690843717503041 9.83101049796708 7.642611349505393
Ni 7.965578874167421 7.859619470240068 8.53686494031145
Ni 9.180431496202152 14.475134222187373 8.21940861934216
Ni 12.56111812982146 11.822869348019163 8.016046916270804
Ni 10.13064887748243 6.8644713258121985 8.511256999831172
Ni 10.26798346026845 10.944346997153222 8.300207174541352
Ni 6.27539147088129 11.723052915791861 8.360935940684064
Ni 8.568722022363424 9.885916442294945 9.638125125594268
Ni 10.896062510250962 13.240408555583752 9.070454273569645
Ni 10.871045480586401 8.936315839988168 9.424796213274858
Ni 12.353398421553178 6.590675970981861 9.346218520132771
Ni 7.600392855961162 13.35610742540686 9.634349442732402
Ni 13.185797078678394 8.748730687483643 9.64805901262233
Ni 6.234307804289951 9.454216532387251 9.232136537701715
Ni 13.989134646783839 10.942081019427365 9.794712432943435
Ni 8.269059457093602 5.861993517956896 9.877162087899965
Ni 13.180503643492589 13.218861101874246 9.780313319273171
Ni 10.57379145361067 5.801531169163267 10.614488046538838
Ni 6.382594487144788 7.24827811034214 10.161760915423653
Ni 11.714039839433921 11.181578060230141 10.227562365494482
Ni 9.476607124031279 14.363834176843024 10.655992384969645
Ni 9.360466050322604 11.985739126190214 10.498889597983876
Ni 9.198174669458483 7.779847819113256 10.76631155493187
Ni 6.901381929355433 11.326927512974706 10.552503751347967
Ni 13.450128582615354 12.108114314802526 11.830911503996372
Ni 12.848029192604942 9.798651772809093 11.767496896932444
Ni 7.163072510366984 9.039293021296118 11.42856611781184
Ni 8.93757751832755 4.891803921543283 11.952852894520237
Ni 10.150075716433626 9.884074687888468 11.538816698951203
Ni 11.737554447392343 7.762403871962522 11.344403186887797
Ni 7.651526121441778 6.81297730532993 12.161610216012665
Ni 11.44365668746686 13.302301059269649 11.396468859168806
Ni 9.499847326300491 12.880216074518492 12.679156108682609
Ni 8.21444871031486 10.922801956500138 12.392887960438207
Ni 11.420542358467676 11.416257202447545 12.823896133834454
Ni 8.757477395332408 8.745356893213208 13.183390073665405
Ni 10.05358673851454 6.816263174131065 12.778055275606183
Ni 11.201989124332696 8.910464129434976 13.372631894417307
Ni 9.709160063497642 10.706927945998123 14.136498450424432
