42
Energy = -184.71486203 eV
Ni 8.13455473767164 10.072436328419526 4.149309709085629
Ni 10.256671710456313 8.825539268211816 4.526409969904857
Ni 7.9355399829173745 7.756555897453286 4.829883279009399
Ni 10.026523746447836 11.161735604239416 5.174723468596337
Ni 6.433582032292253 9.450291014225362 5.865748522186909
Ni 11.945867075841036 7.479329105438651 5.631239823445305
Ni 7.6695776303325705 11.52034533251103 6.0526853679155135
Ni 8.83422673567219 9.5398064983535 6.276021815967412
Ni 9.788998905323362 7.300116191281131 6.2891684042373655
Ni 11.160987451897478 9.439055377486472 6.740011832012121
Ni 5.9510888214999484 6.941997550062727 5.907137921302453
Ni 8.038508027352972 5.6446367151381 6.466190950372436
Ni 7.6520137533614845 7.820594559073343 7.192586615544783
Ni 10.31660470668914 5.225087995957196 7.11923404305926
Ni 5.354743475648192 8.438363712220635 7.7226093857488625
Ni 5.559699149214781 10.98953292872796 7.610348964259451
Ni 9.817368905167287 11.241077114441662 7.574452304274799
Ni 7.515264246690914 10.178829508311791 8.238486289298589
Ni 7.831963331386348 12.53764324205321 8.10995435398664
Ni 9.448959235544056 8.94458116795688 8.655204530065314
Ni 11.46323125301988 7.427335025368845 7.9863985991764395
Ni 8.438578431894914 4.552498488383434 8.727338366651697
Ni 5.04273601680202 7.146018124750978 9.82566597458049
Ni 11.044623957973945 5.365371264767502 9.285809755544255
Ni 6.433176752552588 6.021812651449205 8.171591506617789
Ni 7.066988523046 8.067370414574887 9.352012438525877
Ni 9.14411550792103 6.639543233550486 8.705160952405326
Ni 7.2076035255044335 5.923412407342027 10.426714261416757
Ni 9.166008302056843 11.29651639703532 9.786099276951548
Ni 6.591792682685849 11.731951943167672 9.852855091658293
Ni 11.418633491118383 9.882982493892733 9.123282484962234
Ni 6.41213453160034 7.937484971529908 11.630006117972082
Ni 9.53100010725579 5.609132922125387 11.002274906656279
Ni 5.400110549938932 9.64412919704071 9.76504647634172
Ni 11.037860263630057 7.625944249183119 10.244585428130549
Ni 8.721648101248956 11.300283987768562 12.142537248146361
Ni 8.777700066270897 7.791438924246564 10.824928207948156
Ni 7.544547094501307 9.887532808886007 10.828022415127185
Ni 8.05773134262419 6.555058775450865 12.68086456936127
Ni 10.158602691402692 9.652043372560303 11.185589489841872
Ni 10.27993528771701 7.467108911747071 12.526034414089699
Ni 8.42332839732762 9.002304863115913 12.830605007122314
