40
Energy = -175.14808221 eV
Ni 11.382103442586258 13.666944903033182 9.37527750794685
Ni 10.987762778433753 9.192609495461923 9.09278616680576
Ni 9.32700812631148 11.405090430737875 13.036102300218355
Ni 12.289394624240867 9.56047479350847 11.26284078040467
Ni 10.87542984542832 11.622095180589042 6.142623846607651
Ni 9.477051539873239 8.28096776401981 10.681445441193103
Ni 8.664991693184737 8.068353560783912 8.329519424251695
Ni 13.24691560121743 9.958380034492604 9.067656795987059
Ni 10.21830543394498 10.700438225408696 10.925273198931468
Ni 6.898737445664246 8.709995623460273 10.083146308791436
Ni 8.565640324688617 10.297454130251651 9.341439405784737
Ni 10.553744917877646 11.538681612511796 8.617209640596426
Ni 7.306610643802039 9.92256676763591 7.401713905837866
Ni 12.342820957280654 11.770093903022914 10.315679244867757
Ni 6.953953129662316 11.887414524662079 8.880754972101988
Ni 5.454339810145943 9.948703265868 8.771472818664284
Ni 12.055019688711699 9.799198624477036 7.010163981474164
Ni 10.303937636671776 12.963193208189443 11.353371656418469
Ni 9.435290242544419 5.896327086720048 8.476520799304401
Ni 10.456860700172548 9.26163494690837 12.83475663375433
Ni 9.01078169618645 13.189170584102266 9.22143280928637
Ni 11.302051619010976 6.840194037224103 9.423369526234767
Ni 8.40780834490255 8.877769096832543 13.885311303422563
Ni 7.690148921905606 7.424860252535127 11.976047111302174
Ni 10.699337001098334 7.66535222982078 7.208062317192724
Ni 8.09439679671747 12.070650611331068 11.044447759413316
Ni 8.64219337392912 11.937043822922988 7.190149544164393
Ni 11.683018786517 11.393167695461761 12.616552610428084
Ni 11.511851138088128 7.361760458323898 11.695869333216894
Ni 13.326013343949928 7.7940165278985445 10.222653472203907
Ni 9.68731733462509 7.064685746528529 13.09143820795101
Ni 12.901570836898571 7.838364273761816 7.951224262464783
Ni 9.669775054795059 9.818906413014993 7.069840948702488
Ni 6.367709760549367 7.779918039699178 8.020087522888973
Ni 12.639424530913956 12.002569066184932 7.899237892190265
Ni 9.577158434276773 5.993927117382966 10.920949163924082
Ni 10.444415677802018 13.562208717767504 7.279046624437517
Ni 8.033891492391268 9.808189147538313 11.857027863229547
Ni 6.139560228876011 10.795586380639781 10.84567337411375
Ni 7.549243634741831 6.504628289902956 9.755410113907779
