46
Energy = -203.43149822 eV
Ni 13.817593801123516 7.916037377981588 12.654969383419488
Ni 11.818769986382934 7.154724324207234 13.607669260836527
Ni 12.649095365098065 6.128411579050876 11.631024395907238
Ni 13.675243619187075 7.792397654941664 10.187317858351129
Ni 12.125542202763013 9.552002303830138 13.415923098845566
Ni 10.279410229887937 6.639463721955112 11.854395093165545
Ni 13.651301921244208 9.873258853787908 11.411023586898361
Ni 9.944079780176402 8.536328894101011 13.364166597604362
Ni 11.77905987329497 8.411629093503523 11.394164820661327
Ni 11.356232864405252 6.5744812819957925 9.737611015933778
Ni 12.06419784644168 8.470432416638555 8.598430059837467
Ni 11.704717654323437 10.533659941052543 9.784257446513223
Ni 13.881960268050287 9.997013837231357 9.030930601665924
Ni 12.089331948369844 11.51744256667094 12.149915017513644
Ni 8.280526888006406 7.808367639365854 11.803184137226316
Ni 8.904997632771478 6.593045323813477 9.811799819721017
Ni 10.081169339227241 11.017446819304618 13.769858775217207
Ni 10.075217361146475 7.348859307216948 7.863003939767726
Ni 7.997849194586187 9.826583978330442 13.072846262616535
Ni 12.318150878282168 10.267700682431304 7.161516317599231
Ni 9.92801624033339 8.646125540267935 9.913285892596994
Ni 13.621745486768674 11.99353497000617 10.468004228868178
Ni 10.36750500795229 12.978276094420556 12.363595106992681
Ni 10.131791656457475 10.196779270442446 11.68553057377902
Ni 7.92006293158297 9.820698718176406 10.610994129797339
Ni 6.121168611140891 8.819134086326708 11.890005754579441
Ni 12.629634465168555 13.8669409404383 11.636690430598547
Ni 10.12551196103857 9.736275763619807 7.833316008398093
Ni 8.35669852148231 11.868408336089471 12.012082473395834
Ni 9.481875981692358 11.443679806526347 9.768465180790551
Ni 8.09210917093215 8.662945451739642 8.370105685906678
Ni 6.760983780771823 7.695145251353618 9.98402999302638
Ni 6.180325659608809 11.081896506317943 11.619304608552046
Ni 13.69254489517693 14.041314856253772 9.391468143947977
Ni 12.958372740866585 12.155603061011265 8.252862646786182
Ni 11.235275446081827 13.09968357143563 9.989748835671415
Ni 7.21731209033922 12.177560224713009 9.831631930579007
Ni 6.222520707200259 10.022132079410413 9.170029722668
Ni 10.550280101758885 15.12094810368356 11.535459164679697
Ni 8.088082038826963 11.027172534544636 7.9388567333998825
Ni 12.12267139100742 15.584238174968828 9.922676304480188
Ni 10.67479673754415 11.971584693767646 7.751785104972683
Ni 8.838238143992744 13.718621990009597 10.68370925647283
Ni 11.69215172642652 14.184451368826073 7.990993662886829
Ni 8.908779262859017 13.306761317704039 8.36744090269428
Ni 9.935575476467532 15.219260498074117 9.25222992631133
