48
Energy = -210.6123878 eV
Ni 9.365748516657508 11.341132115486273 10.679769580656705
Ni 7.17695225771469 8.7471015541701 7.623710101355198
Ni 13.011379956051414 8.924995606201847 6.614348461250486
Ni 6.944430511410002 10.784262914443095 9.760215691688497
Ni 8.907396533176017 6.806211626635008 10.985510585660842
Ni 5.358608915273958 11.947773568833497 6.567188544934399
Ni 12.82356886583545 10.836224948902355 8.128087164893955
Ni 9.33487835449883 7.301846569630006 13.310525854391447
Ni 7.63371403817309 6.621592125813516 8.662197426376139
Ni 8.515343382830334 12.614480242003076 8.878573570361148
Ni 6.4733212741977075 6.688641164063844 10.722004899680138
Ni 8.259394168561283 4.831608199842703 10.192715278214266
Ni 7.530489726642459 5.739961508694758 12.586345324070857
Ni 5.897736586020762 12.61749925516607 8.81209031301766
Ni 8.93717940478132 9.889642475245408 6.140455120318072
Ni 10.82836036542645 8.480140372348462 5.6252562281327885
Ni 13.817984927202842 6.761431695036106 7.881678572229413
Ni 11.601412802879356 7.105229531881097 7.491855832211838
Ni 5.725068072893141 9.074513656511309 10.770082488155639
Ni 10.41873013860292 7.9060298525247 9.559940171350991
Ni 6.225626120370543 9.857757728438974 5.807480477021712
Ni 9.716710117053013 5.675633615790871 8.286812119941576
Ni 7.205352253503081 14.483504472445931 9.203030380557035
Ni 7.598309615877971 10.45784110028038 11.952435920258662
Ni 7.3553931299106665 8.173899803070999 12.37063162219293
Ni 9.809800160392573 5.17120902313128 12.410636978834171
Ni 5.483444095873954 7.77399785431099 8.845036883546028
Ni 12.056143119654049 5.013627312542809 8.341112325641697
Ni 10.737379941035613 11.812387156629617 8.519248794036475
Ni 12.910621940710268 8.638856560981653 8.974232071987087
Ni 9.639807662121811 9.12034387386624 11.614449459273178
Ni 10.716441669929903 5.271089755398913 10.308653264411427
Ni 11.155692380003572 7.18784971186231 11.733930601495949
Ni 9.070331192888887 10.11804288270497 8.667645847628311
Ni 10.16960470001849 6.14356348356455 5.989735938552924
Ni 7.227626803233117 13.47622631238535 7.01092955431458
Ni 9.260377429181109 7.810466699956497 7.330228131976251
Ni 9.314981925628558 12.21197088498661 6.655347051290243
Ni 7.321282852229039 11.124171655987217 7.4071674327364665
Ni 5.282618824223002 10.118565845938027 8.21436761169842
Ni 7.333933278746798 12.736112685871756 10.891647779116948
Ni 8.748269958692813 9.50315034044849 13.755559025570989
Ni 11.242901476129568 10.92434810040861 6.12147193524525
Ni 12.590660246891991 6.592543641229739 9.925683001698316
Ni 7.842272340516912 8.60545710254359 9.946022955340204
Ni 7.440499686111382 11.828699920002153 5.223820595906666
Ni 11.312720437301921 10.07294295868988 10.09004588115453
Ni 11.028815942733662 9.43473863289159 7.769403249415488
