41
Energy = -178.51810203 eV
Ni 10.498807952373076 14.169316443832775 8.828987042412061
Ni 12.555599175236845 13.433926658884179 7.949779249012328
Ni 10.858811113962538 10.855149548209459 14.990397381984177
Ni 12.575339702824886 9.1632255782544 14.728028041436136
Ni 7.208527144564674 10.535757064390035 11.601789085451717
Ni 7.871293490699551 9.253292070063852 9.715330098135073
Ni 9.380424361270896 11.454808260580112 11.35362528198867
Ni 6.92746814269855 11.30650239447414 9.274560412825005
Ni 8.963379613576386 12.506699318588815 9.273950554313142
Ni 12.878148780755055 11.105507288701704 7.94412530300863
Ni 10.66057032994318 12.044889784033652 7.563237297670231
Ni 9.151283027640641 12.545895659973766 14.71498965608305
Ni 12.873334918009451 11.125946179573736 13.517332375265683
Ni 11.030834248850127 9.652721902974958 7.564206235982527
Ni 7.321720475103264 12.808283853285179 11.016257489558079
Ni 10.23960316937494 9.766419199638253 9.741913585940592
Ni 11.101468441910724 8.042378760526878 11.165208565504807
Ni 9.166320342764706 7.316218654880345 10.080687307177259
Ni 11.197325301315614 7.536763321625628 8.843248264964611
Ni 9.139058082636641 8.258542938930598 7.959460847639252
Ni 8.841278127416668 13.601901377611023 12.617855231980723
Ni 13.828764863661506 12.442888699992558 9.707263785344553
Ni 14.484761447463393 11.164269852051824 11.597542497608263
Ni 13.036608143573304 7.0988370096082765 10.370268318063031
Ni 12.667666907073537 12.70432485248744 11.751331258158084
Ni 12.721157300416733 9.209027141944832 9.291603383134275
Ni 8.66135649125109 14.60637735279142 10.36631978708646
Ni 12.869732911355479 8.098070884311099 12.631876092757427
Ni 14.54411364274677 9.521221139372578 13.334266685242186
Ni 10.79716335328113 12.18296192576541 13.082550572104461
Ni 10.904064829012913 9.482087338540563 13.118205146123236
Ni 7.172092930302581 12.184364612456788 13.337250815469808
Ni 8.817588600697409 10.591421245411057 7.948468472702541
Ni 12.298295905593823 10.251642649696985 11.383066050099913
Ni 10.600781240393166 13.658653532639704 11.1468979881741
Ni 9.037943978331642 9.004122731771481 11.758038446322354
Ni 14.370193040772486 8.896197039002713 11.01724879495421
Ni 11.459262881416766 11.927794694480498 9.737827733176394
Ni 8.842671147808606 10.582283636703039 13.51017666811559
Ni 12.535906593808418 14.381326578518774 10.062465076608731
Ni 14.769703507518011 10.387112416887039 9.26945072336396
