46
Energy = -204.08713661 eV
Ni 10.117496310322554 10.143155045772444 4.795041232429109
Ni 8.645722338294766 8.069731217998221 4.943769045330191
Ni 7.875096283448546 10.955151879580592 5.446272009843572
Ni 10.871217772574893 8.109292477995783 5.8853551223695
Ni 7.180692373176634 6.44380669982377 6.107881554194304
Ni 9.661482052791737 6.013313861560921 5.698294338459096
Ni 9.851421161365169 11.936575300770086 6.440803609939614
Ni 11.48338516830417 10.212293642774622 6.876045090591917
Ni 9.090069879072495 9.478379941516312 6.719074114748455
Ni 7.789065229294685 12.926458395129334 6.953580932498328
Ni 6.90166087243155 8.801089971272885 6.446849397658593
Ni 12.701995813600607 8.29549519567893 7.743390484285753
Ni 7.401272720848638 5.306791444407946 8.376781442565674
Ni 11.310221570084288 6.40222469909823 7.422997225255709
Ni 8.808404496386796 7.036098306526757 7.550587495852627
Ni 5.366857540356532 9.492260611951336 8.133368427092403
Ni 7.160927295855629 10.912286451875113 7.782579525177077
Ni 6.261641058206204 7.33395242766405 8.199804462431329
Ni 11.551884874728081 12.194626615787305 8.21685674579409
Ni 10.541278876426073 8.488822389606344 8.30385406125388
Ni 9.608494919404178 4.853898871482389 7.901429487898652
Ni 9.662291108167917 10.8407813913584 8.483407736758487
Ni 9.385182847985371 13.077796204352214 8.746766023758452
Ni 7.982118654506351 8.89992364288119 8.84158416367218
Ni 12.057324009850875 10.100304767906271 9.279801366282618
Ni 11.12760216366484 5.556873495777555 9.564309406936786
Ni 7.043875587838658 6.5507633458412355 10.330334027527527
Ni 7.993506141042928 10.945074941013766 10.206547302352664
Ni 7.111618759904936 12.902073165791835 9.240395158888004
Ni 5.741767198244421 11.048200036932926 9.882535144425253
Ni 10.635842161021557 11.78086098597324 10.480697767400043
Ni 8.880015505347092 4.941069196693311 10.319315343024893
Ni 5.891677274845826 8.680578499270498 10.228202451094806
Ni 9.970962047346406 9.475428922553819 10.33574959926713
Ni 9.41826208147405 7.111022986636985 9.952352241364592
Ni 11.756661734923126 7.833549347246104 10.345794705877786
Ni 8.032788134748916 8.617441051789655 11.223358235247575
Ni 11.704051571107009 9.969853495106872 11.69855884928891
Ni 10.660545205436376 6.039816441789142 11.751148082956037
Ni 8.676714055108818 12.903883372960347 11.099766169515982
Ni 9.226674776354546 10.614436205532842 12.264584024609135
Ni 6.280930360368329 7.703792063627134 12.373302688262873
Ni 6.643000035212231 10.219731097845072 12.069408948754411
Ni 8.425897625672494 6.54559082156686 12.301343603074045
Ni 10.187051463671752 8.256349895267041 12.34670287219509
Ni 8.134606105491555 8.790354392323197 13.5006734981059
