41
Energy = -178.55248654 eV
Ni 11.980074616111937 12.379801256302324 7.687564988252251
Ni 14.072730823881331 12.612696684787785 8.673095586834705
Ni 13.30183751094811 10.485482147994635 8.067311802390536
Ni 11.133048901683997 10.42954826121996 9.066625481176041
Ni 15.882194413478157 12.700679201998135 10.158194682071294
Ni 10.971899608594255 12.801893400311807 9.681476481506692
Ni 12.565015433680212 14.450730043626006 9.056383314809048
Ni 14.878193660548797 14.710623010173615 9.54585301922987
Ni 12.25963406882115 11.060790230792312 10.953247451950972
Ni 12.975511707613407 9.0269763715064 9.854885348434905
Ni 14.490517585958447 10.781303607609123 10.137504025955947
Ni 13.342346501098014 13.171895019656656 10.887360469499535
Ni 9.787166366673896 11.118794277363738 11.010757525046797
Ni 9.107296918791103 13.512885158651878 11.005456384892597
Ni 12.866489130144522 7.488503020938832 11.549314945398098
Ni 11.084119539137241 14.907431921915823 10.933230374115341
Ni 7.633692217534003 11.778279110098671 11.432770131025064
Ni 13.347016376275931 15.589167718039082 11.119874906377976
Ni 11.045572262124796 9.074368090606544 11.190324749156716
Ni 11.206148691172093 12.879474912428766 12.068949816710166
Ni 11.708497456036065 16.249233267064728 12.76933732434263
Ni 15.243551756633682 11.66204434916733 12.13677801606867
Ni 15.16701221854188 14.148669892911128 11.892664846320809
Ni 9.07954343166739 12.379327802502008 13.100711714397557
Ni 9.948205433997844 14.625408327479207 13.049877984650747
Ni 12.938958885244235 14.320523487540314 13.136256322096044
Ni 10.82787096591503 10.59924914748158 13.140947985848435
Ni 11.823440949709306 8.414200137950242 13.347752021214857
Ni 11.287855418439268 12.725904813712186 14.431681313146184
Ni 13.11837976388258 11.88954131255401 13.072731398893561
Ni 13.634463414919754 9.636218045193763 12.293506399504972
Ni 11.407642024038552 15.076982627101366 14.824147621179911
Ni 14.817637703072501 10.799709623085722 14.258082173254829
Ni 14.921669832560681 13.175037509283072 13.99035592022401
Ni 9.405709809787075 13.665436539555028 15.230634135093249
Ni 9.397702449093048 11.252822268515176 15.077836377535393
Ni 12.645942312431274 10.148573449528788 14.68999610299851
Ni 11.524330221561936 13.534790402912755 16.59854596533466
Ni 13.340389811590118 12.366545929800289 15.504886196722392
Ni 11.347612594856626 11.216747276232242 16.318628333244558
Ni 10.567153495844723 9.235786628500948 15.138536647188285
