46
Energy = -204.62772625 eV
Ni 6.311360763998808 10.906625822094034 7.677215646144476
Ni 7.43454648394216 5.378926594919134 9.432431398500302
Ni 8.527570792839064 7.511515072207262 10.130193789878602
Ni 11.423050202041491 6.957230065133716 8.6025004890657
Ni 5.130253142470561 5.469833546763694 9.76391227842993
Ni 9.022312835924705 6.058625011181519 5.60379580821841
Ni 10.21854396409388 8.914679625904881 9.135382208192185
Ni 11.840308959277676 10.657295259212312 9.641393475888302
Ni 12.050786152216688 9.136726052014518 7.710048713487831
Ni 12.338570138719135 8.449675606392672 10.119390720911012
Ni 10.617915341529233 7.0924822770201486 11.009294790069543
Ni 6.982769197736481 6.687199527607754 4.541161408075215
Ni 10.73420806480545 7.5764232565227365 6.356016420463726
Ni 10.883086338497302 11.26710268930062 7.577420479320074
Ni 4.8081033553031025 8.954205296368333 7.82157570752512
Ni 7.057604433339968 8.732792382322831 6.811247048423386
Ni 5.120374380443504 7.792339796029301 5.726299828314906
Ni 4.612222871013502 6.556242792237199 7.759412710247482
Ni 5.067224882729071 5.446702154096744 5.639981372067953
Ni 10.411908424333479 9.50565294218984 11.337961661289768
Ni 6.6069185368104355 8.678255113376482 11.093947444369118
Ni 8.512587045473541 11.838559094579312 7.612142410155912
Ni 8.187337336377697 10.300364239534186 11.34506865782789
Ni 4.56817368734436 7.838277177123616 9.964748245398209
Ni 5.975809060777969 4.458098161932347 7.733872882639726
Ni 8.88019981894907 7.250136870104028 7.784611504803635
Ni 10.669178368925541 5.3352037005295525 7.136687156257488
Ni 6.581668231896648 6.457292618045625 11.33749880553649
Ni 11.061286612173884 9.751299228507285 5.607590842173803
Ni 7.262697511437763 11.813032701185728 9.67146872641222
Ni 7.189094432142919 4.438520789947255 5.482730811513399
Ni 9.697420785003022 11.645873737878066 5.570747699608064
Ni 8.804041441786282 5.649345500313121 11.514507217680091
Ni 7.830732378824273 9.584855495338587 9.06575117947126
Ni 7.601351503770497 10.698419827566106 5.599479002794654
Ni 6.8876789787758845 6.345589873256164 6.823759284973164
Ni 5.252464867076201 10.149880506778446 5.756433238428596
Ni 5.521792702602471 10.137393536920435 9.746605444762004
Ni 9.28523791313004 9.656120670129907 7.076443501410578
Ni 8.67516870001863 8.079766836699726 12.300606297795149
Ni 6.517745102447081 7.5300684447252975 8.872461954115582
Ni 8.458763931096396 4.642547486325091 7.468602059900926
Ni 6.630340280233313 8.984826582092815 4.2853835724943465
Ni 8.774214510576924 8.41028560600343 5.138429830079759
Ni 9.581718843636606 11.199156578513493 9.6647988025648
Ni 9.783413739063633 5.464310898680954 9.338744517923748
