47
Energy = -208.43236118 eV
Ni 6.349362546566995 10.005870212726034 10.29954516048997
Ni 8.655502703414477 11.708459977493199 12.959795585579643
Ni 8.58902534707092 9.268984106108467 13.619320061208157
Ni 6.818665215382987 10.385610189649977 12.504401099853
Ni 5.360011477988228 9.391071590166476 8.331461496281998
Ni 10.090756703002556 10.867328720852266 14.681072456584534
Ni 6.671133427658556 7.659511944305291 9.555582631757572
Ni 6.76358939211355 11.45469159409993 8.43993287307059
Ni 9.97629835708097 7.826042864249666 12.159242592714971
Ni 7.3672610648609 12.084686091479908 10.833491745191548
Ni 7.842232940302443 8.548986665098328 11.451074195259167
Ni 9.72498418416025 12.74342967588263 11.142824850492
Ni 10.876097002126395 8.694455990482487 14.19789531361223
Ni 10.322811684239174 10.193310295553518 12.39043783130227
Ni 10.928262951754238 12.546238618390822 13.210911940607744
Ni 7.825337452399322 9.392437430230297 8.483347266142209
Ni 8.479808491758119 6.397563859905121 10.564701167539283
Ni 6.577100588931252 7.834944726708289 7.064707330804933
Ni 8.995849136458158 10.46142227447139 10.424319873240956
Ni 6.634351433344044 10.076435364193564 6.442299682629101
Ni 8.831366971746538 12.379576106409028 8.918013772960862
Ni 12.334830810905169 10.623006308518526 13.795665671685143
Ni 9.58365513246722 8.164838974372884 9.711161233623962
Ni 12.333686764745114 8.697399747144367 12.320233077575773
Ni 10.398602986499107 6.054922323532285 9.024520087386383
Ni 8.445615966975554 6.94554218756489 8.077347795808349
Ni 11.15147120494098 11.789482925119563 9.441967481610614
Ni 13.370625691038144 12.63231479126935 13.032188950021904
Ni 14.081741140305295 10.335833657539336 11.877193736081828
Ni 8.660106612360337 11.17818061710178 6.818215015941665
Ni 11.951714163607015 13.705523161244297 11.207760739328014
Ni 8.772542116469527 8.805094667408106 6.411347929501731
Ni 10.114806008786609 10.047765835820151 8.294958350197966
Ni 11.651186741858663 7.140666262454924 10.667396979529371
Ni 10.554590422886086 14.001098917835424 9.257868591300037
Ni 12.146735492719316 11.420706268006093 11.524169125368408
Ni 12.584316025811553 6.953182235592325 8.559116745804888
Ni 10.565277232327713 12.515343653932847 7.264182379357812
Ni 10.645338079355012 7.830005574316599 7.433651713579133
Ni 14.107322014530123 12.671945697530925 10.823009929326727
Ni 13.528032228560361 8.556045897872576 10.218719800714606
Ni 11.394232615035309 9.527060669822472 10.300490964283213
Ni 10.936988931859336 10.039307991412091 6.233042181726252
Ni 12.83242306592645 13.244712884931996 8.906728245595017
Ni 12.457017596609962 9.219480325127417 8.096293710750096
Ni 12.57016506169774 11.41041778324285 7.401787349625346
Ni 13.458554130433088 10.850991275778908 9.54867779594071
