48
Energy = -212.4279705 eV
Ni 6.08286409468485 8.24502653824571 3.853438046794598
Ni 8.459112030704958 7.77634616975733 4.649296575660303
Ni 6.717750132235658 6.173161964947159 4.846971052398195
Ni 9.625290448698205 9.853687392761763 5.262164564574708
Ni 10.350173650304798 7.615486022752323 6.002846934367253
Ni 7.4302900180576925 10.01027694973689 4.482041651740033
Ni 4.816505797032228 4.923673996656347 5.638147594177449
Ni 6.984678757886889 4.3299791791736295 6.29164461578866
Ni 4.584075829225491 7.339987044349643 5.416970709185479
Ni 8.93214401338402 5.638631702418532 5.782644327067334
Ni 6.7672080699622 8.366133456030285 6.0769535582308185
Ni 5.113708857855397 9.834213756782582 5.7202471465629605
Ni 9.591689674826796 11.483932396153616 7.1654425931227905
Ni 8.606625419523986 9.296264849291294 7.236198853573586
Ni 11.259227311690886 9.692481288762725 7.031691268556695
Ni 5.952144096975906 6.3203498872049995 7.12583642782851
Ni 12.319974965577229 7.456621409379856 7.402406219574915
Ni 7.195946202577986 10.99521626517665 6.543690911930217
Ni 10.518591125070044 5.7222650038345435 7.69364054303083
Ni 4.2035969154890624 8.431521240017407 7.485058520309545
Ni 5.826218303172286 4.484446157459848 8.427145357408644
Ni 11.665362602886407 11.513944273907482 8.64512599768903
Ni 8.363947839454434 4.721913488441535 8.14084121114125
Ni 3.6205478759678167 6.110078498980505 7.272343303925983
Ni 5.4914812337391785 10.428444906153524 8.084940366072152
Ni 8.229453496424192 6.953600658921648 7.483784739293104
Ni 10.267768570148084 7.922196757824716 8.299085572943776
Ni 6.319023421426252 8.332210665159506 8.414271984698308
Ni 7.8257687376582625 10.993059567721952 8.851063186299788
Ni 9.97638425465438 10.121541247063716 9.062035012369043
Ni 12.25629106506777 9.139821695485166 9.182678334415249
Ni 4.783206008522766 6.641044291495215 9.243958155787338
Ni 7.098870714063187 6.163882240056881 9.513865035477611
Ni 8.225436155610629 8.44737740279498 9.577455712446685
Ni 4.4161878038975 8.935645554478526 9.802503570558237
Ni 9.66484823279383 12.11181135127258 10.130186729197058
Ni 11.847783112028493 6.762414512423375 9.716593065006466
Ni 9.436052807047293 6.233815352850712 9.86983103412908
Ni 10.355144760479297 8.384912128943693 10.582015302672735
Ni 11.409463184304654 10.585437918463047 10.920432239156527
Ni 6.423359330275604 9.998349825799883 10.348728119438377
Ni 6.226090231199507 7.766040775810959 10.927718576719393
Ni 8.675256605849695 10.132308849872057 11.195375320790442
Ni 12.425237284636399 8.428437892663865 11.520480103201988
Ni 8.465276257186849 7.634104055999727 11.787608131925726
Ni 9.977800570718895 11.54790321346225 12.47054649165465
Ni 10.744060021704195 6.710513993867843 12.001312397623565
Ni 10.358781095156337 9.176185197028731 12.707441821321204
