42
Energy = -184.16514195 eV
Ni 13.118267019638706 8.675420967428819 7.745543215250006
Ni 13.160988826989847 7.580201697659483 9.860447259219404
Ni 13.496964631846108 10.893447850696576 7.374871113655163
Ni 14.133016836588457 9.874159841029387 9.628902500167161
Ni 12.36529001036677 6.468013471161446 7.875481258895065
Ni 13.301834601451784 11.620549463027254 11.274831060797075
Ni 11.498168666703561 5.66037501469169 9.839818051054495
Ni 11.188518953997884 7.874078971381331 6.500403426092475
Ni 13.896693396002401 12.322284952629994 9.085324928455496
Ni 11.125132501372082 8.489875411742855 9.038774837086558
Ni 11.231812544455247 7.393490633933793 11.278980152134032
Ni 11.528258461570267 11.0425705915422 12.790659434180634
Ni 11.277898287272093 10.136373520433297 7.1667543964001075
Ni 12.628785974143645 9.325897817558943 11.398422474132223
Ni 11.99761983571993 13.271598528651108 12.444993292496342
Ni 9.97163911417967 6.671587436039096 8.264609036461575
Ni 12.095507802256897 13.352845883430764 10.070596000088965
Ni 11.64705127967454 12.384580295420536 7.881940139069551
Ni 9.28701790169835 6.2566575952802435 10.510447074052141
Ni 12.00771051066245 10.76503539636051 9.476566289393254
Ni 11.065789060339993 8.776951005010732 13.172944911699517
Ni 9.290652826798366 8.855090758345835 7.42057214543356
Ni 10.29964618863008 9.657369600362635 10.953890837321437
Ni 10.338905717468684 14.398931503926967 11.235882398170554
Ni 9.23748181410243 10.329580830976004 12.938605914160169
Ni 9.846711053572806 13.349206428761766 9.08130491860038
Ni 10.347179455401873 11.990840331327366 10.925171298996313
Ni 9.663757627130977 12.692970574898583 13.010645845442966
Ni 9.678690703371638 10.837137505477019 8.796821191986806
Ni 9.081989370753261 7.9922573388618705 12.163600185740679
Ni 7.181949737266829 7.146608598010035 11.151794406652506
Ni 8.65142045528267 8.363992450785767 9.678763104177932
Ni 7.975106239019746 10.757124055659714 10.632985207672698
Ni 8.35384822866349 13.274404887336265 11.042540143971907
Ni 7.153394165449616 9.283906589759056 12.35012765240771
Ni 7.373445404161991 11.746332548223295 12.66984244863677
Ni 7.722715540553202 12.317000157739088 8.875841904422538
Ni 7.499416454230648 10.008911874556539 8.271695758117525
Ni 6.33960035627271 9.033249669643116 10.09778646806379
Ni 6.190561865969821 12.716726882839712 10.699398171115698
Ni 5.48872074082727 10.704252912649704 11.52444073348813
Ni 5.633276262173425 11.080544578782963 9.169414838671083
