46
Energy = -203.28791583 eV
Ni 5.193871353371989 11.544703942387224 6.494285360560054
Ni 5.585409068631875 6.400128024001852 10.297008704895621
Ni 9.477174743729359 4.057878295743933 8.399697398033574
Ni 8.692887698612388 6.99523451006935 4.703858775237707
Ni 7.10913506807752 10.890245124072797 10.287412051501265
Ni 7.86019570947459 6.300806488220334 11.678977886008674
Ni 10.611310407669963 7.115634104176198 6.0190142403229
Ni 4.493297089981889 8.270766907823013 4.321713953338489
Ni 10.728120438986336 5.713358604331825 11.84536513921843
Ni 5.517927120004499 10.167180965046471 8.468531123085759
Ni 8.0335427690105 9.63265503279162 8.630975839311715
Ni 11.37705414710868 4.495526434495266 9.836203883212356
Ni 7.302150248758062 11.955660833056253 5.404358848707489
Ni 9.109497983883248 11.824449167738198 9.042169307324741
Ni 9.796161773490233 7.795162292736484 11.274463028063712
Ni 5.816257437371189 10.25158585051839 4.523450551577169
Ni 7.701307393181513 8.82354532444342 11.629949033460834
Ni 9.352373090965733 5.037883709089887 6.09106270439136
Ni 8.746178877566674 8.35029516931378 6.646606026907778
Ni 10.907243818581515 5.871049645029183 7.909567738375378
Ni 6.656825259377847 8.073352865412556 5.116543655937891
Ni 3.8413316518005236 5.71515032002927 8.81881998784893
Ni 5.6226898300107235 6.2473034291721845 4.101227853534369
Ni 8.435642630428612 9.74929182733016 4.728161334724319
Ni 5.9491467309113775 5.672498944980782 8.051689729271743
Ni 8.419902766999405 6.242310258332093 7.780172984348162
Ni 9.841830660425222 8.006974603345354 8.805834901165888
Ni 6.568999422001453 7.920641370713754 7.65104994930484
Ni 4.784917816080758 6.797693018247891 6.298049156668785
Ni 9.391094882608654 10.002263977928148 10.480525260938832
Ni 7.019749904678551 5.807945585885064 5.875177760524779
Ni 5.857591541668284 8.777641944398692 10.242077299666253
Ni 10.66760897273104 9.471833379809162 5.935167829526843
Ni 7.673826423661618 7.429209884229583 9.712750377835414
Ni 7.443985672050315 4.026236437652798 7.3529688323477
Ni 4.674588805012914 9.180341946386424 6.478508210219081
Ni 11.884224794845082 8.154197916260584 7.79467888060002
Ni 11.701156762497451 6.83608983073438 9.947219435051426
Ni 6.942017224378708 9.967592042148592 6.541293311175359
Ni 4.431776373711712 7.893709542696868 8.525704467666094
Ni 7.078049500490955 11.909601803282818 7.940816741791231
Ni 9.485082986103514 5.821841001439235 9.959944585004058
Ni 7.405906820064456 4.866124153351591 9.678851406018257
Ni 9.033572003058556 11.035316139868504 6.731158028122438
Ni 11.564540467973783 9.134265748988065 10.101556510961064
Ni 10.585253385298287 10.13923112961719 8.217789443539692
