48
Energy = -212.90600594 eV
Ni 9.473168947635315 9.401020498770896 4.12640691439706
Ni 7.50646673109816 8.070394735073505 4.191343143102741
Ni 5.422704364535474 9.231535691485552 4.861689820923355
Ni 9.723990687692911 6.918725886607139 4.768528881677729
Ni 5.412080379819189 6.8558568332294 4.888127672834563
Ni 7.478409006415137 10.271811889042628 5.453905692461952
Ni 7.584272739390215 5.931936887446386 5.321588699080715
Ni 11.223822027027287 8.665030467752297 5.633920778557616
Ni 11.703646797982104 6.23054973572453 5.981141102445932
Ni 9.791529951277521 10.824815885971601 6.096645126660812
Ni 8.867774140241783 8.56547903782939 6.16492379786309
Ni 9.591717035698263 4.985048945392109 6.298263765879382
Ni 6.695026831611879 7.973936952815642 6.407939494770652
Ni 4.400111284961705 8.085756159337734 6.805331107277692
Ni 5.601562429298762 10.374732192898527 6.950799749127409
Ni 5.5997590588533654 5.919759103215482 7.1407240787193444
Ni 12.107584573407248 10.546628590910103 7.0505160681859245
Ni 7.179479817668592 4.121285746430132 6.805949471210678
Ni 10.154595176217049 7.014047092792324 7.384300570836268
Ni 12.331713279617679 8.061353072616466 7.688543248956422
Ni 10.36936648909562 9.33967908065761 7.7700376436927
Ni 7.945758123720655 10.49752829931019 7.879860495073853
Ni 7.888199756685416 6.169331395065585 7.624353348687831
Ni 11.02663640000533 5.215474892543868 8.35783931563972
Ni 8.870906874432096 4.098896904259207 8.416058009356208
Ni 3.9472828062519496 9.476704572756027 8.680152718407106
Ni 6.086583735923477 8.729011339657195 8.459378957780766
Ni 8.449754431265612 8.211727371251323 8.52369601817231
Ni 10.165015955598975 11.580904171267868 8.45846258140162
Ni 4.628437266148551 6.97750408081419 9.049872556112726
Ni 10.84709123801061 7.682580071846488 9.6083670964081
Ni 9.140766592317254 5.982040079422821 9.706904731096511
Ni 9.584617114486191 9.76215309894937 9.881167217651196
Ni 8.144993216149343 11.627245845051952 10.12407462025079
Ni 5.861345507678099 10.925057504867109 9.364020083029581
Ni 11.911733036749961 9.985627033916057 9.422379051233094
Ni 6.629816299159591 4.891126539749543 9.220148307187982
Ni 6.934393117234564 7.058638432487038 9.861933500594134
Ni 7.366157095249641 9.383455134676629 10.277117286642303
Ni 10.50273916177316 11.52873591672716 10.932832232960223
Ni 5.09894250983271 8.795050633714967 10.689773852089843
Ni 9.025181279863595 7.799746709555316 11.2098734076686
Ni 8.712606390825323 10.127514135697053 12.074446005569945
Ni 5.314181688580013 6.432327386961968 11.313561641576586
Ni 6.355846230778213 10.6504383076754 11.806842064127558
Ni 10.981618250460436 9.200307595185906 11.57454269835136
Ni 7.625068059206481 5.831170051166288 11.625559537042145
Ni 6.868670474929314 8.123442372285494 12.199280200087722
