46
Energy = -203.25117814 eV
Ni 10.458096848078362 6.2743212106726265 9.234569341234508
Ni 11.47283871801791 7.301804870931488 7.318179392787444
Ni 9.243106453903986 7.780689961455486 7.819780926902678
Ni 11.76893005524729 6.622627374940426 11.25972882290935
Ni 8.004525732547432 7.234021503454342 9.7150249936667
Ni 10.492207963025816 9.018661036792237 6.114913790729637
Ni 10.152561003611398 8.171274244403094 10.475641040607451
Ni 6.987435825674137 8.553497035344643 8.067062396470853
Ni 12.289466333073673 7.947244058024506 9.338429537464702
Ni 12.57453629238084 9.523585770186626 7.32278967311862
Ni 8.088989368976678 8.260628908051586 11.76335414773535
Ni 14.272966815120498 9.979328696201165 11.772257738089538
Ni 13.898287747254363 7.828442480846495 10.94673786803105
Ni 12.60249926846877 10.93968457833038 13.067276691203562
Ni 10.638675911772287 9.546591423698654 8.501993955285366
Ni 8.644282735775285 9.996681447796753 7.20850440372254
Ni 8.47400354329619 9.706482600575265 9.700336484440724
Ni 6.346912464566097 9.226345977570263 10.29139718245608
Ni 10.165691739145274 7.721970118139818 12.822788273585315
Ni 8.512229544039508 9.086760362148468 13.910031629671817
Ni 12.254103318445994 8.687389216439355 12.349736758720407
Ni 13.773324530528651 9.819238035269626 9.418995420863244
Ni 10.634102702193585 11.265862691484763 6.87625676920815
Ni 12.191286727553468 11.532420509197864 8.635954291907584
Ni 13.42954822304843 11.878079612795991 10.649707396887298
Ni 11.77967087662111 10.107502249788224 10.587028458100155
Ni 7.290840691346019 10.355773810921365 12.309718878286278
Ni 11.090740285315722 12.178735048322633 11.720209297118087
Ni 9.94700712868248 11.553090585876005 9.723684733024186
Ni 14.505988383233476 12.242397296245116 12.674188773360482
Ni 10.782042887943916 9.754352264873006 13.93011064306146
Ni 11.094734004653214 12.05178575797157 14.495659485778008
Ni 6.86334116256494 10.92096896956039 8.415205795048223
Ni 8.449822243926402 12.275862298137303 7.062830467474861
Ni 9.710671836571423 10.100988362314789 11.843544313568064
Ni 11.934141988080688 13.540444797162552 9.884226816714763
Ni 9.019041222311412 11.41712579759964 13.702063877638137
Ni 12.439903469612661 13.380344183286118 13.163003453531493
Ni 9.719224308017136 13.93986937344332 10.557721409973158
Ni 13.70682057685865 14.081067019780386 11.34510561495008
Ni 10.297169661224318 13.246505385960289 8.206093149183772
Ni 6.456135957815836 11.640280140869965 10.56685281137485
Ni 9.895481537979041 13.603045810186147 13.045343444685114
Ni 8.049959673732873 12.863500541007268 9.252442176719287
Ni 8.460589755896697 12.254715848117584 11.56663045370434
Ni 11.489414633486097 14.941362885444637 11.720239170625902
