48
Energy = -212.84119822 eV
Ni 9.500922526682187 9.326140089681145 4.255713432514763
Ni 10.685902612148514 7.500879772051408 5.079191638367515
Ni 11.495390021173371 9.817233463951343 5.411419696697474
Ni 11.834130188571997 12.077067724294896 6.015175031804217
Ni 9.481073667167175 11.209353189611445 5.692371721738281
Ni 8.738005627182378 6.764893654574773 6.430362569577134
Ni 6.376999104882726 7.436021858330421 6.642813315396873
Ni 7.856633541361988 9.179937608118099 5.866356295698618
Ni 9.99507240981251 8.709740645110537 6.8987455536096185
Ni 13.029029534322873 10.152786539467733 7.297211796847313
Ni 7.713669212449953 12.68937787686228 6.821671272594074
Ni 12.654447956013884 7.963012930766461 6.291547371165071
Ni 10.87406681488842 10.753288291192565 7.630338713989613
Ni 11.075967186078582 6.4295772476916095 7.210618419938705
Ni 9.978295568762983 12.85031817363777 7.5051701296171345
Ni 5.720728234381444 7.7561222776795455 8.994000125531754
Ni 9.462473933603656 4.999801341232327 8.007118310005882
Ni 6.0804976429037305 9.63532230795606 7.56641664187955
Ni 12.347897656190586 12.336450125833144 8.349710829913427
Ni 8.390104462058988 10.69897126740849 7.693959545325969
Ni 7.368989522583242 6.025643008767076 8.291745397131798
Ni 7.950884814498641 8.34678559962711 8.108195494310149
Ni 6.1948775477665015 11.710383637193884 8.483269398971862
Ni 11.8722641599611 8.291448894345944 8.441673552701314
Ni 12.212752088532492 10.27134943001791 9.663249346700212
Ni 8.252797789304703 12.553859466925472 9.20040348601626
Ni 9.8561631114557 9.529305164652195 9.276897767192219
Ni 9.731923592759083 7.163438135456433 9.071041631018478
Ni 10.948844869640503 5.5221507322511325 9.92914648990332
Ni 7.504479078947226 10.00699187043986 9.761798280824204
Ni 8.522351999499511 5.15517339059138 10.172775737519428
Ni 10.462114858308373 11.892164565430015 9.763000287182468
Ni 6.46786998503952 11.913140845028758 10.80517618509356
Ni 5.285952291798459 9.870756879030735 10.101755344094684
Ni 6.017343903448473 5.722187870130687 10.227658686356069
Ni 11.29829346607316 8.176510385092861 10.747238823414216
Ni 7.655220186727717 7.477143133795452 10.33629260254469
Ni 8.725226982149993 11.447700010716265 11.28065655186029
Ni 9.045652324171307 9.025354674993016 11.373338550475822
Ni 10.873286844761651 10.409189925521455 11.651661166391971
Ni 9.605595982939253 6.664265904782442 11.604166940043902
Ni 6.838057220302979 9.891278004592445 12.035802608972427
Ni 7.34958081616607 5.897712738135662 12.148166203347348
Ni 5.713141562579787 7.844906818813344 11.516933726415315
Ni 5.0613029854155425 5.781659320784966 12.332973845483213
Ni 10.454821630915827 8.371134551556887 13.05726994998724
Ni 7.9361867336815735 7.956088193932243 13.0417769678437
Ni 8.911963631151979 10.205228343159071 13.32527044720781
