48
Energy = -213.17977567 eV
Ni 14.634887897050834 10.116162297390622 11.228809339032196
Ni 12.593273717968716 10.96607314479588 10.097313399155992
Ni 12.538369702667563 10.361579871847963 14.868922075141597
Ni 7.055831246543642 12.299807058132942 10.22949209595483
Ni 13.839786740939479 12.184201229399346 13.959775355523528
Ni 14.571389340659968 9.885353749873895 13.635685305430567
Ni 11.445028120475817 12.616243867677605 11.515662127503171
Ni 11.312444763554778 8.756250749111853 13.509585065376925
Ni 10.263315421708112 14.183667343383739 12.933354356871478
Ni 15.824383740952689 11.946908020562299 10.227709625056974
Ni 8.124845007541497 10.130963159001961 13.617387686762724
Ni 9.27449416097408 8.52538327312676 12.2005631671615
Ni 8.974400340786902 12.65566702046767 11.504586418476196
Ni 11.457835105141065 12.91018726223228 9.042719167640096
Ni 15.133983466062233 14.226394241632105 10.514200283035617
Ni 8.1430480930372 10.720082343312779 8.839147092985193
Ni 11.335862499373734 9.333408222196542 8.643610349589158
Ni 9.057044640780335 12.979347604406408 9.061192512552259
Ni 12.582493842842888 10.674294891375888 12.511687353701156
Ni 13.860707682128206 12.779271583921604 9.065428453977756
Ni 10.203821947324792 11.331944251281746 7.722523033045696
Ni 10.187346563958181 11.04702745025481 10.084514159350297
Ni 9.031761529952796 12.383465506234588 13.955784562124032
Ni 7.045442193715201 12.00024681981517 12.646462122558633
Ni 13.336835473514089 8.672030276034906 9.835949485993314
Ni 13.915694117014471 12.507653237274312 11.513361812646504
Ni 15.809442857817949 11.654476186065555 12.654198314569294
Ni 12.706374098730482 14.097301866622596 13.002286728538934
Ni 8.062168186797582 10.34175637389495 11.218381127265351
Ni 13.968154041620219 15.748932272562893 11.915600234960374
Ni 7.879405539341963 14.2313489873573 12.869001680477918
Ni 12.719879233542342 14.417759334092853 10.444220150391484
Ni 15.125040858318997 13.936812455444993 12.90221521259929
Ni 11.433421577241317 12.3085544604109 13.99151491878317
Ni 7.892513415905212 14.52113789075371 10.539874985125913
Ni 12.579112351723161 11.222047187863618 7.738862034000025
Ni 10.160134699531474 10.470679651355418 14.885126456599552
Ni 11.57667723301071 15.868709356064683 11.919488656838165
Ni 13.322367440349636 8.37595515677205 12.21299248964888
Ni 13.288197040203936 8.139447043008524 14.566281359809713
Ni 9.2826679068536 8.81683963619534 9.837914727649936
Ni 14.603913506183789 10.47387904440957 8.834771629059464
Ni 10.275371895901497 14.481845113153591 10.501756672865444
Ni 9.283656829422767 8.31349297733814 14.551059204596863
Ni 10.174565538662714 10.75034620798027 12.515791597860693
Ni 11.322036671296804 9.031619533733153 11.076287425544429
Ni 13.339700317307171 9.000085823632366 7.499284125168085
Ni 9.306417748869293 9.167876108964151 7.512029575986386
