40
Energy = -175.10920887 eV
Ni 15.116209523394899 12.282091144084978 10.129945567301048
Ni 13.20366187026614 12.51815926288451 8.76807817479822
Ni 9.289900172246005 12.925280724080677 9.73068068333704
Ni 13.946474535419602 14.558222777878422 10.121733293516188
Ni 11.228591473019819 11.517335280878452 9.756430500791627
Ni 14.493151227208024 11.47424327441178 12.530194325198263
Ni 13.361755297675778 10.556072642579647 10.277398399781454
Ni 12.94796301803665 12.69763246548498 11.0794484737288
Ni 11.495697725914331 13.947444111457152 9.620694245328883
Ni 9.198208035143518 10.897260702433892 10.817714801706419
Ni 15.58576244933403 10.11566904246855 11.127051694966799
Ni 16.746394060890584 12.144957070971504 11.828557081335989
Ni 16.51012899282102 14.239764110946659 10.594921990840701
Ni 9.665443856139396 14.815181406526312 10.947999763557581
Ni 11.240655083934124 9.808931991747212 11.45346672387123
Ni 8.493495681796654 12.886928108778518 12.137052009676035
Ni 14.93202759556898 13.74923063277169 12.108281112405042
Ni 10.71974066310138 12.77396051629663 11.77081598323557
Ni 12.231255636472925 11.215178290065541 12.94390179246487
Ni 16.321247410452376 15.366463940142093 12.83225634992361
Ni 8.74999006031229 12.799189495058624 14.53721644732447
Ni 12.921747203963234 13.46743893995962 13.324090063026983
Ni 10.00751342907294 14.595735841441392 13.21114661481838
Ni 9.716395687167191 10.91960443020132 13.060478396993396
Ni 16.362097104730054 13.233746162936498 13.891163076150768
Ni 11.957945520591565 14.96743914473228 11.703988944936105
Ni 10.932717629780548 12.663015552008272 14.276986304174013
Ni 11.566148855359518 9.346579321956634 13.987377944081793
Ni 13.448805544439752 9.250548539432513 12.218618052518842
Ni 13.96666100014755 15.809039536630808 12.48949432290608
Ni 14.529733647716506 14.705498833470728 14.514677057998693
Ni 10.377358901544993 14.609015902741685 15.4912892032739
Ni 12.144401232832182 15.488126139747886 14.090146579137732
Ni 13.949988552668174 9.982746143563308 14.367360230584774
Ni 10.002530476877022 10.656172241948552 15.309176628195212
Ni 12.33221019770377 11.21265850921504 15.506314914471192
Ni 14.415653849667194 12.277983481372024 14.840520671249214
Ni 16.19837872980382 10.85063954480463 13.867166896056307
Ni 12.628734862885395 13.663978751570541 15.69911995263854
Ni 10.589359456915158 12.536972243334104 16.563180984713377
