40
Energy = -173.36335918 eV
Ni 5.308000571468297 8.480531561474223 4.78378286111678
Ni 6.806739371676573 6.6055327927485274 5.273954705489362
Ni 10.641466153874292 7.273198996371687 4.232281532927792
Ni 8.436653342420968 8.68314364699694 3.9305794813955623
Ni 8.97376666599561 5.608508764613447 4.664440759653275
Ni 8.63517125201595 10.835138663698306 5.246352263872427
Ni 10.430674552803104 9.396596592434975 5.272572196464324
Ni 6.606121803547425 10.355187372955514 4.115424927187645
Ni 10.697779722284677 5.868200592165366 6.41794431474669
Ni 7.199311790626832 9.117490901949441 5.886176463397447
Ni 5.914332004451971 5.453862516844759 7.643667662178771
Ni 7.373079780664103 7.305575912161342 7.351121657444484
Ni 9.119517845393748 7.538187299658317 5.847495544106313
Ni 5.027677738190044 7.7078955584707005 6.994519300977438
Ni 11.234597394207245 8.32826365845945 7.197450252159004
Ni 8.286277323903391 5.118213011601249 6.880459211899743
Ni 8.969507554395156 9.245880841752202 7.531921306561692
Ni 10.187451305227587 11.011777907677022 7.0575977933101575
Ni 5.230592677308182 10.198234120399015 6.574223680982771
Ni 7.609819915056819 11.284234256710802 7.330348972321594
Ni 8.337664275109105 10.521130918291817 9.534315219029239
Ni 9.598959501352075 6.959489974301254 8.121503427195266
Ni 3.9499589356369955 6.550966579573243 8.87893828096237
Ni 5.981992516348553 7.339241055895366 9.241243219173535
Ni 6.611430324272888 9.372273117779134 8.20906577052535
Ni 10.418410903171264 8.825738493250919 9.464664819338648
Ni 8.158025235117332 8.177247483879036 9.528273369593569
Ni 11.609613448925897 6.611480169750069 8.953811269489018
Ni 7.440587666746405 3.737692039452373 8.77396388208621
Ni 7.796087084352107 5.878869425695106 9.176102393025044
Ni 4.46148910626485 9.086714693993759 9.093551268185331
Ni 9.81081595525572 4.763291805803732 8.926569674971432
Ni 5.802058422912336 5.219051672700252 10.206774134262139
Ni 5.90646869307492 11.242856559430544 9.12895015636907
Ni 9.667387221759787 6.675269801834925 10.597084907303195
Ni 8.820049168688142 8.917955795032313 11.507126496213509
Ni 4.765462809987817 7.452018727147431 11.087437609175186
Ni 6.415315548107543 9.304613426129295 10.691648541838756
Ni 7.240899516034515 6.973395489386618 11.358262458707687
Ni 8.219024016238514 4.6752869163995046 10.98863732923197
