46
Energy = -203.08371131 eV
Ni 13.783935190405524 13.03795060961085 9.431292061611776
Ni 13.817834963556013 13.24153629482714 11.803533345867002
Ni 13.581273233886998 11.089473645742185 10.84254106258857
Ni 13.154668768082223 10.886334781828793 8.482470567760341
Ni 12.934750832746985 15.002076888893777 8.479076535420427
Ni 12.259923811733605 12.950092849806278 7.552385743052303
Ni 11.58758853437797 10.8814559821243 6.614856631327163
Ni 12.32750175753432 8.755303029267433 7.602377933766337
Ni 12.737843552777273 9.03200018644364 9.960856141009845
Ni 10.865164703565565 8.83672973571735 5.725898349467657
Ni 13.098181618649113 9.175628426518449 12.325177474368203
Ni 11.577073931875725 12.390702033093868 9.77648633800913
Ni 13.107192905952845 11.404766962180137 13.166444417227869
Ni 12.142089239998592 14.518045408056517 10.6197061838852
Ni 10.661754954187694 14.339351311917081 8.763528700582123
Ni 10.873118912419905 10.165614737091284 8.797633781329635
Ni 10.626079172728197 5.509028086627228 10.608362476345663
Ni 9.971491587100756 12.25904569183915 7.752643043002861
Ni 11.959351340147924 7.2292569620470415 11.521430029474427
Ni 11.336663601880192 10.59359460471488 11.325996222164918
Ni 12.482101847078892 7.430044832203692 13.807017508177472
Ni 9.296485126360405 10.153194993525512 6.900424874447627
Ni 11.558848627943641 7.0772338841042 9.175165710391019
Ni 10.022323596501971 8.030471650680736 7.713415361662852
Ni 10.270306000871239 8.62331942414708 10.502806663449629
Ni 12.294680123808341 9.65143980617008 14.544835999065839
Ni 8.454393219160437 13.572866300853981 8.988070173530598
Ni 11.585853848872365 12.90036536493866 12.229595092065559
Ni 9.263036104295463 11.541570443177743 9.96774749587915
Ni 9.03974461242893 6.928937529832424 9.578268127816155
Ni 10.757916888712513 8.748431663065292 13.013164684524392
Ni 8.491332410371419 9.26199724804776 8.993745793366228
Ni 9.753547799013669 13.680980803634009 10.973171954970267
Ni 7.707132155116945 11.426920202377243 8.208182150803028
Ni 10.741754617399067 11.19000319941913 13.635432376896478
Ni 9.056990157915761 10.15640525160064 11.920600959371853
Ni 6.578547701529966 12.740547112708967 9.983042175589029
Ni 9.512127847470895 6.983470608840938 12.03423445977854
Ni 7.740046665461914 8.32303682343425 11.098247389472041
Ni 9.895964834540296 9.523606764796716 15.04198110620148
Ni 7.909900662377786 12.285859532567189 11.852831377388975
Ni 9.519412325107396 13.159869434805023 13.289489475746171
Ni 7.074360372216902 10.519967266914085 10.346308993391705
Ni 8.373282689624746 8.5732972666043 13.469370488976729
Ni 8.401027688899767 11.101939894294679 13.956521665923377
Ni 6.7667036599725865 10.067538665567646 12.574935099512036
