47
Energy = -206.93014085 eV
Ni 7.872702477567306 7.116507328345441 4.984130168309217
Ni 10.349197835785976 7.513846171311387 5.335683216596403
Ni 10.89541682982416 9.79035507845032 5.382197008167063
Ni 9.371830937826495 5.341503956689849 5.69562985812104
Ni 8.667344676757534 9.238600214233115 5.890387631575256
Ni 12.466129874510598 8.326759483461037 6.6040374272683975
Ni 9.397975226607263 11.574816666150081 6.134819986043897
Ni 11.607066938645017 10.93552829075723 7.245506846119345
Ni 7.148943147806014 5.502933118676118 6.774581191979329
Ni 8.750939286413175 7.148297290437878 7.059249823367129
Ni 11.080424255680905 6.240177426253205 7.227615073560595
Ni 6.675976774911905 8.10121161470876 6.926089366956797
Ni 10.498922324787285 8.688415930382638 7.562893544902752
Ni 7.2367875485243935 10.550633165150247 7.130095213300225
Ni 12.580438033233072 9.467174052059915 8.765856606814209
Ni 9.401819544208848 10.660007415221875 8.163231644411963
Ni 10.436536000290813 12.817346986579796 8.146982895173888
Ni 9.163979355830644 4.89992937069096 8.04001449235582
Ni 8.047818827045434 8.839861782970585 8.783253444694104
Ni 12.046090801362233 7.307175483451336 9.184551754836065
Ni 8.017466864680348 12.631963945129543 8.071070996157877
Ni 7.234463533133306 6.619672952136378 8.914322347084859
Ni 9.74157593184947 6.963660353995687 9.105361929496608
Ni 6.9942456247813505 10.950127371484784 9.454224539960409
Ni 7.219625135813496 13.063404108386013 10.544849276484515
Ni 7.1323916299797725 4.316158633820749 8.911856832013463
Ni 6.398256757582245 8.93077526704751 10.57568498498781
Ni 6.77900949142408 13.28814916162217 12.810542598531667
Ni 11.074391445999353 5.118303214773302 9.458489760954729
Ni 9.07468803463129 14.230838250523325 9.503424130670112
Ni 10.298756867726368 9.166712682910886 9.932227054396822
Ni 10.788432482652546 6.839650537023954 11.191171146445454
Ni 11.516677609153827 11.30916247652952 9.716898194084026
Ni 8.299418974409221 7.559135903278802 10.844369228966123
Ni 6.630214242513626 11.066784733944354 11.919668027106894
Ni 12.152652640823533 9.0216318474063 11.145504880054641
Ni 8.948710454428138 6.4307530069746335 12.695068092844123
Ni 9.203452045703752 11.912017297973389 10.078330323456646
Ni 8.798959058486448 5.268273284419926 10.467492088422818
Ni 8.43880198235425 9.95016654621244 11.13054186630243
Ni 8.620005756275143 14.55969521896351 11.754942035751556
Ni 9.945218243103996 8.607364088684623 12.451102816299779
Ni 10.683907825204706 13.278301688413514 11.067045735875535
Ni 10.584688070768294 10.82965951456369 11.841345778802209
Ni 7.469952347587536 8.501437245776735 12.804729161120719
Ni 8.828346850858486 12.36530356459918 12.360511988417722
Ni 8.658627809967312 10.389094686935277 13.44169540026934
