47
Energy = -207.08948308 eV
Ni 8.549307702695785 10.534010739082646 4.305158279941872
Ni 10.490346250842109 12.065124735484988 4.902819331333988
Ni 6.783578589669092 8.999166137736664 4.569920299675601
Ni 10.846572987256062 9.662958409815323 5.14807874670222
Ni 8.19335943445465 12.703865906168218 5.45050761837272
Ni 6.507702265686421 6.161035650734654 7.238682535712904
Ni 8.752168731333668 8.523200273609243 5.69523778657276
Ni 6.897413985710888 10.710081618842455 6.197456976126391
Ni 8.744349787212592 6.095318240831519 6.155942819448774
Ni 9.260891784150683 10.954682600746859 6.43789598953321
Ni 10.818382574759609 7.3180456303994585 6.190547595271975
Ni 9.991014451368708 13.022338105403502 7.134259875392772
Ni 12.543413635511309 8.973012473520242 6.784703687230747
Ni 11.57586463139387 11.196015256747032 7.0062411081821265
Ni 6.587707725831912 8.44878152726233 6.842689095535413
Ni 10.339241561151889 9.178533386587478 7.433493543026535
Ni 7.821110829464568 12.261417153906361 7.800623017309851
Ni 8.25478882123785 4.990891050045055 8.262113186417892
Ni 6.024863076779654 4.649022223750894 9.044076267517362
Ni 8.118631023159352 9.868205876944218 8.126947304256225
Ni 10.46845342376168 5.5636751477117645 7.7916493388369785
Ni 8.616747673558098 7.550017762326287 7.925563729641312
Ni 5.8212647170900595 10.047851875043543 8.495926721042881
Ni 11.722120720012898 5.563970369187437 9.890986005707067
Ni 9.932041099102124 11.263887019620338 8.939307069438051
Ni 7.421811811124732 11.382564400117264 9.871236425640252
Ni 5.65858908793953 5.640375904854782 11.139980161741727
Ni 7.039838209772636 6.66559732884233 9.511850127699375
Ni 12.011727846733413 9.874163625111184 8.993540994561975
Ni 9.885613165388143 8.89577010180038 9.684016716727788
Ni 7.5643154745107815 8.86369098566571 10.167391122352713
Ni 7.860626830459949 4.788695117383821 10.709189984350944
Ni 9.539893042165048 6.505985269434225 9.80621404468713
Ni 11.656829601453298 7.501855819051327 8.514544093637083
Ni 5.638461322571802 10.36067491358597 10.96044538616665
Ni 9.898287651203379 4.161920571164489 9.773403778556961
Ni 5.2084776319169475 7.7207174642763965 8.611992745586356
Ni 5.551359674764457 7.990046372984727 11.025720688296458
Ni 11.288464450119232 9.963941922960883 11.232627136222662
Ni 7.173304976325945 11.606239803131848 12.186535393773017
Ni 9.490552119884002 8.263091695397417 11.927381975700692
Ni 3.980019808576871 9.287620407886777 9.799654326055634
Ni 9.054503312814319 10.546528887073485 11.261898175116917
Ni 9.907980891275976 5.806543339160918 11.872823890681994
Ni 7.285960691400367 9.256412830693725 12.404357881407941
Ni 7.641266092668202 6.909023769144524 11.783560197289466
Ni 11.508348103196896 7.630999578231584 10.918376104979536
