44
Energy = -145.63712659 eV
Ni 19.352897859844944 20.584866423063232 8.484823521756828
Ni 11.40221924973105 16.01478600524298 22.14681287449913
Ni 16.93792886111305 14.990993542626883 12.818916183793498
Ni 15.976187401106907 9.793715055379911 14.44451367774332
Ni 15.700444771906133 18.48242596707009 10.179641914872878
Ni 17.2894211198412 21.17954874073929 7.750279131062725
Ni 14.89622596206125 23.231466179348917 19.351464508833637
Ni 18.092910641845418 16.894740676561778 13.071016285792206
Ni 14.718105022250892 16.54023860504546 24.058960248000357
Ni 17.770970291031176 18.201201300893167 11.159831282476935
Ni 21.412822210217143 15.221867902354807 19.248341282190932
Ni 14.264655301762645 21.38672012414157 20.422924512028093
Ni 8.852096128327386 19.77317333799043 16.1560437346395
Ni 8.910295573737452 19.997037736010004 13.954757512850248
Ni 16.067927508976485 16.83990870027376 11.783376672297548
Ni 16.467623215772523 11.772141264257398 13.785988271271943
Ni 20.889282621202575 18.617482259346282 13.707199287533994
Ni 11.035694960785374 14.09039040761227 23.18175012243667
Ni 16.768213058042225 17.459287746460245 24.196059593601387
Ni 18.754631595799452 18.452318446092264 24.66817820308484
Ni 23.01947974124091 19.198122857991272 14.093810560263497
Ni 17.900077580501343 21.30539830593769 22.097937081064963
Ni 16.347172236245424 22.343782107623174 20.78968736087445
Ni 19.573171889698546 19.464887866285114 10.456748578300283
Ni 19.34151323910574 20.417212444356934 23.644515600016693
Ni 21.524470439814696 11.68592628319074 21.4402820275103
Ni 13.442218228272457 17.079317432070688 22.228727952769837
Ni 23.852748771456458 16.94873506681203 16.88179086478522
Ni 9.808447007871928 21.576162083775035 15.310602964035171
Ni 22.14379103448821 17.335149766877468 15.187530368278093
Ni 21.842223281007364 13.879632823254608 20.911369540895283
Ni 24.167583215172616 18.64681008311103 18.41652501432729
Ni 15.774883909206205 20.344940483680904 21.74639599499667
Ni 15.572008794691385 13.745358584541599 13.979940082439068
Ni 19.912173231007063 17.724428254612217 11.955021989233662
Ni 12.928864563759202 15.213137827659365 23.559971436275255
Ni 23.195365194923813 19.030033906264688 16.339519704206737
Ni 20.210463076928967 11.48486445208839 23.195402855233613
Ni 17.365200003125754 19.270646252183578 22.998499500911606
Ni 19.903811405774704 13.214089868646067 21.82574439293433
Ni 17.489426726404684 19.63972611725136 9.391566461026187
Ni 21.702961180394745 16.293509369935478 17.214396941271907
Ni 15.037814398002086 18.572630440316612 22.91589979229668
Ni 22.986849157054667 16.783203592699305 19.042889762874893
