43
Energy = -187.76051559 eV
Ni 12.038325717149602 6.4350603980182095 9.032317219360205
Ni 13.380615146622523 8.192648320189505 9.74397897668061
Ni 13.23963144255981 10.072744422208272 8.246283002449642
Ni 15.178308580866387 9.586976452290694 9.590717869250918
Ni 10.946659520580429 10.633814837475201 7.4030622288702475
Ni 11.36296525076003 8.625848408397859 8.499350121118313
Ni 10.766239489521038 5.619582987393984 10.798271816822641
Ni 11.3377187725412 7.893993503946935 10.865816575621148
Ni 14.097400585222761 11.590496556826299 9.906416721330627
Ni 12.52181820258457 8.0740670099663 12.774667149549018
Ni 12.272171501575023 12.236172994483086 8.535343344028572
Ni 9.723009981469279 7.119411792946551 9.126756305206055
Ni 11.861034687676831 10.321672332465173 10.191773685672132
Ni 9.096400277568971 9.227700836152637 8.192631099469546
Ni 13.327055907844926 13.82160893319533 10.181955826280067
Ni 9.885190468621529 11.447399417665666 9.295269258085508
Ni 10.182362128718516 13.019995828666023 7.585852155727166
Ni 13.717882254146657 9.763250961482933 11.515679177730156
Ni 9.041204801745664 7.133833042671215 11.305653196214001
Ni 9.513975440768736 9.376625563766833 10.44702504300956
Ni 10.661725931978804 6.616151137924478 12.928171634378606
Ni 11.816477466469586 14.503531677947615 8.354989578493539
Ni 8.592270440147555 11.267560276942367 7.23816740227285
Ni 10.019417492685218 8.94514969557676 12.802064514713026
Ni 12.791376623984918 12.05259165765932 11.770801292205128
Ni 7.603684278930296 8.890493862882925 11.792714205249634
Ni 8.438321620066523 7.32686684050326 13.518158140450373
Ni 11.115273434760377 13.158384068921992 10.427269596688195
Ni 11.61704845693869 15.592054325680431 10.362448400482123
Ni 12.017456502581632 10.281525616791837 13.1307331722471
Ni 10.385155516757626 11.304105790776303 11.79461540067954
Ni 8.055548972464742 12.94185850163964 8.717557851600832
Ni 7.706943761709104 10.797663537638284 10.005221275943189
Ni 7.946078877008343 9.50489596622639 14.074471328757923
Ni 9.62303307202896 14.60466168093179 9.39614293047205
Ni 12.221747462921703 14.340498009283495 12.280683944828251
Ni 8.686654386657455 12.88050298603649 10.930989990905852
Ni 11.446935915266309 12.542857792576815 13.66796282600926
Ni 8.157836687165128 11.077782448979006 12.366678064312882
Ni 9.81739539636965 10.886857894463779 14.151473914315673
Ni 9.914480658176043 14.748044348681013 11.794579397636943
Ni 9.199983550295649 13.028751572787355 13.263979471881084
Ni 10.673470639701096 14.731592347144987 13.99822512169359
