44
Energy = -194.07341207 eV
Ni 11.78968476320564 10.565945067552436 12.5041677079087
Ni 10.044234126259113 11.164839701474191 14.06384065949856
Ni 10.220398118425893 7.486938342852635 12.096455043742958
Ni 12.468908395983435 8.238754600555803 12.375846301314688
Ni 8.965704552538037 9.553906135183208 15.3250663845166
Ni 8.369456375728491 8.237054983270037 13.483968123616098
Ni 11.869018226223357 6.388797880409971 10.942583229489001
Ni 10.735649795946694 8.88906270203837 13.903882973918552
Ni 13.338965655248138 12.2877420422913 11.825744171999059
Ni 13.780696676466802 9.928787328445539 11.387812021353005
Ni 9.460439540633537 6.036865732979442 10.443706189772646
Ni 11.164151439782833 12.796788768734718 12.788700192371005
Ni 8.746229714610768 12.475348300384184 12.56143641608971
Ni 8.120449182121128 7.853692949695349 11.148514792631547
Ni 10.098583064742256 11.736522558068758 10.726054291073877
Ni 15.288191698163581 11.5477365506645 10.703856482976764
Ni 11.157433034538057 9.22536847263144 10.583269922143572
Ni 7.708512546871604 10.60036210621587 13.608313929960952
Ni 13.167585053372983 8.105758160761972 9.983803433270724
Ni 10.817915391188153 7.42512562382612 9.15221875252218
Ni 6.543106287190545 9.158243241121312 12.16776522318567
Ni 13.801211239311781 12.790566843793947 9.364911241340492
Ni 7.515703574547606 11.032627861412092 11.131221769014644
Ni 14.20487609291121 10.20707223212929 9.076355173349924
Ni 11.824226358257043 13.670501582991196 10.669129798877748
Ni 12.306348545517487 11.224663068986816 9.969387526382842
Ni 9.785414209754176 14.314489779401347 11.6353082178575
Ni 9.367249941555075 9.871694855109377 12.1423006339468
Ni 8.999185375973903 9.607657007966166 9.680744511730746
Ni 8.398315727320153 7.463127251309982 8.82096163899546
Ni 9.828781217783066 8.785648136547335 7.498353478836967
Ni 10.48134417973598 10.961723378202251 8.396777104957536
Ni 8.277556429480192 13.107398671961022 10.189848025816731
Ni 12.128175519380637 9.23488040268775 8.244344251473851
Ni 6.704366981679735 9.225071463232302 9.751307415606044
Ni 12.827712371701322 11.408715310003833 7.511382845310218
Ni 11.545946740526052 13.10241925147387 8.478702741266453
Ni 9.994395524702272 14.607333025288508 9.363056922942308
Ni 7.647350856755486 11.272462804613074 8.734503854711535
Ni 11.242687283969762 10.127790822581622 6.22155481708282
Ni 7.505435095762936 9.2348961618926 7.521489201541402
Ni 10.838146615734194 12.407171593052752 6.354654531285015
Ni 9.171476330594807 12.908063773318196 7.989642801032893
Ni 8.937355776173874 10.918959101258631 6.665630881654985
