49
Energy = -159.4401192 eV
Ni 14.556535479233922 11.178337071804743 13.764620984674115
Ni 18.52303494272847 13.525029685852255 13.778274608222121
Ni 12.847886103001233 17.040216932932417 20.323847115102875
Ni 12.887763115358522 14.859412766287354 21.33511661011338
Ni 12.372527340465972 13.025336508273305 20.0924508006873
Ni 12.708185344966187 21.124697835283765 18.189747825448872
Ni 11.535085094504412 21.897574847200968 13.976317428110743
Ni 11.033648651395627 19.13894455071109 10.46978845095689
Ni 22.125491683304976 12.373623184439158 16.29875876499656
Ni 19.116840394668635 17.405923533643517 11.597359289404858
Ni 22.464601833401066 22.351686450712755 0.5122465397067084
Ni 20.757856236386576 15.679864255174268 21.573467793615833
Ni 20.35197279577645 12.538994585792329 14.986728126163737
Ni 21.77918416019706 14.244016214909527 20.040535655359577
Ni 13.931975740670556 24.836070405908668 20.6691951439969
Ni 22.948725151375104 17.88631912185618 12.43298248090198
Ni 21.968079208705475 17.037498891329946 23.034300042615534
Ni 11.07524258637746 16.930944264990806 10.774252285044415
Ni 21.213253280435968 20.66727876685117 25.09073501566675
Ni 20.825110147191392 18.740877979423765 24.0622592019666
Ni 13.110253083210557 20.968108175646332 20.485042943094815
Ni 13.331403479300624 23.007399116208518 19.460380790541482
Ni 20.709333902973487 14.494918904542516 13.880180231783044
Ni 11.38827620228689 18.24380129282499 12.583585255480243
Ni 18.695773811914545 1.093614099980514 15.365938220613295
Ni 22.8723665749858 13.044472311835019 18.356349339879156
Ni 21.009396373893363 16.564006787313172 12.656763062775275
Ni 18.990756959757256 15.487866938421575 12.746708578087341
Ni 24.0217283214333 13.946169005466809 20.231991277296963
Ni 16.325416143821393 10.323644978988737 14.869967328863888
Ni 16.53430447311322 12.328288253473229 13.795617297880487
Ni 12.1546956225677 17.247262118205715 18.1180778422636
Ni 12.783113323260567 19.077091666781282 19.311723903522775
Ni 13.687436573327146 22.881928387277434 21.69817438635317
Ni 23.015174389869525 15.381502020972407 21.663875813727635
Ni 11.975429350801138 21.31454250144432 16.09203585856462
Ni 24.234097436720724 11.834523376428388 16.84038782820069
Ni 12.277334406542682 15.15172265112745 19.152727369899242
Ni 12.836980028793926 12.838574606367331 22.27881663087069
Ni 19.66833651873227 17.211169609629902 22.84562946627602
Ni 24.964157528041003 18.496929013179912 12.85474719192732
Ni 11.289130470218652 20.460075318157266 12.30854684180418
Ni 11.78061443586043 19.585825910664195 14.531832776688166
Ni 12.21085491651648 19.161679090479154 16.852107788365412
Ni 25.120600845067642 12.632698470091746 18.77872311937009
Ni 21.108004702038468 18.541245200751227 11.411591497953493
Ni 20.312801123426567 22.645361390914093 0.4041173345150068
Ni 18.342776575954154 11.500921130361005 14.940543747176973
Ni 19.891864175804532 2.341199709049032 16.56396330843917
