42
Energy = -182.93414696 eV
Ni 15.463451022222939 9.429577153283784 12.930504061747353
Ni 14.896406619625619 9.320780461506446 15.43620077146706
Ni 16.731577406699166 10.711555676025805 14.429999377135083
Ni 15.695946752069554 11.49280684912538 16.339745492868385
Ni 13.518653346392567 10.838632239458244 16.898648299860618
Ni 12.590195623201433 8.965363807198774 15.93510814296364
Ni 13.101163464681818 9.23753182128863 13.697770108833929
Ni 14.40605985041733 11.145261182225893 14.215058837090375
Ni 11.640355620619655 12.40334732031617 16.76165437139309
Ni 12.16178720057411 11.09001036496215 14.999896226445045
Ni 15.877103308225985 11.785627893336049 12.435281528543177
Ni 15.786687714716052 13.047131832223167 14.449406406167311
Ni 13.840111647159203 12.878668476426766 15.796768644517611
Ni 15.60330515977973 10.348685666620149 10.610471514627037
Ni 14.691270372171157 12.621253422252158 10.604240073740016
Ni 13.697047831047717 10.551645697106181 11.866951879433767
Ni 14.06634466958803 14.742864668924827 14.311622382740913
Ni 11.471902236240473 10.872280334458798 12.817901816086614
Ni 11.937381675710318 13.7241873301528 14.849315715820156
Ni 15.399180212256702 14.121081037231836 12.34299845941512
Ni 12.344062299236361 12.20619083805862 10.980165917565593
Ni 10.43975642717994 13.734496193153987 8.351649966454474
Ni 8.757853895255144 13.857967083869386 10.27802490703857
Ni 12.175395102655711 15.416649531068146 8.895479663314784
Ni 9.864330521660108 15.844530914411456 9.57194475002458
Ni 9.757464408156467 15.335611380215083 11.968999734109264
Ni 7.648127221579152 11.926287049034508 10.958308821286794
Ni 8.952129119576304 11.938663914400777 8.968152043149857
Ni 11.104377586915934 14.103481959466436 10.496627248024318
Ni 9.855181895764218 14.595069292922462 14.176582717029234
Ni 8.722831636737375 13.17790615308548 12.610414198542534
Ni 12.92953437618452 13.226706919737133 8.955751902302381
Ni 11.723158621003945 16.363304578576365 10.99268491384822
Ni 11.062597290195276 13.225299516023634 12.704472268517394
Ni 11.244577610633264 11.559191079893726 8.968171240443356
Ni 13.372241252134405 14.572282194144318 11.056581695629198
Ni 9.972931590520417 11.718143390879073 11.084823925735519
Ni 12.11106398246628 15.278607652795497 13.013717031475254
Ni 10.110540275400039 12.222602535768562 14.592789366341925
Ni 13.47169579233618 12.94712088261994 12.975368621275146
Ni 13.54837768126325 10.887360042939479 9.421717562027075
Ni 11.677007676577658 9.95540165964297 10.66919539179942
