43
Energy = -188.7510193 eV
Ni 13.399002336564603 9.65154933706415 7.4725594821564965
Ni 13.15536832561879 11.881108830184097 6.780452168098524
Ni 13.159931228806736 8.176013329611678 5.671468889607281
Ni 11.793680083082833 10.116042279901018 5.883183111803163
Ni 12.219239835297628 13.47209465965578 8.280224241219083
Ni 12.711371666235703 11.291492263925445 9.051770336088998
Ni 12.913917657753306 8.966044805733436 9.682652836149723
Ni 12.959736443566465 7.3835178470053275 7.8626372627708125
Ni 11.870456398772468 12.977373173842123 10.587620438918679
Ni 11.02957878878705 9.525563112545724 8.260876501954531
Ni 10.994287503488003 7.93452048088562 6.55452717419659
Ni 10.877088262395466 11.784202098299653 7.382398168013901
Ni 9.53971212417624 9.972059807778038 6.484478932210182
Ni 9.940174162337314 13.390497968192603 8.889376069201944
Ni 12.299368830672156 10.622426956201137 11.315541548249943
Ni 10.41176619784088 11.316140676829496 9.895297007261375
Ni 12.87036478992778 6.675929167549519 10.117116693391717
Ni 10.642191211427555 8.96020906602816 10.642960800058898
Ni 12.507733065889711 8.269565213615426 11.906703792726578
Ni 10.877092613602409 7.189355177333056 8.900611004216982
Ni 10.601362080347016 11.95636285673181 12.337015847225327
Ni 9.737631374167416 13.827251846839314 11.194960477185452
Ni 11.128668367871338 7.290482543660389 13.493972205859235
Ni 10.807830868289662 6.625619657841921 11.227559113107693
Ni 8.563830946582879 11.607004270955875 7.943353789849446
Ni 8.92425534917616 8.015462715687145 7.75205966663695
Ni 8.708608963150615 9.737087391742048 9.37171942434547
Ni 8.24516023139814 12.291298400388223 10.214646422106672
Ni 8.782063719135746 7.39550813670268 10.059053928856212
Ni 8.23898877921824 12.62383268957002 12.556512173460499
Ni 9.215824811945328 11.10135993218616 14.057504352850556
Ni 8.899979594881648 10.384257268358393 11.762951557667913
Ni 10.84132748223175 9.62331320382181 13.054109203879712
Ni 7.331585084129122 9.720599137795608 7.205125126750053
Ni 9.2330409336898 7.957748340857069 12.342270954827224
Ni 6.629330429062164 10.84140013720206 9.195508888788268
Ni 6.796935425019851 8.345169239492877 9.032618223762517
Ni 6.60768553526348 11.112241714491924 11.529034660267815
Ni 7.2290313962822745 8.691229470867794 11.360197224607118
Ni 6.805404530229747 11.315573308677996 13.87976870716242
Ni 7.8553957150055025 9.250129214758017 13.657850751874275
Ni 5.219335784411385 9.460475204156857 10.491160816463236
Ni 5.630168588816908 9.476394581581921 12.86409754072011
