48
Energy = -213.42457384 eV
Ni 7.613298733863471 7.679361158130512 7.945570826323755
Ni 7.5897535549031785 7.745066424309131 10.261067761511995
Ni 7.063843178903205 9.814356392433679 8.781180726614199
Ni 8.56449997013482 9.822109477272472 7.008316451141157
Ni 9.712266481670802 7.598183940782262 7.051107806962948
Ni 9.515816507888676 6.512071831293998 9.368671417230171
Ni 5.88311389323856 9.3665121325655 10.754727888084124
Ni 7.429837881524294 8.519590504484874 12.469252483767956
Ni 7.582937092328911 11.991306687822119 7.78837571911575
Ni 9.415168943421937 8.767987834285618 9.181591587208523
Ni 9.169938567886879 6.866417917463208 11.777802527091431
Ni 10.878960029212916 9.619813397525865 7.215084094708004
Ni 10.033075254848153 11.847136173717082 6.959412119421368
Ni 11.494884507331165 7.697716064925541 8.558582245530278
Ni 6.515871273374356 10.828629750471203 12.470727333417598
Ni 6.683737097542115 11.758958959798989 10.135824170582321
Ni 9.241063474350705 11.080167777064043 9.013053998763139
Ni 8.120917398078305 10.129121319340296 10.907350477730281
Ni 11.370795664058765 7.218964362263088 10.870332990594983
Ni 8.754519639963528 10.42147607687465 13.23825213302516
Ni 9.120407704246794 13.87468504751164 7.595618058865019
Ni 12.296017267635959 11.445281505534114 7.668523436627213
Ni 11.433652836496696 10.09890893599739 9.497294267643026
Ni 9.321060679278624 8.181792245062956 13.804191912758043
Ni 10.932857243512464 12.651048694051546 9.364905147759796
Ni 8.188378819956148 12.415282479109562 11.974419307418051
Ni 10.07556736214236 8.996337776007964 11.59865677989987
Ni 11.555752369223734 13.735486996103473 7.517394500111502
Ni 13.133764370176864 9.268026993430075 7.824653133458071
Ni 8.536262651207936 13.23170231944359 9.774097528887639
Ni 12.503294718439763 9.525091455067566 11.477156795407497
Ni 13.413377904251314 8.111266784511349 9.83293668110728
Ni 12.501644793159715 11.944453714150558 10.951309005732748
Ni 13.92247301530357 10.537887285977641 9.689671970495864
Ni 10.558506424086545 10.045796416058842 14.610102880667444
Ni 10.234894184240918 11.335737485225508 11.31997749961505
Ni 11.573463231089079 8.284525940174255 13.308986780479454
Ni 13.455598696742287 12.879306477034644 9.024567163795556
Ni 13.414407888920918 7.374214276615251 12.098751827311307
Ni 10.247187616502835 14.86759466758426 9.378002009664993
Ni 10.130790351395401 12.335156984505357 13.488469294936113
Ni 12.264418501181304 14.307832999827024 10.481510932321338
Ni 10.160878035833253 13.717898913118287 11.523841137302696
Ni 14.871197716416965 9.136975064742684 11.415465825551184
Ni 12.074906111399132 11.036617721103655 13.229089314024037
Ni 14.239956891387903 11.258994535166002 12.226395773675144
Ni 13.69794601974047 9.302321128165689 13.519728851909475
Ni 12.19166364673384 13.348884526512666 12.726429342894106
