40
Energy = -173.94517963 eV
Ni 13.783811448758579 10.147621912856208 12.172526506830964
Ni 12.548253356463906 8.229513366662538 13.19122705761812
Ni 14.614757841946586 11.789259515882927 10.692320088680042
Ni 11.64706787980385 10.422604958348645 13.014524566929632
Ni 12.75897214151452 12.355684284553131 12.050676470814034
Ni 12.690849637809928 8.42539152643152 10.89697715169438
Ni 14.628473438722 9.494845874554231 10.094044379653694
Ni 10.302972258293225 8.553209173849732 13.729314960872056
Ni 10.888997112296238 7.155480717146622 11.747137213094954
Ni 10.278577341265908 9.370070688825386 11.411023967327266
Ni 12.184163381220484 10.700147207915126 10.387701045253898
Ni 9.246675502375773 10.601288128212085 13.225678983139415
Ni 15.032286333899345 13.308234215785557 8.968418134782713
Ni 10.944425551259693 7.856932372239446 9.390668848408417
Ni 10.427232264984324 12.239568600027386 12.048052772675833
Ni 13.954504403138813 14.072296212689292 10.936372617624212
Ni 7.992486760081268 8.909928736693464 14.246941728540907
Ni 12.816325719521293 9.129630219825307 8.619146636609852
Ni 14.148681620440321 11.135697901964662 8.465298245123106
Ni 8.561445257366062 7.854828668994463 12.271801641299609
Ni 12.790167185310333 12.856046845790846 9.362835693634738
Ni 9.055383694596076 6.781482043962705 10.247809260593316
Ni 11.478520991995525 14.035593746007851 10.917028199641113
Ni 10.913076102068525 9.059157490968973 7.207543196903616
Ni 7.9216324182464275 12.410618556372317 12.545996802625881
Ni 10.083495169547922 10.0265674228224 9.130521619768889
Ni 7.22673008244633 9.894322852462144 12.2435791280323
Ni 8.74429442049604 11.190249358189481 10.758098952837777
Ni 11.879243483425016 11.1800853945561 7.906122158386684
Ni 8.089627993231066 8.914659444487139 10.207444279119418
Ni 10.487551174350614 12.403625941217474 9.445793204586696
Ni 9.045458208859392 13.67981764680738 10.798863481686165
Ni 8.914599088288494 8.039134632110944 8.161869510764225
Ni 8.827026447970425 9.426572972774638 6.247429311580772
Ni 5.724636267091197 11.647506901596888 12.167731506606525
Ni 6.728165197776965 13.118054849177298 10.646675933551599
Ni 9.624937985873496 11.393252706742121 7.306310173858297
Ni 6.542210934852357 10.843281374629086 10.097377887220617
Ni 8.112778679615321 12.400312803821368 8.87862501547746
Ni 7.7731755973503835 10.152927182478876 8.20824893748429
