43
Energy = -189.2617586 eV
Ni 8.336905984865105 10.114359332852183 5.723418044628171
Ni 7.7273730570268695 8.321216125335633 4.233345920353935
Ni 9.582234902368409 6.6113088863321545 4.2392996871495985
Ni 10.055529151000151 8.989998255251109 4.4001545880117146
Ni 5.459165332172521 7.637845765986518 4.88910671520752
Ni 5.870529698078103 10.059876907791411 5.562929336018029
Ni 7.47337528353488 6.176412247897531 5.33029976209096
Ni 9.40190962471311 11.499133234955268 7.226494912724925
Ni 8.61066831369997 9.119447512112496 8.054026652461586
Ni 9.24275848769665 7.77635966176552 6.1405794226699815
Ni 11.399866401205571 7.10208599531822 6.467804174005666
Ni 6.949884757947977 8.239807187646978 6.478788171125104
Ni 7.042073294958197 11.781434814521594 6.894878858833191
Ni 9.56860198782165 5.363983196836538 6.38560304656121
Ni 4.626602626328622 8.522061108623683 7.053760394905935
Ni 5.630324626516542 6.228758030782491 6.9101308550566065
Ni 4.546954047366131 10.970816912000778 7.4876964221299644
Ni 10.673288038615423 9.532500264108103 6.668160657809092
Ni 7.319683430272833 4.461191686026061 7.003909830374331
Ni 6.437553303664347 9.969478779359141 8.039942834840177
Ni 8.07206930749055 6.562049599115184 7.7470693017243475
Ni 10.258579298740512 7.474147086104308 8.549697454065948
Ni 6.268301840993959 7.751963154371491 8.70368554123063
Ni 8.816247745320736 4.695903231977417 8.836190784140646
Ni 11.054427529126317 5.357299565635098 8.233682005813808
Ni 6.452253984998016 5.3986874531505356 9.103618981530962
Ni 4.29771482198983 6.783691752673342 8.9374706759706
Ni 12.186253560585241 8.651541142491642 8.314027383822404
Ni 8.181204518749398 11.207348817565508 9.194571815355264
Ni 8.267261137942695 7.558227074494237 9.870878765470877
Ni 4.527161016602192 9.25782610915018 9.338154346577735
Ni 5.783573384561167 11.393094029775678 9.705457126713215
Ni 9.14470056348462 9.58280638674249 10.76290372782766
Ni 10.490434932824542 10.291227471621811 8.920601702609693
Ni 10.379080223526362 5.073217533347184 10.499908287239581
Ni 6.681817756991956 9.32518900811813 10.490577844595201
Ni 10.014544601886655 7.241713555742158 11.304166987597903
Ni 5.969923959747035 6.988058285470277 10.859843908994943
Ni 11.960425185380332 6.777268451192302 9.955278720401555
Ni 8.051294444841616 5.632028316780513 10.998704373209474
Ni 11.430823625418677 8.974447087915816 10.569116543238522
Ni 7.528241382453685 11.20828988746687 11.42672811817885
Ni 7.838364755216112 7.945881022319557 12.097317245457637
