45
Energy = -199.25410436 eV
Ni 7.36832611288571 10.347458984425387 8.438670419092752
Ni 6.200469610566305 6.603451040173865 5.25471967256453
Ni 8.901207960202075 10.83618739544052 6.632190094382954
Ni 4.808179700324661 5.213524302909241 6.6338958352997555
Ni 8.652173336116032 10.74236888694267 10.860879769153774
Ni 10.06549086397923 6.746578407257072 4.460613369138291
Ni 6.539662730135931 11.144981661901912 5.982445311199644
Ni 7.8989669116731225 10.180472519331136 4.438920959961535
Ni 6.311218910430235 12.333547314116666 7.915577036780061
Ni 7.147947164409276 5.325124059081511 9.83452136281782
Ni 4.6566757160773085 8.543844290942975 9.3347397876328
Ni 6.783730366728484 8.037041082698975 8.596558264793927
Ni 9.075029816018626 8.677515509829352 7.633672546544228
Ni 4.919532939104717 10.947892844772051 9.303143836545521
Ni 10.779330187183591 7.112402487020218 6.796990412843615
Ni 8.090360367414652 5.505341529017058 4.184041684908688
Ni 7.17337604247901 8.82751215638289 6.325040929273001
Ni 10.943603449742072 8.305732040862647 9.06067962726641
Ni 5.483871566896003 9.011103208556252 4.922324646343499
Ni 10.882029064605033 6.357558566001218 10.282480527607392
Ni 9.627612708172581 4.8847136804724745 5.998011102264498
Ni 10.68685530223123 5.040334967417157 8.168819096407772
Ni 4.962598008194246 7.568531590855193 7.0055735692408385
Ni 8.65616803226623 6.614133301924612 11.191817573171141
Ni 9.964725956123985 10.448985473879656 8.883074766468223
Ni 7.809016107183809 7.88012934912743 4.1027044208504355
Ni 6.416797352772248 9.693222176517432 10.589632274461728
Ni 8.593854676083456 8.634028368967398 9.922453101137075
Ni 11.145382045513973 9.566984796096573 7.02195101051492
Ni 9.636299875736208 8.882499429161276 5.34205146544921
Ni 6.809774138567322 5.993742824886008 7.542305006811021
Ni 10.281709268548184 8.449747418699898 11.415256698301905
Ni 8.588938315903958 12.30707062189517 8.797347805421795
Ni 9.369384789878312 4.5694898693739505 10.134235997935777
Ni 5.1795057594115805 9.839283333612 7.313695073890065
Ni 6.7687520224002915 12.023449915077402 10.230969522703141
Ni 8.967895867536164 6.534153486870238 8.661044167840348
Ni 6.330755300015514 7.333912492021428 10.79557169301971
Ni 7.115733010196469 4.368398872189414 5.973609927099128
Ni 8.495907389562449 6.822303943291912 6.178224154143495
Ni 12.396565581558292 6.630459045144816 8.43282402780177
Ni 8.42647661323009 4.233892362687088 7.985702571315131
Ni 6.04053337815324 3.9439693143148156 8.201850591558694
Ni 5.033871819315867 6.171046760645543 9.028366242267232
Ni 7.941641917502979 8.693816370240208 12.118740098806379
