40
Energy = -174.63919392 eV
Ni 6.955669798878054 11.994105053459183 8.84663511789667
Ni 9.985436654614773 14.011638790125946 11.346163232169305
Ni 8.637882404362934 12.567428600297436 10.231793159100505
Ni 5.462991365766301 10.475920925535211 9.75569537319397
Ni 6.718478492142287 11.767927786938447 11.391220296024876
Ni 10.343246477506375 13.290183080630447 8.896824113785295
Ni 7.039683818318727 9.75683230565555 8.079235067633626
Ni 8.775275025294391 12.38333751788152 12.581983598872982
Ni 8.993504957621903 8.84818605263893 7.248884266544612
Ni 9.198925051702053 11.06444570729023 8.259000632375313
Ni 11.144465890072402 11.995963956285324 6.996289663337597
Ni 11.199100392441393 12.587391378302582 12.936778327485007
Ni 11.945063947478058 13.004435145283631 10.714362312719928
Ni 7.984565020280479 10.225785003121834 10.167741787115274
Ni 7.498562248272863 10.579591653862304 13.322114731626368
Ni 10.301347114332115 11.106487332485372 11.28614418557945
Ni 12.701515769957341 13.17105914934718 8.405376358226079
Ni 5.990054818161914 8.218153791313258 9.61535228607141
Ni 6.341084169410678 9.380614751315457 11.659090767045099
Ni 10.278407039336855 9.26265025859647 9.821118613935974
Ni 13.55283804457151 12.35930575388817 12.248487484887141
Ni 13.82169967291422 11.784734599297343 9.950827101222693
Ni 13.21234821147133 10.881150527733075 7.710918783886151
Ni 11.454316310507952 11.279054451454199 9.174934579208733
Ni 9.945545541248288 10.53264377238202 13.532899940353603
Ni 8.266255044396976 7.947157339792964 9.234137505835486
Ni 8.686734350023317 9.028797059985846 12.055416958257398
Ni 7.348721721486125 7.25211069380924 11.286415689679373
Ni 11.10680851296976 9.66052999430451 7.455377221047322
Ni 9.696142245863895 7.14934417805863 10.896456389219829
Ni 10.586015133865613 7.4355202643391225 8.518137019479257
Ni 12.518014694798362 9.833711952288922 10.687081429286115
Ni 12.35359309362614 10.514936496195329 12.961758231019664
Ni 14.749830708255482 9.832382068994523 9.192350296816384
Ni 14.52528765304082 10.21943931999841 11.661497167882613
Ni 10.950130309118173 8.76640477782959 12.214673056034856
Ni 12.789167884497086 8.633349959980952 8.670645675170983
Ni 13.232791554958665 8.324405173174997 12.518004769373922
Ni 11.995051288460843 7.4284350755529704 10.549202659919724
Ni 14.283685566624666 8.01468629922363 10.489212149329997
