40
Energy = -174.50008309 eV
Ni 8.001662135537329 8.120090733757765 12.401926945342467
Ni 9.38586431270043 10.030479067184109 13.180586091660127
Ni 10.533018947338194 8.008160501286428 12.615752034360433
Ni 7.491332684871743 6.593435308688985 10.564289669125044
Ni 7.513576623139062 10.548239546261941 11.814628870155959
Ni 11.65902237766287 9.668980551082266 13.98771681349671
Ni 9.865518777252666 6.974213098314092 10.6066042974888
Ni 7.986430515420001 6.236353930358952 7.446487920192845
Ni 6.617763453580177 8.752986931378992 10.47945154152908
Ni 9.154817296762149 9.211341856886335 10.813409618707775
Ni 6.233406784132671 7.335981883852156 8.594244472897385
Ni 9.51501573959113 11.900711642086439 11.645386816269758
Ni 12.047081925732428 7.964872997384401 10.669279509864692
Ni 5.797163324506249 10.981639991762318 10.251834375832017
Ni 11.178214458630368 11.808668072707066 13.253217168957256
Ni 13.067710050576855 8.461362360093013 12.639545755101222
Ni 13.25300076904856 10.8509132874729 12.391142952082769
Ni 8.464219677897502 7.893889877084319 8.931067920340023
Ni 11.24846679335384 10.02886693820558 11.628404897916951
Ni 9.824500130739592 7.737288185576195 6.904170336801639
Ni 7.747259496532211 10.267467558559074 9.013182245356045
Ni 10.695789929194351 8.591436330387154 8.921204468689602
Ni 7.840032821527359 12.347865792945653 10.112819768933347
Ni 5.730850442590099 9.640787941176294 8.20725901631675
Ni 7.478118067384236 8.482875178784264 6.892013316705805
Ni 14.05881304799208 9.295927837567373 10.650770830448872
Ni 6.311746528820844 12.07696485386421 8.258452687185724
Ni 9.996564269113042 10.945561665566967 9.532531752625522
Ni 11.840851813498976 12.28077258708687 10.999659448102419
Ni 13.138727711361584 8.454451003520388 8.560424571865108
Ni 12.285133745898232 10.354303871829375 9.516881319370345
Ni 10.144534688707102 13.22738068946183 9.571651938396394
Ni 14.055516486758444 11.650045647175144 10.236287184270425
Ni 7.242939387335952 10.779167120652113 6.597366274993165
Ni 8.733488410507123 12.208903345724213 7.870316086626768
Ni 11.679767063791559 9.443899956290243 7.0013019867043775
Ni 9.378176639591961 9.988956374565557 7.251891359145542
Ni 13.458892158167227 10.963567226079634 7.721427064720731
Ni 12.569018658892803 12.904548617927967 8.911038983480125
Ni 11.11029248053399 11.670904068394632 7.636871233679266
