43
Energy = -189.26672312 eV
Ni 7.744267444129973 7.666689379502136 13.524021907859675
Ni 9.669815286543137 8.883986842650724 12.908695561163038
Ni 9.870011717157604 6.570651223093661 13.254009330953618
Ni 7.455273499370957 9.80100502281777 12.463717236064033
Ni 8.711809512766077 7.330927019269534 11.382737940475561
Ni 6.432756414396077 7.894375985126137 11.572513256157855
Ni 11.626314652066347 10.22647047805505 12.783292628331832
Ni 9.404893929313115 11.216198041623583 12.549259082564454
Ni 10.95448602764555 6.475279741314981 11.06404207109898
Ni 11.828950052694418 7.791068115059729 12.893530719909876
Ni 13.530380123550394 11.550780362844057 12.598001652755038
Ni 8.833366703739337 9.73180587279331 10.571793833566163
Ni 11.379401196678662 12.608845857090905 12.530991496471604
Ni 7.550138362379518 11.789552041051527 11.127521139876938
Ni 13.7288119665912 9.135737842327094 12.683790208848542
Ni 11.980639998158987 6.685075815362181 8.901906171054486
Ni 6.4393736832839465 9.862562549862137 10.236043958225862
Ni 11.036016679396697 8.81849449013315 10.82061418469067
Ni 7.421491570352436 7.838200011043847 9.452002057953331
Ni 9.742185101148081 7.503772304323997 9.24149385208079
Ni 13.0728192615698 7.6841741034096325 10.848627747473817
Ni 7.866838081978612 9.810133723095857 8.25600420578161
Ni 10.88949285955982 11.249359073968085 10.63627456166787
Ni 13.134259444476998 10.198638753023976 10.710622299290346
Ni 9.480273887272597 13.228515694432698 11.184766531224398
Ni 8.460049161997688 7.768514862552266 7.2994116569345655
Ni 12.572612136191495 8.897028943844754 8.847671763816173
Ni 9.006131887198642 11.851588027920691 9.164439750987212
Ni 11.49816923737791 14.463403398985779 11.077468651557622
Ni 7.679408724613198 13.733085540894985 9.696934435212064
Ni 10.3274312811757 9.84199356591267 8.648064362655145
Ni 12.847857576667645 12.593199181163575 10.57577255301981
Ni 10.790378648273366 7.892005083035402 7.158198020633185
Ni 6.650158710885771 11.77956290961912 8.859509568082286
Ni 13.054747487851847 7.741352304157665 6.934823459967495
Ni 9.649730417476405 15.038054912813381 9.67594355637641
Ni 12.343177007936648 11.272558872704913 8.659532621533183
Ni 11.064453737061601 13.250409442319222 9.09516604089642
Ni 8.133281207230562 11.750307130882359 6.923261360087267
Ni 11.92237982094095 9.898549138438444 6.743749997460738
Ni 9.453982654378517 9.807935133343731 6.4583385913201825
Ni 9.133309215290769 13.729596718593376 7.769202892970361
Ni 10.53091047031699 11.827792446141569 7.190770868402542
