45
Energy = -199.29488161 eV
Ni 13.721503793403091 8.089997144186656 9.595433790087933
Ni 12.339529023390158 6.465320044286615 10.961964458793798
Ni 12.339399506615484 6.439296292844222 8.564036677460852
Ni 11.723212209940115 8.273491036616232 12.44384632056612
Ni 13.373296861388011 9.50529940591363 11.445470376230695
Ni 10.27297038830553 6.359464601503586 12.133845749181958
Ni 12.45639690924955 8.687937398679116 7.613432571236372
Ni 12.78947332754563 10.316359195308475 9.26229175502231
Ni 10.200549883715363 6.242529096364491 9.716407389459997
Ni 11.797906513305424 10.712199161642179 13.14503239494663
Ni 11.41921301339785 8.251018152790254 9.827016401104181
Ni 11.112796683964318 10.251853642574655 11.077682432490759
Ni 12.81152688236494 12.731325138724111 8.828305039767235
Ni 9.891189100971546 9.160374024892361 13.580055331162209
Ni 10.390991703736173 7.452229085487113 7.673501310933966
Ni 13.030798660156846 11.802105887725517 11.059001667037986
Ni 8.30485186641094 7.343042641402753 13.092556075499466
Ni 11.922500566639101 11.11188111404313 7.199470618275206
Ni 10.329547193912108 9.822912580856723 8.414737302720724
Ni 9.574327908343665 8.425675043711731 11.38455726127015
Ni 8.167695571203883 6.542931153638907 10.816211789905193
Ni 10.798565287498267 9.34486064183278 6.080607859028194
Ni 10.68615636872561 14.098720617350756 9.750179229124301
Ni 8.684115009275766 8.745827576450019 6.8123237543326765
Ni 8.185781266652876 6.529789853483381 8.192667544221996
Ni 8.576333347023223 8.429510688028731 9.296057872365074
Ni 9.413427912418085 11.295858987922177 12.68416758192545
Ni 10.895641969497497 13.214933925461294 7.4458519187751095
Ni 6.356800734107945 7.845901773602951 11.78600715022935
Ni 10.790870743245778 11.88499502163382 9.425720883189026
Ni 11.040355349970154 12.671094375786556 11.725354499964332
Ni 9.495596621357674 11.345769744571461 6.666375584714312
Ni 7.776190847127017 9.52942979970846 12.439031546439109
Ni 6.582787292718556 8.599151545968343 7.789294799915054
Ni 8.856155108853107 10.645515519649551 10.44356174833828
Ni 7.998651459250772 10.541466750798252 8.2809501427878
Ni 7.10470439440208 10.322108269976555 6.109415207539791
Ni 6.32831349608998 7.266038352102951 9.582712730939821
Ni 7.137755527960919 11.621737508314624 11.83830899225891
Ni 6.580435054425587 9.676106122573842 10.177093292300059
Ni 8.886422572153451 12.99596069401231 8.582699984253589
Ni 8.836715678097256 12.998289764220477 10.947825859796206
Ni 7.18998733379195 12.421195904148764 7.1533669188512405
Ni 5.691401212840489 10.75072010188479 8.057042753082824
Ni 6.899422771372258 12.143904076197586 9.597267584865895
