43
Energy = -187.56127305 eV
Ni 12.96980870726449 12.045989764676081 13.748897128842902
Ni 12.504077820585794 10.066636748926543 12.502453507477867
Ni 11.371817701583218 13.685619425559622 12.945439747226636
Ni 12.396134770172306 12.206664860690204 11.496454049920189
Ni 10.768681735828698 11.466881641921722 13.32107458420518
Ni 13.22600156263501 10.424715294778162 10.126600223397874
Ni 13.71750945925407 8.395171215610588 11.305280594272446
Ni 12.893873381798546 8.408531026175657 8.835890656922652
Ni 9.956435501006183 9.26695405199369 12.597123988100588
Ni 11.810292690908998 7.709116215299016 12.685147485559968
Ni 14.43658424905787 6.953448399387759 9.634853485706714
Ni 8.49798150593817 11.002279590866435 13.336594782256096
Ni 9.180788766258413 13.056110133764529 12.460656716952506
Ni 12.335591525818659 6.693004533173925 10.533586725889267
Ni 10.612516360644726 13.554568400449481 10.626812669022337
Ni 9.509271257986759 7.160600023614703 13.456411511957462
Ni 11.440752203463841 9.033341430976538 10.68097635351531
Ni 11.887695563535477 12.11710617942871 9.18923579712197
Ni 6.236139046095622 10.566602217517945 13.62064357834154
Ni 12.838184676962566 10.490952998824516 7.71276518679937
Ni 10.188877523523047 11.200213878652526 10.96029395637593
Ni 10.63559594630537 10.130502576257 8.646438726372525
Ni 10.101723035669057 7.024873775714361 11.201354168269322
Ni 9.58432582557704 12.476470876245658 8.743614843173328
Ni 9.116706649587655 9.074290612243967 10.233381229288565
Ni 7.884524775346444 7.577906229686597 11.701547909266228
Ni 11.363905033693571 8.62563440627097 6.982666766619344
Ni 8.211289886992173 13.51466141882654 10.364640565455783
Ni 11.107952902992416 11.98667198077121 6.95343559644962
Ni 10.67950447826383 7.469850845386959 8.95114907043597
Ni 7.819479503450002 8.791221022074883 13.736753012002142
Ni 11.961756190042838 10.377381909778741 5.48046947952035
Ni 8.957032855872264 8.502197321789582 7.756874952952036
Ni 7.023869455686258 12.187399734950123 11.99721667276358
Ni 7.290046231109893 12.827971044160849 8.286295284032608
Ni 8.403338042629446 6.929871174692733 9.476105545476576
Ni 7.238582917309104 9.797035170062976 11.677706184940224
Ni 7.065420196935996 9.022491240032215 9.302263559607827
Ni 7.869940103624786 11.248341332239754 10.006559499302094
Ni 8.808787646415425 12.428898873330079 6.488975437907788
Ni 9.73212362410134 10.190282303721775 6.24276208150736
Ni 10.312758315335863 11.891321105128476 4.753828214911925
Ni 8.02913463953679 10.644377307078152 7.797277361209629
