47
Energy = -208.2789501 eV
Ni 11.01396253478778 8.466835681746355 6.9945813865928965
Ni 10.355170299229302 10.61064534967393 6.260495673033798
Ni 12.488897725249318 8.264983367856042 8.73359858565364
Ni 9.736094938990568 12.687609311269455 5.436991162407665
Ni 8.31767923367833 11.564962654304843 6.97677963374207
Ni 10.213767954071855 7.446447269048857 9.084039613792106
Ni 14.281363907818076 7.864348443353011 10.153417341280926
Ni 11.547841417107374 12.586648595931177 6.934718269999703
Ni 12.09533807696173 10.424010543268984 7.841905751189552
Ni 9.080791278118332 9.382580500022419 7.8778703619301815
Ni 7.223177094270355 10.455713120407196 8.782438231979008
Ni 8.384264972671806 8.673849617304642 10.092387566223652
Ni 7.900945103172889 12.779584958439605 9.010359131658955
Ni 12.096556581479321 6.871338679145914 10.58053466437948
Ni 9.497894704608312 13.692029931210495 7.525210382720096
Ni 13.36981747585825 12.35050046058404 8.477693710695139
Ni 13.962384674689119 10.08849573258579 9.281897607409416
Ni 8.3016160652966 9.450753638381082 12.492475691997141
Ni 10.580892243381143 9.619740015960499 9.677224156889382
Ni 6.46520572581519 9.68987963009349 10.919578692473504
Ni 10.200450456976272 8.083160848838958 11.50529450849092
Ni 10.016004314816135 11.653209107200627 8.631054755017672
Ni 6.13329675186059 11.92966494836598 10.30578066324868
Ni 12.482813143263035 9.176872666448824 11.104361148207236
Ni 9.522262916680686 7.739969283303641 13.68796313070198
Ni 11.407364959291739 13.614542349036586 9.083224816669789
Ni 6.794771545538403 11.398129793449877 12.48927304510824
Ni 11.433792191171339 6.546066964502002 12.80075302085705
Ni 12.046447980246729 11.419466126731123 10.113517190890784
Ni 7.852373544314145 13.27274398039199 11.320158511930122
Ni 8.54822477366109 11.023578232564853 10.657001011436526
Ni 13.597019732454598 7.620989026546775 12.417313810051432
Ni 9.264141964226164 14.526301737301903 9.74127280246574
Ni 14.714291242601881 9.733646680420442 11.570387419940724
Ni 9.831721150851825 9.947990046126733 14.269730233067985
Ni 10.672536116067425 10.550455780936328 11.982622761085283
Ni 10.187411040552611 12.799359218846439 10.967895901977004
Ni 14.438160444953017 11.955706038581763 10.614644568140612
Ni 11.694243376933127 8.740970670706787 13.436219644843039
Ni 13.840214002899872 9.599592173398436 13.783455941180357
Ni 7.747403616059751 10.846281194376425 14.55121312152941
Ni 8.997336019672783 11.975085952948017 12.952006290142469
Ni 12.559573746172651 13.396637489264023 11.19122260138674
Ni 13.05262709656635 11.299060677053202 12.363507051147394
Ni 9.979097078141349 12.098484946128309 15.03411260905872
Ni 11.258533699561614 12.71205731271022 13.087865511305896
Ni 11.968048150186732 10.901231109838745 14.421435519993063
