46
Energy = -203.90211492 eV
Ni 6.156751213983429 10.108312900240097 8.688449457070718
Ni 9.194987128863557 8.834248997818566 5.3158273175247475
Ni 8.304725426339077 7.144219978994271 6.631059925976797
Ni 7.825145582664168 9.424535368867208 7.068046482417537
Ni 6.319815291141435 8.755277478247216 10.622344324608521
Ni 6.849214834488865 7.78472019883248 8.46263981597003
Ni 7.248651568108489 11.352544646201627 10.608681273782262
Ni 9.43987968995162 11.069896418932858 6.261733225880184
Ni 7.89616487343456 11.576045040606532 8.049318201985889
Ni 9.287885806113863 7.384593128894749 8.701345486635201
Ni 10.745077554953019 7.628328240817613 6.739702620182775
Ni 11.32012672230565 9.650630387599143 5.527473235531227
Ni 8.257875421601124 9.436406747902764 9.520266332632605
Ni 11.668664596502921 7.646858588802138 9.014817470409689
Ni 9.965049755662212 12.90947831805536 7.827307925107596
Ni 10.126915861540484 9.535739250328449 7.871096244155167
Ni 6.550511397324003 7.332159849340395 12.485661913375402
Ni 6.969979312298414 9.747327016334266 12.64770377524628
Ni 7.686884571561373 6.689887875672971 10.371749989058138
Ni 8.262637919572445 13.342785503158488 9.524758827497294
Ni 9.706239204778308 11.356970614532118 9.498590542873371
Ni 11.647112928703626 11.315790205778963 7.107076616790735
Ni 10.549455932419223 13.80117236283213 10.104291879710358
Ni 10.196196906010314 6.598945962211719 10.734016879983338
Ni 8.530061562351571 8.25607529167526 11.805748863339458
Ni 9.052832780665872 12.867474548533798 11.658337717594934
Ni 12.167516166979256 12.593807032878829 8.97469373631188
Ni 12.641876264977112 9.059424798498785 7.3976557486627135
Ni 9.158138803880075 10.527966176366022 11.700817116250846
Ni 10.394227082637961 8.966207603043475 10.459648619558768
Ni 11.276847979503788 11.702188337499717 11.167111469767194
Ni 8.628905103472695 6.054413738547271 12.481349207564714
Ni 7.967954429178693 11.688189893888701 13.368290866112492
Ni 13.829057457436349 10.984947510688297 8.187825492350745
Ni 11.887835198740985 10.27482375417134 9.31631810561751
Ni 11.115557600526591 13.690169031529019 12.526996299979759
Ni 9.225414495476022 9.529298517579551 13.778598812795808
Ni 12.867517751371293 13.529702227233912 11.044494163368492
Ni 10.465326183215007 7.580466790159667 12.882183500714909
Ni 11.421958447748164 9.714209623083203 12.630298506241378
Ni 12.272806912075295 7.867608448646125 11.326536553095423
Ni 10.35274765643706 11.674465267848692 13.453207098671479
Ni 13.615276065333276 11.336885412868858 10.550533331207841
Ni 13.693048450608103 8.98076683640524 9.704258861887707
Ni 12.774052893324653 11.800841280972637 12.864840244789233
Ni 13.663124528941891 9.631557447080832 12.080245298084897
