44
Energy = -193.60933359 eV
Ni 8.215221389652129 7.511601589929335 4.553565817990061
Ni 8.043823129546155 5.351944462561732 5.830895148302554
Ni 10.127982831515412 4.2401741867432925 6.238826633059023
Ni 10.258922786353352 6.616037972365436 5.487567901491513
Ni 6.427889360843132 8.76493326538455 3.8525524903172337
Ni 8.550293982409485 9.949611122959267 4.266086409517091
Ni 6.051196302587746 7.200251820021074 5.806548198143291
Ni 9.738959184676897 8.904346117286583 5.987275951527546
Ni 11.642569080748103 8.020508527043015 7.122902247673643
Ni 8.218699472798416 7.382860003862015 6.850161486650527
Ni 10.610694674109679 10.868410201709484 5.281227271363906
Ni 6.989038350427764 9.432569377374108 5.933862234385175
Ni 12.062197396416549 5.669662067592474 6.90181223882216
Ni 9.928098089714675 5.9823310440131365 7.669144779463476
Ni 6.407920734811014 11.308519178022339 7.316042403594488
Ni 6.410993928759145 5.536793144616028 7.657466618678813
Ni 9.814867717402182 8.13317307044086 8.5420940398893
Ni 4.871039678697035 9.277417137669303 7.026919462627702
Ni 8.62981697710824 11.276634842895604 6.3606629572941795
Ni 4.447831380563813 6.946767780467807 7.735159113056026
Ni 8.19630616573726 9.628272898999086 7.908570678392827
Ni 6.418897186809279 7.96852361257353 8.141671178266591
Ni 10.498175964237516 10.373755955110312 7.76275812797876
Ni 4.310390035633804 10.979255477413076 8.62232781870365
Ni 6.212290126135064 12.257851767227296 9.597515440547722
Ni 8.066242846319968 6.443795658541197 9.029530693735074
Ni 8.418393123782812 11.70190457097695 8.834867875083749
Ni 4.4608103287677565 8.61786426418893 9.487777025509663
Ni 11.011099272901808 4.191989535272073 8.541112327019475
Ni 6.292365453156048 10.021024092447034 9.229773911994174
Ni 11.735300677581478 8.930301524321925 9.434480082850452
Ni 8.462951522650977 4.223289200686292 8.05800157284651
Ni 5.762161363511376 6.611315264197902 9.940805660996029
Ni 7.939685794462931 8.533923396331636 10.001586888850909
Ni 7.179523435045496 4.641656060486939 10.05115828640538
Ni 11.56866146657366 6.5280577936653135 9.221517299978203
Ni 10.060521114619322 7.573302653288637 10.817044206833392
Ni 4.950856323650177 10.604913032623775 10.949522008045351
Ni 9.62536726183986 5.23235085115361 10.187085024932811
Ni 9.708860111733017 10.055957428939536 10.114817985584821
Ni 7.543466835329404 10.763519078526507 11.023047935000157
Ni 7.816000203750583 6.6209767150761785 11.40210101728274
Ni 6.1204688566173795 8.563644279193293 11.385844602873531
Ni 8.51187579704965 8.876735692839116 12.15503666347787
