42
Energy = -183.90605996 eV
Ni 11.631835205637339 14.281768112505922 11.751240362271952
Ni 9.969884713613023 13.719525734030134 10.260299632573249
Ni 13.124785483301197 12.519230300898245 12.174073348626134
Ni 12.243328119961184 12.692910144563019 9.833317004623956
Ni 11.358798989392625 13.071008661387268 13.763932884573942
Ni 8.459189983523222 14.536863128199487 8.728959669374106
Ni 9.297717799710073 13.661920311987155 12.570885668474551
Ni 14.511825326652499 11.521816246093387 10.576083029687078
Ni 14.176430391205795 10.377025617181939 12.596903226271115
Ni 10.311166629480994 13.221609394645393 8.050802936777048
Ni 13.218302968008135 10.656007149499986 8.883490209428281
Ni 12.013526553421858 10.775658048672847 13.475430573048207
Ni 10.776349186906144 12.058202492911269 11.711841352410998
Ni 11.978025071233493 11.870611253834221 7.401324739494167
Ni 15.469272679691569 10.058609614104682 8.939005105158039
Ni 14.17156608478585 9.074501868092621 10.578011368795895
Ni 7.712265331666847 13.54874303512152 10.764398501362592
Ni 8.423093135165649 12.208679482536377 8.949823777741681
Ni 9.57062804281341 11.493012394471405 13.633647491217994
Ni 7.404650544524517 12.154118473902724 12.654420543714705
Ni 10.623754982721254 10.90696692315541 9.357333445268287
Ni 8.762463604848596 10.996752653446446 11.134646827808686
Ni 13.820733309808164 8.500320891886377 8.21487200496145
Ni 12.270899308294135 10.448035448560264 11.084798353304752
Ni 6.637356722393487 11.426045420864815 10.37621753915586
Ni 11.762501497232977 9.563314762512706 7.408821439587038
Ni 9.700318330486638 10.921012337046202 7.27308184676341
Ni 12.580479013316543 8.571277523337908 12.338777218748032
Ni 5.8282227193458445 10.426676098742773 12.361970697483034
Ni 10.308821826651949 9.450319726270713 12.588022605704934
Ni 7.982113288440879 9.823266841189126 13.055684616340605
Ni 9.703660767419084 8.895346750799751 10.38583144225363
Ni 11.9667238744652 8.476932211393573 9.684238661090522
Ni 8.117098023481585 9.925713679081941 8.925467742573941
Ni 11.863349186025587 7.2539618114966355 7.659905987339638
Ni 9.790817568573543 8.55646673005545 8.035482706598046
Ni 7.110336170887637 9.121834491567693 10.914500227521247
Ni 10.861349052691462 7.210718159911827 11.557598047897493
Ni 8.62500236487207 7.758809946731496 12.144765127069556
Ni 10.376266795010022 6.634683411535648 9.324867679106598
Ni 8.111849964337003 7.465285763073933 9.551887998518682
Ni 9.008735346615332 5.7999329113134115 10.95883231789304
