46
Energy = -204.19208839 eV
Ni 12.123933264729487 11.157369042618633 12.69528282145933
Ni 13.490600037569905 10.576558456107616 10.749771763068326
Ni 13.503197540847342 9.273126515205815 12.696020629346958
Ni 11.199663329007029 9.116307453407224 13.657718454576539
Ni 12.119205551937009 12.610129378626935 10.749736021478508
Ni 12.427983126985408 7.23267007822306 12.561144178514564
Ni 13.349255631271589 8.1784228918867 10.444088807824956
Ni 9.902677428759894 11.1588321549995 13.678143570549395
Ni 10.926310837095228 13.175736848368864 12.673405828793534
Ni 13.457411785927391 12.044797733916873 8.909283328952624
Ni 10.10126609941419 7.299765428922992 12.470790238072508
Ni 10.095820133044985 11.213340067729895 11.37046990351958
Ni 8.77686344975366 9.028321387319227 13.610182433884603
Ni 8.973222324667761 9.05559257412952 11.309729914307114
Ni 11.462789091555482 9.132874114604224 11.369483074682108
Ni 12.274365559250834 7.519574319778671 8.381897908165563
Ni 7.54569202711581 11.06286108820904 13.394129106035637
Ni 13.379540744413918 9.629658582541577 8.516449570249927
Ni 11.446064382483657 6.680533981218424 10.509288891369387
Ni 11.25854122936409 13.01170485197803 8.519776373276596
Ni 9.97127325016801 13.664289051290543 10.448978940747129
Ni 8.659298488162047 12.841685918255624 12.318252584446874
Ni 11.473474454651791 10.644559998029823 9.449268874168617
Ni 7.766441740651308 7.157659352135837 12.303834519559526
Ni 6.758137117928299 9.238880228972716 12.152366856261873
Ni 8.991722676050216 6.710422647651597 10.373203700409292
Ni 12.150647583869667 11.274367075965507 7.128555437248698
Ni 12.171121543389617 9.043670958839646 6.5422153054614745
Ni 10.28395923948807 6.073943964516969 8.541424578556471
Ni 9.295290998361319 11.746117428803617 9.184902482363908
Ni 10.337522468774726 8.437278714625384 9.338491804882482
Ni 8.945572137156589 13.70050254379168 8.186127203466347
Ni 8.286669630744818 9.675511494424333 9.142102409773837
Ni 10.304872944098944 7.744039900369634 6.91819362421817
Ni 7.639129635561024 13.387625755734227 10.220294553464656
Ni 7.592945532299379 11.159237708728156 11.03898552265061
Ni 10.048557036695891 12.243264024458043 6.589465230383971
Ni 10.148837687771376 10.034047049926798 7.594298354560011
Ni 6.938423842426204 7.950072338246094 10.097155318461004
Ni 8.283790568847971 7.462870191527868 8.16664985663899
Ni 10.376228020215182 10.146243629173147 5.3761011134894146
Ni 8.076702319140384 11.149042922460275 7.046548435735211
Ni 6.817171508206741 11.660249490642734 8.848165978180432
Ni 8.390260388095228 8.995305433287093 6.314868199995768
Ni 6.51619698357214 9.191514840608972 7.896747031083275
Ni 5.776244635906479 9.97685789135661 10.098467437060318
