49
Energy = -215.71055137 eV
Ni 13.112541766495518 11.425232766203786 8.158348053741209
Ni 14.68554184526769 12.182214552789736 6.687588100578684
Ni 13.372654224417747 9.133269191759634 8.430149250371722
Ni 11.891553107593626 13.313998712992781 8.59359963657537
Ni 10.739493584125652 11.227888132414032 8.210294116459407
Ni 11.983324125922143 10.37449063356209 9.937842677413459
Ni 15.33125121703806 10.839861934109829 8.453308246548913
Ni 9.706600616754663 12.818309502802652 9.567567633632653
Ni 13.175180033321961 12.639931603764266 10.501954757853452
Ni 14.648078283764677 13.1775921279399 8.7312622105771
Ni 14.373564647913536 9.90108460946749 10.386139561963136
Ni 9.57590161205902 10.345923904029613 10.265570078550407
Ni 14.251150189020173 7.604970811093117 9.984885839005768
Ni 10.795751068935493 11.901489782263262 11.369038586800338
Ni 11.386980168792974 14.2350952940504 10.665135482568502
Ni 13.369694804294484 14.960984225536814 9.648686350115756
Ni 15.561810061023976 11.854151263671039 10.652088844173173
Ni 8.291727711453774 12.231180419887302 11.430158079709106
Ni 11.989703476538834 8.10413748879312 10.162447031851352
Ni 12.960446915798608 10.892947090825505 12.077439416016007
Ni 11.103024863825123 9.30055489800847 12.040245158564788
Ni 9.144465171138656 10.438666459218378 12.703500807757006
Ni 11.048275516162093 16.0650357214561 11.944000370325544
Ni 9.23685135956773 14.420762475924722 11.406828752740644
Ni 12.169354899130688 13.198256119926443 12.79192996275068
Ni 11.849676982564732 15.241304765283916 13.942399050337523
Ni 15.269424623668023 14.212815360000253 10.782309649929353
Ni 14.539644829214803 12.91423272969223 12.56562390655197
Ni 16.733555618786326 12.247197685697007 12.638883268892966
Ni 13.338077105660043 15.042064958068893 12.041743288823215
Ni 15.544232835713151 12.43794133913884 14.690486602431376
Ni 9.529051043951862 15.321277552688242 13.647221901855122
Ni 15.128544805802807 10.507450202310858 12.734808305162602
Ni 10.362207736343418 9.21778213901085 14.511424947467253
Ni 13.442580269684488 8.512897308555797 11.985589052854543
Ni 7.639365378554252 11.851256466952501 13.891353126635252
Ni 11.235317309429337 11.184390112892363 13.627251136350413
Ni 10.464336445091881 15.060432472961763 15.81792667943131
Ni 9.74426235554482 13.022733434340047 13.25611435689261
Ni 12.695706193953898 9.344152152590405 13.997500070407025
Ni 13.489406278039759 11.532170032732328 14.340433653451173
Ni 7.581330926284562 14.004059778879121 13.026822771951435
Ni 8.056004944879923 9.666490562621295 14.608484574912126
Ni 13.699551207650941 13.981111480335477 14.528180063169517
Ni 11.456389701847867 13.067042405581414 15.196087547556646
Ni 9.55105097221006 11.403710326093421 15.225048315584369
Ni 11.820380720130407 10.755204079382073 15.86668083566254
Ni 8.705157694480318 13.648934606838663 15.200672926229489
Ni 13.51728197632933 12.53277755103465 16.37440418698967
