41
Energy = -178.80269778 eV
Ni 11.393286627779988 6.8500804251219405 10.601643085785271
Ni 13.407372039351054 6.149324346148989 11.502266790491039
Ni 11.30688907799992 7.601297557328383 8.242839484998223
Ni 13.299829438574735 6.773245814984165 9.211757499553604
Ni 9.28432680859376 7.355170532251443 9.666323178578851
Ni 9.820603721927531 8.243761774855352 11.847142948379185
Ni 11.925422606862345 7.489338466406679 12.83836556427876
Ni 11.039404667438069 9.147873191780224 9.946319520608753
Ni 13.257662019164677 8.382230662999838 10.893097590865736
Ni 7.167887586409673 8.189204965993637 8.840182434261495
Ni 10.503104083745482 9.212777835942012 13.954206413683755
Ni 11.254040990358867 9.967380760651649 7.588910042816176
Ni 12.04299102882865 9.701413493726772 12.326164576068994
Ni 7.498937591779137 8.270991308585758 11.19381662514624
Ni 9.241039476350693 8.695213845830787 7.703070700510853
Ni 13.167551240330678 9.129697223208977 8.650528705017841
Ni 12.703422922483528 10.76898602850469 10.360887205671078
Ni 9.99851573325507 10.6657958913391 11.574988504027827
Ni 12.936107890741237 11.559397274475378 8.238918728701002
Ni 7.490421491952912 10.338617656788186 7.831767114947797
Ni 12.66498771024899 10.186780056740957 14.43931053047835
Ni 13.641764173337998 12.83818456657809 10.406502602300053
Ni 8.72471579795786 9.731730547024814 9.773216032971007
Ni 9.34508547206706 10.698598339566297 6.4394169991538694
Ni 11.828740332420457 13.508640148203748 9.071477747390949
Ni 8.211186072544123 8.72448005258346 13.45315470074921
Ni 6.367411632576303 12.192829657906358 8.721453531633715
Ni 10.454079961758962 11.501938355050427 9.317946988808425
Ni 9.21006241872238 12.683882633866109 12.296531426226807
Ni 13.305904385749935 11.647628897022498 12.551257055444822
Ni 11.08914274718028 11.628301122357719 13.505811449162957
Ni 6.419838313294894 10.173306962951367 10.015065677509234
Ni 10.917901039697984 12.320316104173893 7.184085262574809
Ni 7.68586608217952 10.51192518935012 12.02317908186515
Ni 9.905400096749538 14.357299060968383 7.996900581249044
Ni 8.620233484679144 12.412327424260216 7.898355948597708
Ni 8.064249886499459 12.043858296822924 10.269535984480893
Ni 11.509631531734733 12.662233262016054 11.369994100586695
Ni 8.902605032451486 10.934860013385348 13.956016752812152
Ni 9.751922634128993 13.693769561514072 10.205357532643054
Ni 7.709866351243203 14.124722891884506 9.161645500119029
