44
Energy = -193.61877706 eV
Ni 7.411100522036352 10.00641346607985 11.995563252225113
Ni 6.7611897200683755 8.253252216647358 10.499087860522174
Ni 5.388199728811648 10.160586907594594 10.800042838516585
Ni 6.449005517090529 9.809586474696179 8.724175200893896
Ni 6.620254868525962 7.478850534783597 8.259777400300907
Ni 8.121410098621663 11.776970823238496 13.430526832609484
Ni 8.862782323322419 8.057183225427774 11.66737490393212
Ni 8.677481331164413 7.223835808876765 9.398524303562336
Ni 9.510776484042264 9.819781299964411 13.178147354098884
Ni 7.11679819309795 11.610043650600806 10.180730448099393
Ni 8.588663495132092 9.662486947942643 9.848875644311182
Ni 10.76980318773643 7.0683531073215855 10.560320356143237
Ni 9.276726612769659 11.481759098497587 11.386493089776899
Ni 8.271617314940471 11.26490653952643 8.05286781090687
Ni 8.358693345832428 8.893225206929918 7.517555904617326
Ni 10.969248325346765 7.940155341758185 12.81151486764022
Ni 8.546605529025056 6.580656119123051 7.148278449397078
Ni 7.826279103672527 13.336530092041684 11.673372377129432
Ni 10.239813476945196 11.619343800323998 14.51128145210531
Ni 12.856275183433148 7.0437185526627815 11.673392048158087
Ni 10.73092246642511 9.509740181345556 11.032002713117617
Ni 8.913695076393703 13.057627048482018 9.51810899039221
Ni 11.68653932738525 9.732154589018885 14.221117383040903
Ni 9.954140513333172 13.248604919730546 12.810349478653903
Ni 10.546129547545762 8.694401605961465 8.69721462735223
Ni 9.64717977896319 14.723632308143145 10.979437809818558
Ni 12.885113470401688 9.346450130765795 12.19262113674601
Ni 10.109055275173127 12.690267779605673 7.449905466472565
Ni 10.173538618173577 10.340506224719121 6.892161699517514
Ni 10.337026318975548 7.96130068190624 6.436819073946384
Ni 10.451486476495297 11.130505381172949 9.224039512209604
Ni 10.645699484977095 6.360677585648836 8.23316664810492
Ni 13.468165588016838 11.063388999860154 13.576644242049907
Ni 11.470737739069367 11.39121104134897 12.523290035161295
Ni 12.712491361104748 8.599769865396203 9.900666271654158
Ni 12.601519926701254 10.97646125519644 10.424396796848997
Ni 11.177767423988172 12.940073353255926 10.721256114339553
Ni 12.442568525900148 10.200332150741675 8.12017607610069
Ni 10.791800878018494 14.397594287246607 8.91173952222641
Ni 12.123659698447375 9.415633137258924 5.91461376580676
Ni 12.008961352972756 11.750584012986014 6.386583440243663
Ni 12.47567649701607 7.822255652829921 7.60459312136251
Ni 12.702286134429889 6.308738362562441 9.397938590495059
Ni 12.259924444201776 12.550107171089627 8.609169110485649
