43
Energy = -189.71047222 eV
Ni 10.903229184551043 7.252853391697518 12.949949109884061
Ni 9.763300772010211 5.639036994936005 11.40647127740248
Ni 11.612248092800773 6.735509715747062 10.548653285266951
Ni 13.062106166282344 8.16989231831113 9.206754867229945
Ni 11.522196921664975 6.4145772593029 8.233603975518355
Ni 10.532010330403708 9.725204074480379 12.86006575637502
Ni 8.506172523676787 6.67569983453227 12.984029013872963
Ni 12.25390625419334 8.778713604977542 11.454622828103249
Ni 9.4308692903022 6.524735591693021 9.261714054908978
Ni 9.75904062821953 8.159805121791285 11.229889641382194
Ni 12.002084616576612 8.170232109545834 6.85826776790449
Ni 9.04511290147349 8.578032643772946 14.118231305971326
Ni 10.803227972910333 8.577210965648586 9.002710170485187
Ni 7.670117725058261 6.755744925428417 10.736630284747799
Ni 12.436873477363255 10.9859041765473 12.333286853141168
Ni 12.627967717152648 10.139985501525715 7.927773066481227
Ni 9.511133144603626 7.6517491076175315 7.220781408581859
Ni 10.266565585436506 12.016947721829647 12.431505339453073
Ni 13.270690276762581 10.520140140002416 10.125659088778423
Ni 10.922129016074358 10.44968631090283 10.413888523393549
Ni 7.597645477689428 8.692685918595304 12.21465531009902
Ni 8.3598820213117 8.779665710817198 9.496289908774724
Ni 8.27697021850687 10.715770860068632 13.390284721132126
Ni 10.397684465562177 9.822774778995765 6.999452446061164
Ni 12.026468462100171 12.563328905211641 10.644128577591829
Ni 13.158601388641273 12.406990808177124 8.500568871996544
Ni 6.110571373222784 8.451883458185197 10.380225531426053
Ni 11.845779240480105 11.505486645483874 6.191562486170864
Ni 7.293581857806574 7.279683333469126 8.278047097082817
Ni 10.994823222840257 11.85821532827527 8.380347091438425
Ni 8.74164287401095 10.581336401822483 11.164595427893738
Ni 9.63503805061846 12.738816000149502 10.315266840209155
Ni 8.932533087769643 10.92561806390006 8.756527527565357
Ni 7.9227553602025935 12.615055524840237 12.011173113059836
Ni 7.997010683987506 9.521860750492044 7.1214553750444205
Ni 6.4654294242093355 10.675982669676545 11.40885114695753
Ni 11.155018158521347 14.078503733362297 9.04769318405549
Ni 9.355331438153357 11.76551435019942 6.420117678688114
Ni 10.925231666274202 13.58098740489324 6.768346854379117
Ni 6.549112260621269 10.216007427387462 8.992589276935917
Ni 8.951415358532078 13.349482495574993 8.154033924322837
Ni 7.304332445180461 12.341148517404019 9.748432786175142
Ni 7.208502653326102 11.847076877615557 7.4107191677551905
