42
Energy = -184.70195186 eV
Ni 10.149048084138924 13.297648340813222 7.3863114633817535
Ni 12.776139754603955 7.446156977170037 11.5700929669218
Ni 10.67809185159734 8.621799505731614 10.996995992867243
Ni 14.471001288326613 8.49048458837018 10.220219013071947
Ni 11.027642513427136 10.255150387388053 9.391027550186488
Ni 7.103391640909201 11.728833197525585 8.917143255056612
Ni 7.537771492433426 10.863046699395703 6.679310456741272
Ni 13.112511477489488 11.86311121798365 9.57044524998776
Ni 9.793989655464225 13.294463900246054 11.596884063152816
Ni 6.515277060970956 8.261723253064893 10.390991156016275
Ni 12.803501332421687 11.077886113866999 13.325120862509316
Ni 8.67421395267187 13.441168818140461 9.428353020163634
Ni 11.783238580590714 11.554455231040615 7.564777449193794
Ni 9.142746020240917 11.340418149780593 10.526363446968157
Ni 9.393614802648624 9.047079648334108 12.93875327917247
Ni 8.850544395557977 8.961639875889999 7.198104330436609
Ni 7.860092252064939 13.117405958450318 7.17417341367354
Ni 10.868053653341269 10.834157833664486 11.95391302865396
Ni 9.299296868284523 11.296291255581727 8.146185117210232
Ni 11.845662777173072 8.923187701659176 13.146088284348629
Ni 7.278888585554587 12.345734363152356 11.282347139183079
Ni 10.56951107009476 6.976649312704772 12.692534761130862
Ni 12.2879844249705 7.989035381808073 9.288295913954425
Ni 12.229680866586506 12.67885772712685 11.594118269963396
Ni 10.923159012081141 6.317210747517822 10.483363705032124
Ni 14.174767503989996 9.175864513953966 12.597692505442488
Ni 7.7391486348795615 7.292256525319164 8.654443027497667
Ni 8.666889832825506 7.450082740760317 11.060948562724567
Ni 8.595300490661552 9.345718785674922 9.52943192972511
Ni 13.341734685820255 9.855075265179595 8.444099532538026
Ni 7.6288467008994685 9.896045419213475 11.669381727332446
Ni 10.944840684657727 12.719497916010484 9.559551853993627
Ni 8.847948569993688 11.478016618306475 13.005380598888054
Ni 5.829948039919741 10.523585299401622 10.365916101569912
Ni 12.820811525997172 9.89270632930427 10.902003964703084
Ni 10.928293615122824 12.645693347731745 13.581985457389191
Ni 10.041565867537397 7.642728253530907 8.791377567647338
Ni 10.618308721387917 10.488183589468383 14.379713013969612
Ni 11.241918269656823 9.18061103175878 7.357612330025458
Ni 14.356615023035024 11.435326171796884 11.590581126181718
Ni 6.623268447645462 9.41768232532076 8.315969344575063
Ni 9.980293055835537 10.823874332773007 6.069989423096959
