45
Energy = -196.68973244 eV
Ni 8.167499220892248 5.426807794550732 6.283102840189581
Ni 8.16070523690986 7.160664788317589 7.684002569956407
Ni 10.995387752676248 9.202830641000709 11.852786557958595
Ni 7.720938029378018 11.329879501820468 5.715655798042057
Ni 4.4919213150434 7.609643281594304 6.420653689550329
Ni 10.846649746602552 11.998880402756729 8.966091334409588
Ni 7.787977270368931 9.457775160398912 9.168585036720163
Ni 7.886244285051569 5.147407944168207 8.931050099327146
Ni 9.247441527886588 7.6271520720109125 5.5420653447814745
Ni 7.9356196235902345 9.313609169472372 6.694437077927053
Ni 10.073667238346939 5.348788587845378 9.999924418926055
Ni 6.781083781140278 7.385426299168462 5.650978102603287
Ni 10.616518672921499 6.512058996628718 7.9976345311293
Ni 6.461114904065945 10.90704872131616 7.8470719758216365
Ni 5.279569669040388 9.535415544828309 9.634420185969981
Ni 12.330241160206594 10.297940537185747 10.000749906645094
Ni 5.765638319925587 5.404165177052613 9.992427050111614
Ni 8.492294618202848 11.7082164471914 10.02683176163295
Ni 7.884786008005804 9.27272087768954 4.433083851403525
Ni 6.8482946759503465 10.291462397219973 11.168739460583321
Ni 6.04065500184264 6.003078112466182 7.594932456637243
Ni 12.674838733132281 12.58044101512744 10.528625886159329
Ni 9.032832242349043 11.147939868220469 7.755276851285427
Ni 9.882999921203 8.78878852877619 7.857052392975492
Ni 5.8084681161661935 9.69829679102875 5.712327782263795
Ni 10.613446211370178 11.7570187394974 11.294549447725197
Ni 9.249938881565017 7.504608899396142 9.755898221521871
Ni 10.214317749929473 7.0097508512469435 11.759990554864949
Ni 4.513463625944308 7.293613093566159 9.026179603330416
Ni 13.111362436703235 11.850793627757447 8.382359885201998
Ni 9.75339248340577 4.413868167370756 7.748408150307918
Ni 8.922681404426202 10.568878452468532 12.194689997466337
Ni 8.030864054416584 5.999802063066397 11.215498154516691
Ni 11.494251472368418 8.039511782063812 6.386247949557652
Ni 4.228718167541614 9.734175777766644 7.547322776776064
Ni 10.00858349604428 9.986252090431785 5.790084889785189
Ni 5.776331292609838 8.147947706870278 11.483304356650807
Ni 8.220390851061888 8.433060201206645 11.640645415971374
Ni 6.84720730087748 7.329893751925401 9.704806150270095
Ni 9.924187001490685 9.901545551839028 9.94363524820751
Ni 10.518606254333086 5.732586107370006 5.853693118056841
Ni 11.519086280603092 8.100600520885754 9.612603910860622
Ni 11.689800176329731 10.137667437918353 7.681568867898206
Ni 12.530510837184616 10.938236480122535 12.234308952934143
Ni 6.0928477138047565 8.437124802302836 7.7590721479946
