43
Energy = -187.67709794 eV
Ni 13.892525377834662 12.770450779453338 8.510074870667875
Ni 15.251762067821952 10.752222887352442 8.63688057327307
Ni 13.260358908901363 10.814290462153563 9.659205249703353
Ni 14.572086842860752 10.96963807007723 11.838720839997768
Ni 12.695385879941764 14.55251165939235 12.021432226711253
Ni 11.478697613372631 12.898380941872384 13.328402954882627
Ni 12.928719635554474 10.889264778165426 13.752877087281405
Ni 11.393412376049893 10.687537577176457 7.836774780733592
Ni 11.819373213676485 13.023082551106553 7.394953291527024
Ni 12.365739264277169 11.738226974756794 11.585031787394266
Ni 13.910416609216922 12.933272753956986 13.197034800938994
Ni 13.508407734790602 9.078293009163549 8.176621890278849
Ni 13.497897302582086 11.11294731720447 6.981497860059042
Ni 14.138944423328317 13.074214923502833 10.802199024797966
Ni 12.450543841999595 14.597667937581695 14.43421764186281
Ni 12.55766413814058 14.397386039710819 9.58011070946211
Ni 12.786463922034379 9.343422311156436 12.024110105479162
Ni 14.524817994826433 9.037328544545215 10.375514650216696
Ni 12.377939504255256 8.015761018130284 10.054994591971267
Ni 9.384785462689226 11.608022909414856 10.763238334429754
Ni 9.361139128609851 9.810853642140936 8.819152083040205
Ni 8.174458183037856 10.87444122983311 12.80540812602508
Ni 8.147811719972502 12.354285850385851 14.702234461738566
Ni 8.540306116395957 13.652876657509625 10.197146031351853
Ni 10.103552071038365 13.642793152935374 15.019155510905598
Ni 10.507011491459643 10.66586173339031 12.731110399815526
Ni 11.107570681362233 9.982864431504604 10.315329849200138
Ni 11.439316837982311 12.347162019411897 9.542698369670399
Ni 9.14221465131468 13.060232759033106 12.708775852567555
Ni 11.139210435401658 11.413562783990962 15.1032951075512
Ni 8.881530331263178 9.311780181792669 11.142538910477207
Ni 9.49012587438344 12.136244713876815 8.358653457495416
Ni 10.647890704426581 13.903592878121765 11.108071869738415
Ni 10.824760974806734 8.104590496350907 11.997869978039814
Ni 8.759691853069542 7.004861569566044 11.69818603864443
Ni 8.997275211120298 8.61543891392693 13.380216424313147
Ni 9.9840423835245 7.674918342050651 9.829393611945079
Ni 11.328817627407295 9.109270121929809 14.17689214191157
Ni 10.522256552549571 15.06518040829144 13.160744332113474
Ni 10.305070998812763 14.314823038096792 8.778819619369497
Ni 11.228388244141811 8.419630150188729 8.040257546421884
Ni 9.183298970358955 10.291753079480545 14.911694744148638
Ni 9.444291718889653 12.005033275801608 16.574437137331863
