47
Energy = -207.40594639 eV
Ni 10.062586481221054 8.251387778003743 4.5523022767782795
Ni 7.721746619145685 8.10005539347088 5.092042447197385
Ni 8.782316787869428 10.232170936239749 5.156374877876542
Ni 11.07610574855748 9.993175489167669 5.857018948707148
Ni 11.522810445226595 7.589354373751089 6.416874848943591
Ni 9.413872731463842 6.3907164779592405 5.989167371165257
Ni 9.347717139957577 10.828931048229935 7.413221565762354
Ni 7.236710711919551 9.729846722383611 7.037603978118348
Ni 7.497710961697016 7.240705431843742 7.224741517955826
Ni 11.736700283179218 11.415641312527518 7.764870228897109
Ni 9.305337866400118 8.541062470885127 6.749667337438699
Ni 13.0687565654422 9.370898309630283 7.027754310072299
Ni 5.649965475320139 10.704014762598405 8.534897666846607
Ni 11.02218899919825 9.17987612414072 8.10723110163973
Ni 9.879167627985694 12.981896488912035 8.107345185142325
Ni 13.309489306812816 12.130872239125898 9.34196004991842
Ni 10.230513040554726 6.730112953051311 8.383430090010213
Ni 12.595728205108623 7.539188425465237 8.656085461974843
Ni 6.3899662452190915 8.446861272385899 8.932587567604283
Ni 7.513898810276297 12.23140583454112 7.937314076246369
Ni 7.769147984612198 6.360601889968491 9.293171039188458
Ni 8.84195393214553 8.500896536997004 9.119234797758619
Ni 12.10444426845122 13.696328154122615 8.074079272468905
Ni 10.225731940306282 10.733154931588825 9.703484281195642
Ni 11.174013326788144 12.857538783415905 10.077363908319805
Ni 12.9660976397971 9.801657981989498 9.337541719861518
Ni 6.362335628403434 12.281891516008383 10.14060742670164
Ni 11.697183282643628 6.286077488273899 10.399595174364899
Ni 8.721861818747536 12.65391032069479 10.133237705930801
Ni 9.428600030300338 6.807260359083381 10.861630485457393
Ni 7.789703114435863 10.528878322091822 9.467633565952426
Ni 7.265774650532919 7.8786932820100315 11.038122832317935
Ni 10.995341942728663 8.523869609267711 10.34875367670545
Ni 6.0010349334787545 9.957552369999101 10.832006845727605
Ni 12.99429387865332 8.493557896184736 11.36940817734647
Ni 12.26412142775677 10.990040409648383 11.169098318786043
Ni 10.045017237410981 11.667875465761153 11.879182956560596
Ni 8.985612742025806 9.485107266573351 11.3721812936538
Ni 11.10135817961018 7.2736516514141165 12.482940949811173
Ni 7.610424034020881 11.461756310907102 11.99371328541127
Ni 6.981215002306889 9.293642862173229 12.868831849249183
Ni 8.734513772204156 7.686048258968921 12.966790932140615
Ni 11.154688559888507 9.588648096590823 12.585700517536388
Ni 9.158634572656077 10.295985308932112 13.616124541519417
Ni 10.306981165481263 8.417518927028416 14.474008517497527
Ni 7.099591034142842 11.10482310064563 14.281444867287124
Ni 7.974632597097428 8.862457804528239 14.94921890213543
