48
Energy = -211.38339385 eV
Ni 9.128749799161072 9.18516017829478 4.726927997265807
Ni 8.291297320435119 10.873028033541692 6.347040842365526
Ni 11.232056644456977 8.204751273086803 5.605128686226562
Ni 10.800852507982084 10.554242945605697 5.97548028092103
Ni 9.161975203390263 6.8942221809712985 5.63230135055491
Ni 7.193403420332279 8.667876657439901 6.184191683419081
Ni 13.108966316669887 9.718476946061422 6.485869300797222
Ni 11.25155373471364 5.764557865859199 5.980366610258531
Ni 9.346774099314256 8.839806505453135 6.957927466449731
Ni 7.344353637884205 5.211756031172176 8.925219195472028
Ni 9.859182566690142 12.650283087538336 7.021956598194476
Ni 12.866115471375855 7.268177475631948 7.037857105646665
Ni 7.661257491118383 9.604041043738492 8.519388685781207
Ni 7.902598929831756 12.050230684368954 8.509441227524967
Ni 11.538380060462451 9.091746562615448 7.936248425050247
Ni 11.978054900451115 11.585357055866886 7.819360790148815
Ni 10.545373624798652 6.977024111634494 7.74983842055719
Ni 9.281203184648314 5.0805365640579225 7.379172133920243
Ni 5.881576741189245 8.015240417748458 8.063836860518029
Ni 9.787463536335903 10.731863226532449 8.20009150076085
Ni 8.01606980104276 7.052840143049024 7.747477435098925
Ni 13.555194135570636 10.20861166754613 8.903161780595891
Ni 5.531063540453736 10.537088085817436 8.498990481005093
Ni 12.031157320238329 5.845442256588162 8.974319545396899
Ni 9.576339889029974 5.985510073251222 9.61723866840895
Ni 3.94455136675992 8.767327007128232 9.24443093159637
Ni 12.6760714841133 12.08070476911874 10.165622594214078
Ni 7.545462351297732 7.198813247024507 10.070685580541626
Ni 11.339016424248523 10.263122174336818 9.936432106258822
Ni 9.599709644213874 8.54288756838255 9.485059414107123
Ni 5.20651430951915 6.810643137963658 10.030240005601806
Ni 9.062202300324559 10.988938492888767 10.386199463410307
Ni 10.469439246942347 12.64791156510528 9.401568846632301
Ni 6.041157774433313 9.006137643580798 10.225978055325742
Ni 11.330410181654049 7.479614506090828 10.637278735255403
Ni 13.102075136854985 7.962117561292624 9.27097742153425
Ni 6.777415695759528 11.234495198974335 10.501816430346311
Ni 10.834319337590744 11.69157305057223 11.725464070834965
Ni 4.407772193145372 10.66084126769597 10.671037448086906
Ni 12.86396549069849 9.320532059928157 11.244074599366819
Ni 9.225422193267493 7.165946680815639 11.692876428722492
Ni 8.037710150932952 9.138793003262792 11.499297788904311
Ni 4.214203703543678 8.413393248608262 11.63758567903949
Ni 10.349191374972449 9.34144863641442 11.86418337489857
Ni 6.386415906477406 7.563586598999539 12.088433702935255
Ni 8.308108721018606 11.172100508418362 12.524419393805637
Ni 6.029488199910702 10.04134360633752 12.444562033024926
Ni 3.778389094796892 10.309883553641892 12.852968983272365
