41
Energy = -177.91743255 eV
Ni 13.738821346449178 7.615376553843641 8.741616280847532
Ni 13.48452122884313 11.46198627802485 9.86697029619542
Ni 12.1209988385263 7.011059480265293 10.330136839754962
Ni 13.370537048941767 9.861688247996108 8.051337621431237
Ni 13.249065524004129 7.933347354941851 12.139414179439841
Ni 11.964392525534523 5.934159924648332 8.352259046682079
Ni 11.5459026368199 8.291529215380708 8.280948896320053
Ni 13.338546588176941 10.457395433085974 12.170447068717815
Ni 9.92024579394695 6.857288578151108 9.18334221811586
Ni 11.169072906871378 10.602747461406349 8.586211136783472
Ni 10.849114753389923 5.113698951469886 10.44382200662158
Ni 10.957105432278048 6.83813849216316 12.256113119262725
Ni 12.68478041599658 13.64326175743262 9.5301685564889
Ni 11.398683648804473 11.112590299406857 10.971913123341961
Ni 9.267577054085473 9.077139362967872 8.275461289967373
Ni 12.832911934282135 12.794313920682887 11.806824687820967
Ni 12.782604310991731 12.129871848285747 7.730102706557732
Ni 12.776872625274338 9.233969302710365 10.242930790681521
Ni 12.16807253633253 14.98560838863342 11.41591454967286
Ni 10.14688992540369 9.059879999662565 10.430374141706713
Ni 10.661202700520754 12.945902724375719 8.320243738277135
Ni 8.93234315105004 6.22603425969232 11.206431613865501
Ni 7.9741447756015225 7.9591466388476055 9.91726060419755
Ni 11.339652331819305 9.163780643077205 12.544572517758906
Ni 8.983743137218902 11.308449220274445 7.637453916511361
Ni 11.487541779901932 11.475816118546927 13.35050144497847
Ni 9.48698100674892 10.669744922735916 12.379834209517357
Ni 9.261031186464498 11.360269532220604 9.95483279795977
Ni 10.805124145084722 13.669976333726062 12.88086582492982
Ni 8.759841411098357 13.600555116061736 7.1303406823648965
Ni 8.746570494221505 12.968535853504935 11.849636793427607
Ni 10.646492242630774 13.431442589396571 10.594794524310501
Ni 9.056694363955714 8.276417864044241 12.33841507590383
Ni 7.241720865804345 10.178431787986398 8.98465328587418
Ni 9.255468177529892 12.260248772776654 14.015317919503769
Ni 7.002079771424369 12.415885523562563 8.130590079469782
Ni 7.65688589263831 9.79256143784859 11.224119362593248
Ni 7.221698880255421 11.460716378219301 12.80753829643834
Ni 8.580626771777577 13.55909293373909 9.468297351749676
Ni 6.9799957697039865 12.083219988156573 10.470244948173281
Ni 5.5425044584732035 10.56778089892506 11.376806844662722
