42
Energy = -184.64883754 eV
Ni 9.72064845035072 9.020372249198806 4.980988510078824
Ni 7.317627851220138 9.836400054953032 5.0144764837055265
Ni 6.3289432043612495 5.811583917546194 4.391313205343641
Ni 7.984599540958414 7.468407081011225 4.996169791770879
Ni 5.510900843650698 7.99517208594884 5.217693858050677
Ni 9.17900408590903 11.009192244106762 6.09586106611379
Ni 10.22939788729557 6.8136058456502315 5.797577925073054
Ni 11.588739565573654 8.6055456223881 6.63361919543244
Ni 8.324601159070877 5.129551348654663 5.655150892399268
Ni 9.372746534333785 8.989305234382416 7.276655424590899
Ni 5.105936780546767 9.84512767334248 6.701913019483666
Ni 4.372552956900571 5.864799575407696 5.935848341524701
Ni 7.077499973856425 8.654020159806729 6.932652270582508
Ni 6.102399069356391 4.154222040377427 6.262736871460903
Ni 7.087019628326021 11.000551730543187 7.17043376324861
Ni 6.466381379752476 6.355265276723724 6.601790845816341
Ni 8.611380647192457 6.735221715153756 7.409271842220705
Ni 4.6390792313879246 7.654303536200716 7.552343574619995
Ni 10.041637719972865 4.904658834023408 7.310876464380366
Ni 10.855097250840682 7.037281647756593 8.260302638502852
Ni 11.106286802768937 10.710186460719191 7.564234468676235
Ni 5.307841754839009 5.297523669992293 8.332476772962485
Ni 9.037643279784946 11.538824279080865 8.421704870732503
Ni 7.669849593801846 4.669701542942216 8.032553249979424
Ni 7.701628993124465 9.587807524223415 9.099352864124786
Ni 9.431767526754102 5.385624088963039 9.560687551048625
Ni 8.8212657532726 7.577145940089073 9.57569823204157
Ni 6.801755668615495 11.679880924613622 9.428937029296325
Ni 10.075694413842635 9.586717780465792 9.437814758266061
Ni 5.4086142219556015 9.33652027399218 9.151704156598036
Ni 12.158929258069124 8.91899794735034 8.986996583865777
Ni 11.072250186911697 11.601039874960128 9.77450288405903
Ni 6.6563488220318945 7.287010892415069 8.768513542627742
Ni 4.761655120223275 6.989395658658477 9.956842850816983
Ni 10.827838791760097 7.585453766782179 10.697208867913405
Ni 7.025727488716882 5.54173886345994 10.1954630381628
Ni 8.851276543045334 11.199105754174013 10.770809484399482
Ni 8.75256042717447 6.5171493257903075 11.608786288428123
Ni 6.742327087112716 10.165001804530329 11.204956796413912
Ni 8.837381215325667 8.941212130614872 11.505858729235996
Ni 11.032130971045937 9.900457210635945 11.461437853501742
Ni 6.754168928330157 7.850053021736869 11.016919751813463
