42
Energy = -185.14984275 eV
Ni 11.241699469229971 10.536701536759267 7.551670048306368
Ni 10.968727543723533 12.90095997237848 8.00373205951396
Ni 9.020434402386618 11.042104417285305 8.262324834454304
Ni 12.485686449606142 9.536782088335556 9.300536297141383
Ni 12.984031768317115 11.863073612110977 8.72046641229687
Ni 9.052549727210371 13.082036354702057 9.516691366825523
Ni 14.490100457505688 12.789785605620757 10.443952669167075
Ni 12.736911717535662 14.171764335957556 9.315428519305549
Ni 11.71020201426452 7.543722489312464 10.389757654043105
Ni 8.169834616857518 12.677925952332807 11.607279281462722
Ni 10.749726893030079 11.335539969781934 9.707471553928933
Ni 10.089843589910714 9.06182271459761 9.213608744973216
Ni 11.170000420480907 13.464665516033842 10.8067991573546
Ni 9.386655131513209 14.766046921341973 11.367175564230308
Ni 10.378213470733888 14.930305347602292 9.050830002477463
Ni 14.587317183929176 10.429367690112718 9.660499076367628
Ni 12.716956298579953 11.540756961457674 11.092662574157389
Ni 14.301671918638354 12.701606908880821 12.990751741693964
Ni 13.515457100265293 8.95721568273029 11.44642674251384
Ni 7.2866011323708575 11.546006303687282 9.741929587072654
Ni 9.560673195051013 7.974111433454778 11.342356175213716
Ni 11.215767787497596 9.623607121411927 11.291006969856845
Ni 11.569025159932977 15.837078259646969 10.801858395452378
Ni 15.531502058558804 8.79014758854783 12.739518284715416
Ni 13.262340562793145 14.430408865506527 11.701944207055597
Ni 8.75487602677304 10.22587841691586 10.956272495534874
Ni 11.565412403874115 7.912919063800721 12.804447904417522
Ni 8.37764888140457 11.27491696647405 13.447544403758544
Ni 11.203398749251424 15.093007658539811 12.999793238955192
Ni 10.283792911553283 11.622525470603822 12.093256235568674
Ni 14.965221235551441 10.824628293979362 11.863860157181309
Ni 11.975047515124482 12.901583191986157 13.038737066744991
Ni 13.560570459318507 8.46289748222143 13.84824593581531
Ni 12.453470617466207 10.484186097769356 13.219618706062723
Ni 9.503239901134707 13.432544200339269 13.416611210598756
Ni 9.857650358057338 9.50101447176866 13.240857993226259
Ni 13.263696757235538 14.472677920753672 14.177009218779743
Ni 10.595624474723166 11.478492736822817 14.521584774980388
Ni 14.610158741638658 10.554926920700217 14.16935458700313
Ni 12.9621439814495 12.074469140474925 14.992258566090403
Ni 11.540933340320331 9.226270281992777 14.894850341931814
Ni 11.185669927333656 13.764004387400174 15.089505595902752
