46
Energy = -204.30730298 eV
Ni 9.428079041656002 6.763612918758965 13.273426599266507
Ni 8.48943038583116 5.928434900736377 11.338115307984943
Ni 10.816881752041485 6.689478081914015 11.20439945399624
Ni 7.142857734821908 7.669082572749074 12.40508419929909
Ni 11.110642832848098 8.417138167540248 12.808183814136054
Ni 9.413475525924385 6.102026336723327 9.217569446004475
Ni 9.007043214957598 8.987214587496524 13.881446764085622
Ni 7.339966285223429 7.501410522730483 9.978241804381392
Ni 12.834768217945209 8.153165057317674 11.016679450218202
Ni 9.137523388393216 8.26507756704508 11.442020603741524
Ni 10.824250293811012 10.404328178870763 14.275927094287528
Ni 12.249600205795836 10.342953940866995 12.331491587958483
Ni 11.592141974966816 7.2914614777598645 9.076955569585087
Ni 7.820891235239905 7.232126037477523 7.649819227351877
Ni 6.134165257158392 9.3928389154195 10.731123323338206
Ni 11.09433646342656 9.420155534500708 10.30870357184737
Ni 7.4097495518327525 9.989613269042387 12.617558752131343
Ni 13.274678230501365 8.973460811679558 8.690563997102768
Ni 9.36303475810269 8.366608311540727 9.0198323558068
Ni 8.734204736020413 11.730582451582238 13.647813562555356
Ni 10.095703723761929 7.041444568407025 7.1353326839781825
Ni 9.839515120503695 10.506875441290976 12.107446760643588
Ni 13.472963989630836 10.541736436665497 10.423520831914034
Ni 13.247091961040606 12.421925468463728 11.949855559405206
Ni 11.231791573958317 9.029057510067101 7.458478508835877
Ni 6.478996218222313 11.417315322758432 9.331861864750426
Ni 11.121073210224038 12.376708160619351 13.002691685037727
Ni 7.2119946998692495 9.417307353336112 8.39335342096538
Ni 8.241233018078628 10.201978353445979 10.392019746956372
Ni 12.035317962135338 10.990179588877007 8.604441479343675
Ni 8.968547272881292 9.287970263952149 6.783619226144122
Ni 14.325168189354816 11.240661335216707 8.277150087922905
Ni 7.2596592491199345 12.023269443332014 11.596582751975516
Ni 13.15423763498906 12.840704292895841 9.673872527261494
Ni 9.308840000945786 13.159158678830567 11.762064202358262
Ni 12.928069986765827 10.397670768259669 6.562836837084058
Ni 10.978855677406186 11.94124207394732 10.503776751555495
Ni 11.614316094715088 14.013141328501172 11.214773631743808
Ni 8.143091158314665 11.52622474986851 7.3950755922134475
Ni 9.756092001663403 10.654936632326722 8.701185401264846
Ni 10.593299113325628 11.180483337656698 6.537725213266632
Ni 8.499009485785598 12.514110685470351 9.610060832991966
Ni 12.58659213374321 12.743883346886415 7.250904804955693
Ni 11.861548247899874 14.526011272538843 8.80670459759139
Ni 9.757818771995948 14.458752854145812 9.836853502413968
Ni 10.335716461014684 12.902984700419298 8.156086468801195
