43
Energy = -188.79998206 eV
Ni 11.854740799184992 7.631922007348345 13.27442213571799
Ni 11.910553965193465 5.505561425658308 12.338325712626423
Ni 13.582243988470974 9.05778627465868 12.508815656904313
Ni 11.506569251422126 10.001217324685715 13.217892918033758
Ni 13.05477020112436 11.331563151514173 12.036627027017412
Ni 9.673870115527833 8.563506984124016 13.797038791629578
Ni 12.867478627640445 7.276701322509955 11.042128421219465
Ni 11.077058279102774 12.41087675257022 12.928915008653856
Ni 12.577595567404847 13.524207789885422 11.41060131616067
Ni 10.533792624433238 8.45350524717946 11.565746224718731
Ni 9.545252502604978 10.953285976767608 14.02994857411892
Ni 10.810088124991983 6.212122584230047 10.466661139622554
Ni 12.40870961042137 9.552401273369721 10.567624925261086
Ni 7.749129949919468 7.804599665371242 12.546751216977952
Ni 11.800057844408311 7.707838609678204 8.902390988803194
Ni 13.944624611485551 8.493916405655732 9.295950332325162
Ni 12.605669895789466 11.804610865610648 9.765344332509375
Ni 10.61438858255913 10.96850893008977 11.150344774615125
Ni 8.581636648355145 9.924257737542517 12.13203028538491
Ni 10.31470883372266 13.322377699401654 10.813893067984644
Ni 9.744909791035635 6.482059501212234 12.59547427160183
Ni 8.723144471669176 7.401401758890895 10.496437506204039
Ni 9.704338626828818 6.7069204926844295 8.476039879676
Ni 11.916046295411492 13.974503115958123 9.16245279580578
Ni 10.131420382015593 9.342103303898524 9.376872872084334
Ni 12.218483557642738 9.994256256691541 8.204816460840593
Ni 12.207327768054414 12.328656617519913 7.420201515843251
Ni 8.756012764299335 12.259003765356738 12.21807093235298
Ni 10.411070337961117 11.776313284981487 8.78199057395429
Ni 10.315585574348757 8.573069137334828 7.18525446226463
Ni 7.9707311376995715 13.332807851189008 10.286259159520897
Ni 7.074817312928795 9.087878110010278 10.534980285203432
Ni 8.486376201160548 11.011612535995505 9.924014775725492
Ni 8.1247593456049 8.502289331445175 8.475385459372712
Ni 9.601591063779525 14.046246927573494 8.654942188824677
Ni 11.234832020154009 14.436538204788707 6.993532025820442
Ni 10.951230249652466 10.641736663407556 6.339399356786028
Ni 8.860766466049615 10.489936705982108 7.423681655955326
Ni 6.695581108733529 11.363050698656174 11.277026571871355
Ni 5.925751603196247 12.528779907253751 9.405929670980946
Ni 6.694352085413888 10.454012126786944 8.595892152949423
Ni 9.777182827232547 12.63507224460604 6.688763483373548
Ni 7.850480951095007 12.52071539565616 8.080861058432916
