41
Energy = -179.77970126 eV
Ni 8.45341471435153 12.917861873177902 10.10483673427948
Ni 7.416930800829179 8.099363943218565 9.159072788071944
Ni 10.721223306432291 9.887579026048341 11.41538602789375
Ni 6.000621796076912 9.456661114970323 10.692472850111612
Ni 10.72251615970679 13.133247751603474 8.859374787769413
Ni 8.320897978587181 7.38301483532744 13.053305503767328
Ni 9.509784806668954 6.514747064321856 8.577594070544201
Ni 12.951346271573701 9.243076587947762 11.329934858220817
Ni 12.343606559134473 11.74270753769916 10.143648403704468
Ni 6.87782431447321 9.420122469701274 12.890627106340215
Ni 11.24958316150338 8.605735155900408 5.625949832712398
Ni 14.04091516108886 10.336799216363623 9.186148122376299
Ni 7.55405822247787 10.712419578670705 9.590020069090775
Ni 11.853427348064912 9.643665375604419 9.270041449302564
Ni 11.314914010885303 7.481750776065572 10.242344836430291
Ni 8.667812704788586 12.088655383316562 7.842244141213956
Ni 9.260863211671609 9.501881518022547 13.459390063667088
Ni 12.376284926735327 11.445101973073404 12.422723618931435
Ni 13.431467038042944 7.998673216079426 9.173884635008639
Ni 10.577488089085666 12.693684612066127 11.311978949010271
Ni 11.40667768247665 7.727794969989671 7.835363613642478
Ni 10.553131340630646 10.160622747498609 7.374032268710287
Ni 8.11239839829293 9.829637718981497 7.527384705007669
Ni 12.433016712607364 11.630766311988069 7.810049041030692
Ni 9.022811846612163 6.779487660937251 10.814629238934574
Ni 8.519226994108378 13.26983449853315 12.525245978561577
Ni 9.385863303582866 10.311840653051261 5.501841315416053
Ni 10.569575245227188 7.759781317558363 12.438390386247645
Ni 8.400317812330456 8.933218153725313 11.216584123794421
Ni 6.668478488384329 7.358599372482353 11.397550550643418
Ni 9.291633168778061 8.033307877170378 6.769613801647706
Ni 13.01189193226612 9.37577278496213 7.177350354666778
Ni 11.644668011686123 9.574326855475636 13.558245998904928
Ni 11.924475747469689 10.80899894628356 5.550009340208831
Ni 9.952197248613373 11.110008567263256 9.536116386225688
Ni 9.62034377776197 8.77233880422103 9.164319831050134
Ni 6.571115741476739 11.60106461450379 11.705577773082197
Ni 10.551028810497371 12.380844243564809 6.56136952071203
Ni 10.250542381761946 11.650752580473604 13.470670765067824
Ni 8.771433136057354 11.175690533253317 11.688090137950473
Ni 7.835735163746443 11.396289440019162 13.821164169014335
