44
Energy = -194.27907097 eV
Ni 7.842007332661131 8.823566347945432 5.964967559609651
Ni 6.730173226509434 6.8340756057747285 6.915640501342244
Ni 9.069047243253442 6.823118434010668 6.701966129266745
Ni 10.083346214169271 8.899575262496718 6.99358936236806
Ni 5.8178603098827075 8.91910596516002 7.230857202118642
Ni 9.14786647218107 10.833178078064188 6.027130395083912
Ni 10.865622788756568 11.132940100601395 7.5949971014286115
Ni 6.975589689553495 10.91583612476373 6.848521524518153
Ni 12.160544359847261 9.13605306980748 7.97312034207052
Ni 8.13463054823034 8.44326319463414 8.247278614395825
Ni 10.33274568537598 6.964228699813944 8.772701232571622
Ni 11.057009548177462 13.142986065707566 8.870024731362193
Ni 9.005700476487043 12.788388911289529 7.4461719363933785
Ni 6.223480796632268 7.593969438879884 9.220685273356933
Ni 12.924042350243479 11.410815538131127 8.592444598488955
Ni 8.074923659320975 6.0150861265585185 8.66547909905827
Ni 6.8510547304691585 12.390949177275084 8.640659819358657
Ni 10.290581887397027 9.118903747480168 9.437543192315792
Ni 6.4660817561661 10.05935796476394 9.147357300007457
Ni 10.497689652039465 11.36370693845669 10.183265327934865
Ni 14.273419113128421 9.309899828751142 8.840299873492498
Ni 8.71164374771939 10.773773193420784 8.451450522623952
Ni 14.580273914359495 11.111710325266696 10.3464369418854
Ni 12.450508827192351 9.924881843156516 10.314439332903099
Ni 8.379319381476376 7.536821924737479 10.390873153031334
Ni 14.457642952218556 8.813123154122785 11.098234365005705
Ni 12.60272184029578 12.397778869069525 10.753525410389653
Ni 8.724577367494808 12.884499159396803 9.88627789884471
Ni 12.510091757661746 7.655508525603256 9.860602139913222
Ni 8.46463789309582 10.039437153611125 10.689455344108811
Ni 10.550714051999599 13.523637529217686 11.238158799167728
Ni 6.5416184921045195 8.882430706384072 11.242255060124318
Ni 6.838448656537435 11.652320984020925 10.898575147321377
Ni 10.581190910444045 9.649272014041072 11.864594974166017
Ni 13.361813086264894 10.63652132365836 12.320576248100322
Ni 11.270151107143473 11.76312226096415 12.671265334812428
Ni 10.563096308183649 7.353128177208082 11.234961347519446
Ni 8.94826270181909 11.911266532167382 12.105541470739258
Ni 12.5200793238257 8.31029280630131 12.254313523657018
Ni 8.56439511698153 8.449293302227694 12.526309393859764
Ni 7.316445049129743 10.432541372799335 12.912439742263897
Ni 9.548537929216813 10.294031311624847 13.814818749732607
Ni 11.88859938576456 9.8841951069633 13.982613432459436
Ni 10.57756504635003 7.977160491431924 13.60333323858922
