46
Energy = -202.94126303 eV
Ni 5.610263151076271 10.45405022055476 12.26682814578788
Ni 12.975046093585956 9.449134717866656 7.813983736339014
Ni 8.558447264184712 7.0530402464378135 8.259081172684304
Ni 5.8521569214679285 8.172072868237263 11.23477108771802
Ni 8.843328218975367 11.68305840429656 7.168958159143618
Ni 7.565797558176842 9.796578464066075 11.203601659233609
Ni 10.42183684587053 12.938849225137053 8.433988054470296
Ni 10.486515048463533 8.030901494102253 11.831419241511801
Ni 10.676349195018073 5.886364869947785 8.226508755242374
Ni 8.166684788371429 7.585261796351766 11.833731146391829
Ni 8.06191135540772 13.154461249992972 8.935271848228718
Ni 5.320355931637577 10.090586400698239 9.934976844389166
Ni 12.723948585251327 10.63176288309136 11.822435160878907
Ni 8.95080985197999 11.16714261569599 9.693522270215455
Ni 11.502666873176441 6.022739317462162 6.05998260518412
Ni 11.782652186389733 9.367527352886205 10.010895941473722
Ni 7.758972243868394 13.846781099034517 11.204396221391537
Ni 10.837551633462963 8.177203797127921 8.096031656538527
Ni 11.758965488752441 11.82233266834505 10.027737055130588
Ni 10.252640932428346 9.945132155035354 5.958935086162182
Ni 11.406382360281892 9.477367591923128 13.402737323071873
Ni 8.440361246083679 11.801278141623543 12.22808213937208
Ni 10.345498203920739 10.572479489228137 11.568389638065963
Ni 12.547803108939297 10.55324730806528 5.809345063276022
Ni 9.693334454480501 7.551026560923947 6.226538529571113
Ni 9.353937568869735 8.797362021728313 9.876679935344656
Ni 6.974626841526178 10.92545059919488 8.414759505432782
Ni 11.997644730038909 8.278923448310326 5.9766364712717746
Ni 7.129631245140773 6.489953792982344 10.066067154539311
Ni 6.349201116327406 12.680394382297356 12.739209959179487
Ni 12.837087807168615 8.281011200469317 11.832751389188294
Ni 8.976181188983782 9.476590595494836 13.1519911811607
Ni 9.537903732692243 6.409055620429297 10.294635775548471
Ni 12.665645167896702 11.859319864597863 7.839367063627505
Ni 10.76808059390282 10.55236123291361 8.153791424817623
Ni 6.7403846484166055 8.673995237024036 13.369559883638237
Ni 8.646763055077194 9.348140008265384 7.58404393550906
Ni 10.947138780299014 12.21251510333157 6.21503523586818
Ni 11.813970227171529 6.966353314752985 10.058519988463736
Ni 13.78325298437643 10.664798268428964 9.691547228168623
Ni 6.998515684033344 8.635283777879984 9.14574955758767
Ni 6.629607988405775 11.93865191152417 10.51987363411965
Ni 9.905597915353301 12.995668560419825 10.787860385828997
Ni 12.83390667741585 6.975590870113521 7.844950865806312
Ni 7.203598647882231 10.850486225706499 13.982067829697293
Ni 13.821424668878805 8.212093837113763 9.657133864838187
