45
Energy = -198.16959766 eV
Ni 6.787235226577683 10.304544565656368 6.975639106253906
Ni 6.95308395102648 9.49741914718802 9.171094761375656
Ni 8.470341654519219 8.689922036300825 7.3903555719321234
Ni 7.885758148696633 8.837382446050764 11.374301190264946
Ni 7.96047633987258 11.638242124765595 8.483062025271176
Ni 8.097770293452026 7.475308767108828 9.413481084338523
Ni 9.030090621462326 10.826200278408503 6.558573168362784
Ni 7.5429288329001105 11.058203767063429 10.835671211655312
Ni 8.202798927673921 10.551921329646477 13.112423273542081
Ni 10.30840802798282 7.531218625402033 8.542723885185676
Ni 9.346983298962906 9.746167242829285 9.259712206970152
Ni 7.355887398618025 13.2897303962743 10.071509745714481
Ni 9.911136356582642 10.209680272334754 11.531133648648174
Ni 8.259766867159325 12.80434116099126 12.252188044532444
Ni 9.487837955307691 12.29043460934882 10.221431635791195
Ni 9.8855904898122 7.6887099099115055 10.87619937115332
Ni 10.804504918880207 9.479411289151736 7.360586643852038
Ni 9.148226530994181 12.476145887795369 14.360074011857929
Ni 10.429961040814298 10.570194850654001 14.03643556736162
Ni 10.733264054257898 12.308577793206547 12.353333011066317
Ni 12.036171835091121 6.766284803598623 10.066622754424685
Ni 9.608079210867311 8.509149773141486 13.104059080407662
Ni 11.701456056529858 7.522289195145485 12.30071379501909
Ni 14.276382134834984 6.989743301175048 9.34131446892508
Ni 11.650415034668365 9.107939568128936 10.046820089013693
Ni 9.124560185741114 14.574465179683003 10.925931301552225
Ni 11.771941131096451 11.468241056757485 10.367312379439154
Ni 11.650690206963692 8.60605726880067 14.36782111254398
Ni 9.97156211918639 14.353637056549111 13.173057993926532
Ni 12.16576131824211 9.82957304784108 12.39299026691728
Ni 10.488363030747049 11.700588518812 8.176253411379868
Ni 12.628152455393112 8.149357374267328 8.130875710067789
Ni 11.530634434610057 12.821221635493728 14.453707211096013
Ni 13.106490430890501 11.976089807802081 12.786218837269756
Ni 12.648180264569723 10.565774390288201 8.299727821019367
Ni 11.295564988117768 13.890428013285746 10.333691269105433
Ni 13.604650500402892 8.30758031207267 11.127889341696388
Ni 12.276686654050769 14.13701682490185 12.499017085541897
Ni 13.921062391605426 10.684637431556816 10.978172892977147
Ni 12.683809905701896 10.694810652913231 14.651741324713988
Ni 13.542466973581943 13.074157358667847 10.732215552461282
Ni 14.477876266616018 9.311320486073924 9.136623599605379
Ni 12.523827011451917 12.907067803293517 8.592944023781582
Ni 14.550142485967974 11.71469196104048 9.00275396963487
Ni 10.936759403671553 15.837858044775034 11.605332908503515
