43
Energy = -188.67155166 eV
Ni 10.499382898219366 12.952720444327102 7.62847955767756
Ni 11.590837318918739 10.861016926616614 7.613082413956461
Ni 12.904783718756251 12.85204996757522 7.894360273217664
Ni 9.145574308006115 10.955703403691755 7.512581187997178
Ni 13.826460445375709 10.45920811637196 8.22912604817282
Ni 14.995432910718325 12.237910151857484 9.07823019208622
Ni 8.147787671286359 13.123054233184256 7.434213302223999
Ni 9.132899144150908 13.631405051279986 9.48451088231907
Ni 10.265888850400897 9.017087616885311 8.308183763120118
Ni 12.143717325742417 9.597801636240435 9.623864200408955
Ni 11.449385657333803 13.782879871972822 9.6793674122221
Ni 12.788522650263339 11.86142731686682 9.963261310987857
Ni 10.274988919027827 11.400774909617951 9.523031819758023
Ni 13.748776599829544 14.09117707206085 9.88577910345201
Ni 8.3193915609295 9.512753756940795 9.404181766184367
Ni 14.374102583277933 10.25504959590884 10.606078402846459
Ni 11.530527013130056 7.280318636282402 9.197706197006122
Ni 13.71706134762703 7.971109022708128 10.030813300097376
Ni 7.658736659062576 11.763663526934586 9.25305575675273
Ni 14.777598951984551 12.545867941891304 11.365804232701617
Ni 7.844416783104277 13.031434348580088 11.332566410635016
Ni 13.438246871183297 11.211291461824853 12.673360075007267
Ni 12.515598798774722 13.260340024857504 11.853827202455262
Ni 9.144839662448078 7.244560677955829 9.573083367059825
Ni 11.348574467470634 10.845559661053521 11.64042256613674
Ni 10.191006375759361 12.97252951807008 11.549080884981276
Ni 12.851935576720436 8.984316321042277 11.96373007283285
Ni 10.530693993806077 5.409594384807657 10.176864688922242
Ni 5.783559618795345 12.491553684815582 10.40185581311177
Ni 8.859369089813628 10.82314905914974 11.363963890496493
Ni 10.322620570240911 8.771396721924964 10.931038591980188
Ni 6.5970002205825935 10.339609451989817 10.92295070968685
Ni 11.99845453323546 6.837655506255031 11.381890632434555
Ni 11.205120518378635 12.087652768278673 13.57420466632108
Ni 12.122008188342278 9.893069369779898 14.046649153149339
Ni 8.005648237059946 8.40978484318857 11.462867396881196
Ni 8.744420805055295 12.112525031584326 13.33617302234777
Ni 9.603405180782206 6.651885178101844 11.895560897204765
Ni 6.364984160020335 11.907020726375771 12.658108148731746
Ni 9.870385204728574 10.004800908605278 13.414996707120638
Ni 11.040970556034083 7.984167098020353 13.194673000782661
Ni 7.5169009160394245 9.953842384815921 13.187292401155608
Ni 8.710420732809503 7.961781312858567 13.674025786583636
