40
Energy = -163.03068457 eV
Ni 16.873505647251772 12.95472205396436 10.39091004780981
Ni 12.84518315737656 16.37342897753827 9.760283160321242
Ni 15.182943369137579 13.66606577886485 11.707145643080839
Ni 8.816860667501475 12.95472205396436 15.299456266943443
Ni 9.760283160321242 9.316937337214853 12.84518315737656
Ni 12.84518315737656 10.12498089835532 9.714817209353427
Ni 11.713889802403706 14.313559600366952 15.911034869754006
Ni 13.983220671672413 12.0243005358884 15.182943369137579
Ni 16.873505647251772 12.95472205396436 15.299456266943443
Ni 12.84518315737656 16.37342897753827 15.93008315443201
Ni 15.182943369137579 13.66606577886485 13.983220671672413
Ni 10.39091004780981 12.735644260788758 8.816860667501475
Ni 10.507422945615541 13.66606577886485 11.707145643080839
Ni 10.507422945615541 13.66606577886485 13.983220671672413
Ni 9.779331444999245 11.376806714386166 13.976476512349546
Ni 15.911034869754006 11.376806714386166 11.713889802403706
Ni 13.976476512349546 14.313559600366952 15.911034869754006
Ni 9.779331444999245 11.376806714386166 11.713889802403706
Ni 9.714817209353427 15.565385416397799 12.84518315737656
Ni 15.299456266943443 12.735644260788758 8.816860667501475
Ni 13.976476512349546 14.313559600366952 9.779331444999245
Ni 11.713889802403706 14.313559600366952 9.779331444999245
Ni 11.707145643080839 12.0243005358884 15.182943369137579
Ni 13.983220671672413 12.0243005358884 10.507422945615541
Ni 11.707145643080839 12.0243005358884 10.507422945615541
Ni 11.687342484619323 15.725519262633258 14.033343689420239
Ni 11.687342484619325 15.725519262633258 11.657022625333013
Ni 8.816860667501475 12.95472205396436 10.39091004780981
Ni 11.657022625333013 9.964847052119861 11.687342484619323
Ni 12.84518315737656 10.12498089835532 15.97554910539982
Ni 15.911034869754006 11.376806714386166 13.976476512349546
Ni 14.003023830133928 15.725519262633258 14.033343689420239
Ni 14.003023830133927 15.725519262633258 11.657022625333013
Ni 14.033343689420239 9.964847052119861 11.687342484619323
Ni 10.39091004780981 12.735644260788758 16.873505647251772
Ni 15.97554910539982 15.565385416397799 12.84518315737656
Ni 11.657022625333013 9.964847052119861 14.003023830133927
Ni 15.93008315443201 9.316937337214853 12.84518315737656
Ni 15.299456266943443 12.735644260788758 16.873505647251772
Ni 14.033343689420239 9.964847052119861 14.003023830133928
