45
Energy = -198.52853204 eV
Ni 6.984900693824266 9.071367079303494 6.9869012843726495
Ni 8.687634475945803 8.36841638437122 10.729560898382088
Ni 9.991968539295186 5.477900318060458 8.897142307442452
Ni 9.071697446302753 9.946962220127077 12.368868468355267
Ni 10.36601213117256 7.819094160229409 9.016168396875095
Ni 7.675620508324216 12.213574317140763 9.155805373921986
Ni 8.25659638960064 5.9737231908295865 5.487350774524331
Ni 8.109919391448171 7.518013176509294 8.361388609142448
Ni 10.971438493797633 9.160897588275818 11.004094969288323
Ni 11.884028830248855 8.513634062268505 7.205780635721134
Ni 11.314839722698487 10.73607348440421 6.507631454642108
Ni 5.133373815527695 10.596696435030625 6.663321486290365
Ni 10.001911457088175 7.012869992299708 6.649262275401691
Ni 8.152861234736314 9.860914454330723 8.945707433194423
Ni 6.82691995800055 10.010392196832175 4.907953313892257
Ni 5.623478004249199 12.599679812629681 7.966343964604853
Ni 6.6437501317243965 7.422382950432347 4.393320036468114
Ni 11.93395084172086 6.226382407104831 7.755847964607893
Ni 10.256715007933133 6.520644279826657 11.065820796168238
Ni 7.214188328522982 10.632278552667893 11.016946802278824
Ni 6.384350638533027 8.490276450344751 10.037250666196707
Ni 9.56747047360098 11.05866629310113 10.317038180627119
Ni 12.288344076027142 7.392854062864302 11.775235825321076
Ni 8.06698919471943 5.973047675830649 10.202598813575149
Ni 9.969413086677426 4.732185842443451 6.669186645640381
Ni 8.300231707161146 6.772585129993093 12.42114815270173
Ni 6.967761419235323 8.679776230797714 12.348996709150159
Ni 9.560833701076279 11.583651298425961 7.880674690890327
Ni 9.102539316712951 10.727292710848873 5.487200919859614
Ni 11.179174169039866 10.095203422545909 8.847482671421059
Ni 7.363435222827259 11.41208809416837 6.90006892027219
Ni 6.145659688683918 6.615554688549435 11.420288873327822
Ni 5.669675624399776 12.268440036462652 10.326436920735027
Ni 6.3503947592805545 6.813479393834481 6.65590092968662
Ni 5.038366270992821 8.383180563193969 8.04774883461021
Ni 7.916085179676463 5.290503648180338 7.766824759585655
Ni 8.534416225044907 8.338125384134212 5.216867690969427
Ni 12.589282550638949 8.064223437128355 9.464582301036149
Ni 6.075819171660695 6.3917412838180265 8.96838167135703
Ni 10.23062757477198 7.99045400158091 12.948031935524298
Ni 9.527819182342576 9.25429039294757 7.204208932344282
Ni 5.825217219598266 10.482083786426923 8.90354551099916
Ni 10.76616763555359 8.889127397357312 5.1600543133397645
Ni 5.031709455056057 8.520848526290429 5.6338783372685635
Ni 12.148603798213996 5.800615929741539 10.013342291670535
