48
Energy = -212.8406394 eV
Ni 13.943591736919984 7.63527433992181 12.828109184859867
Ni 13.2557098702654 9.066251364283373 14.50626090534903
Ni 13.922946373840896 10.15785155937435 12.417563476776763
Ni 13.526453628965324 8.621260502990287 10.694746601906896
Ni 11.748268362605733 7.12002589956928 13.996605229881725
Ni 12.251504745486962 6.669177609801066 11.492374933559732
Ni 14.085792901439614 11.01857413389084 10.061411473492068
Ni 11.8798755845306 8.79432283364928 12.50996485881831
Ni 11.922109830010939 10.854839601254492 13.594867993309586
Ni 10.991111397969899 9.249053523775244 15.003014471859325
Ni 13.02055363221012 12.316208844219897 11.986917304239014
Ni 10.17196003914136 6.270577823965062 12.374630077843118
Ni 11.995771995096394 10.579164476610213 10.768604459970216
Ni 12.599425407315278 7.023575387023346 9.191695857047552
Ni 12.706722492497226 9.410483205376831 8.665689415196422
Ni 9.599581136008696 8.317263077305709 13.436509657867136
Ni 12.32223654611319 12.753071156030048 9.7206075412109
Ni 10.345418247371182 6.2920142372874714 9.934378449968722
Ni 13.055378076903411 11.52943119127755 7.881631142466115
Ni 10.959347235341719 8.439127588101282 10.296301832243705
Ni 10.61985015878813 12.397858512018223 12.508650990887402
Ni 10.016840521113812 10.091834787740337 11.884059704823406
Ni 10.058762852231132 11.981219011584846 10.211141063561977
Ni 11.642385615251609 14.19195615459231 11.418079676198884
Ni 10.85026193553936 12.341675598446518 7.8484868516879756
Ni 10.950133295714325 7.989248720300479 7.839519818174902
Ni 8.809011950837661 7.736682075651984 11.27030856414125
Ni 9.398657517558533 10.76215749012595 13.94311429397853
Ni 10.419837252775993 10.174002730095639 8.7295450455615
Ni 10.289936350866611 14.14558690614912 9.416984638525008
Ni 8.51842758588726 10.02249843590766 10.14815401632795
Ni 7.74419286722843 9.567712276139378 12.416686520204577
Ni 8.03410102095397 13.172041310223696 9.892814667458467
Ni 8.846967112066066 7.971227833824107 8.920042537896544
Ni 9.284551081846123 14.04686675265927 11.587926868676494
Ni 11.407014046282594 10.222630786580947 6.668762415387004
Ni 8.259749579755182 11.816942164204667 11.859588225465517
Ni 9.185842277397962 9.241513066855244 6.908069947761584
Ni 6.782781279169045 8.566779042200318 10.374025611726246
Ni 8.836333204084655 13.591649169448411 7.606910031460157
Ni 8.25541747466971 11.394615451001549 8.124867520897508
Ni 9.412008832857145 11.528778466406443 6.130063038203555
Ni 6.499809308785935 13.188572293547848 8.235764491313024
Ni 7.076251387182822 9.345130183654787 8.188965780955114
Ni 6.5452735942477185 11.216997863863831 9.804026137717324
Ni 7.322085321599099 10.273482479716467 6.011779866373708
Ni 7.241666546094636 12.583114476484202 6.119125107242676
Ni 5.750874602704948 11.156135759687034 7.490982168532251
