49
Energy = -216.54632222 eV
Ni 12.299528285858743 9.431974590069611 8.811148521408459
Ni 12.800378709290987 15.160458774684537 8.639148763706054
Ni 10.376670701625262 13.370850139937689 7.935798770563638
Ni 13.651461212494155 11.180941587178284 8.137632994344683
Ni 10.606885262374234 11.21493267196426 9.045312367439168
Ni 12.36493201511975 12.925623509165192 8.962273311131705
Ni 14.483811708218406 9.857563295653371 9.988771116690915
Ni 14.329501944973181 13.471751237695418 7.825396274744763
Ni 12.831106452083384 14.402694872607404 10.867443141030998
Ni 8.934882135873515 13.042871803118654 9.758937083714617
Ni 12.896078551821228 8.136716437088943 10.675150320770175
Ni 10.885063208577359 12.659767025901541 10.91335400856359
Ni 12.629310701265615 11.08949431672077 10.486854260550361
Ni 14.58172388989485 12.398236702395446 9.949892853882066
Ni 14.539803275155617 8.800437870190164 12.171451862473463
Ni 10.951448951397769 9.445948261640183 10.770672749203877
Ni 9.185397918382089 10.963919399101286 10.99215984470341
Ni 8.853887919882753 15.027900249255481 11.20350789134073
Ni 10.721584634377797 14.763535800263414 9.777429765391972
Ni 11.57930938314687 7.897364190339088 12.626820377513978
Ni 12.988540464381138 14.934992491551357 13.173276970947013
Ni 10.569693101197325 11.375216367157696 13.143781130515125
Ni 14.867364046350932 14.71235422580375 9.781354185249723
Ni 8.880907922105578 13.00748309489588 12.231854301220777
Ni 12.639591141271334 12.485125247225515 12.445197656770082
Ni 14.584852645044975 15.897261491452927 11.785246778748572
Ni 14.835185142925265 13.595622919580002 12.054295781941809
Ni 10.877195361822912 14.612059935284531 12.26099466501276
Ni 14.696940156689035 11.217236426284371 12.006431769882967
Ni 11.166860660613398 15.79075994344834 14.36836166449668
Ni 12.561151903293492 9.989540437100061 12.580034166723621
Ni 9.023015092579639 12.578405626195687 14.574093382077479
Ni 7.980613795136096 10.999243102377154 13.00442968866591
Ni 11.337117209072336 13.448130924736049 14.417474694624799
Ni 9.572632441167721 9.247594425445094 12.686242741279582
Ni 12.875378421127428 10.920653908754057 14.733499588709341
Ni 15.215705204324639 14.95027907452112 13.994166304354373
Ni 13.840278866435586 13.023823521841463 14.370150651913534
Ni 11.125812377665593 9.332588232737844 14.488126867547939
Ni 9.127593492626596 14.787925529894546 13.752241963867066
Ni 15.93198642761806 12.396639509031948 13.84110173359141
Ni 13.067550216332865 14.974550186371726 15.519446816089607
Ni 13.331242423036489 8.521044584967568 14.255528224912535
Ni 10.830244780763687 11.488446403226437 15.68338631902571
Ni 15.003910352852598 10.187627235640218 14.073541497028502
Ni 12.749083578038688 12.73735494218878 16.393266995251835
Ni 9.027693847003817 10.208193951168772 14.88700483536934
Ni 15.09489665749264 13.883901575142525 16.13160970799533
Ni 14.811808959009843 11.57057550079719 15.94231618681067
