40
Energy = -175.06962421 eV
Ni 6.450357764527309 8.296783851283955 10.45299077759093
Ni 8.194435755808321 6.84802722797054 11.76161291989261
Ni 7.206569482991571 6.530741274477164 9.241947028091671
Ni 7.415956004291058 8.79381219326409 8.18130846780408
Ni 7.564829470961965 9.221059824537928 12.266572232043513
Ni 7.106804265183781 11.543661833823597 11.884009608203712
Ni 7.3202287773394525 10.395610967123087 9.871973396102243
Ni 8.014370515283076 11.093186971917984 7.694142320578591
Ni 10.648839122217264 6.951286118334546 11.25657974879014
Ni 7.394976417011951 12.763877866093784 9.704826860572735
Ni 9.33095873168669 5.810949493264258 9.732324784820955
Ni 8.805401707685679 8.188029466932974 10.100796684809309
Ni 8.903112652535068 7.079083965321986 7.7135334828387006
Ni 9.242874483402908 9.24571218326051 6.555116583597839
Ni 9.016098745970673 10.92642039357569 13.336359254940835
Ni 8.91483600756036 13.36480135710047 7.699176824204032
Ni 9.00119314932293 12.825649312031658 11.684130838999687
Ni 9.253782999715819 10.374795257305875 11.15150133137247
Ni 9.817081920686922 8.611155320885635 12.650672898537282
Ni 9.760030976179056 9.763652511456245 8.705894884654391
Ni 10.344805808734408 11.472342339690455 7.137563360450955
Ni 10.820261204166414 7.348548655352111 6.481932486488876
Ni 11.23506493896909 9.212867866810772 10.538173099667725
Ni 9.508589588556102 11.98001187732854 9.411506527850872
Ni 10.878321677932844 7.440551657745555 8.861989830270549
Ni 12.294300915783548 8.299568456117203 12.387998402285268
Ni 9.29774115383172 14.291250881589285 9.865493665884438
Ni 11.381950065684904 10.4109210482203 12.933892868246957
Ni 10.687533398157667 12.675759605804046 13.271691501122389
Ni 11.167681511601062 11.75278831283101 11.060940017000226
Ni 11.635248079448615 9.34696473685471 7.315499661719607
Ni 11.900899290608969 11.117747014204703 8.908665039732465
Ni 12.882438503023984 7.335377781378445 7.784242232837166
Ni 11.230371761977423 14.000401077360227 11.22513148271885
Ni 11.23037956084826 13.411924886439824 8.772389840487493
Ni 12.789998397404338 7.307893699171714 10.25323807994111
Ni 12.871496837344225 12.408563304037427 12.503671497092363
Ni 13.168508586798428 10.43432190303294 11.130355846427125
Ni 13.07901976907422 12.742273361553295 10.174873373128946
Ni 13.247382334268472 9.239985911268418 9.092499162297203
