45
Energy = -198.81638643 eV
Ni 5.4254921798036495 10.754878143457576 7.517677731524614
Ni 7.390310688890272 8.809588272293395 6.521084059679795
Ni 7.270313028208193 11.303162628231973 11.976568373124389
Ni 8.911829074228102 5.314561783000874 10.865488213992375
Ni 5.795623721393128 8.192385674540848 3.6872987171687535
Ni 6.861844882231414 12.532593068800312 7.998518246091742
Ni 9.472403575870334 9.860240546084714 6.086040048697372
Ni 9.59708706797109 11.48456086820206 11.790190731387186
Ni 10.291765174535117 11.826910203178535 9.580157661504217
Ni 8.372681079153361 10.276582543360783 10.143124579559782
Ni 10.558699431351014 9.648735456304351 10.539536096087856
Ni 9.087616866500934 6.979629687563359 6.5363080317537925
Ni 11.276755815661534 7.908823018226384 9.155503018171453
Ni 7.2768834593612075 11.118919633390242 6.0638915157899955
Ni 9.51622710254393 4.686729997248995 6.864172362590345
Ni 10.03233715536449 7.432396049005089 11.30074402239535
Ni 11.430313890447213 5.9031668030943765 7.809803499847208
Ni 9.43518705837513 6.39474695577723 8.884846862769548
Ni 5.555774062827134 6.985580078255506 5.808668357351171
Ni 7.230545175835283 5.3809010202528755 6.343211142111136
Ni 6.675038733758691 5.79009404494812 10.309425125460084
Ni 11.315414312058659 5.7684579999800345 10.219011498091376
Ni 9.10564346314574 8.735184176610925 8.294850005021189
Ni 5.476739526344868 7.636960398521212 9.79657737529278
Ni 10.073983631027073 4.145407861099946 9.07022819654334
Ni 7.551558425379182 7.143467363873701 4.6485698067343915
Ni 6.743331383036174 9.363739024762038 8.764507269628274
Ni 5.437468233472862 5.7631043416540395 8.019520527996983
Ni 7.799052522887831 6.951356005078828 12.281922626104
Ni 6.103930588671425 11.293707217043364 9.873209183150966
Ni 9.051722890211842 5.441402797553374 4.660605270566692
Ni 5.016040438023394 8.288667555484862 7.59501816741035
Ni 7.7616467994499985 4.689289208480902 8.577622246870462
Ni 8.699181081879686 9.207571761980343 12.203536739818023
Ni 8.09727807429519 12.585269004394226 10.038099247677636
Ni 6.4226284891129355 9.230594737835691 11.258497280289525
Ni 10.958464925346881 10.103151206294513 8.138084717405382
Ni 7.993168557888026 7.814103904603417 10.226210180865156
Ni 11.086608459480232 6.117613236072136 5.517007176994405
Ni 7.771319304631751 9.481086276112515 4.342955343457512
Ni 8.729916811435892 11.179433944777587 7.943476759581794
Ni 7.2277965213731985 7.06658491936682 8.098254662475039
Ni 9.803481980730044 8.005053748782109 4.602547446116951
Ni 5.445432872102007 9.481982977835399 5.537667710160231
Ni 11.103042525918815 8.161204898798394 6.749343206902772
