41
Energy = -178.91179272 eV
Ni 9.156793050670224 10.681812577353538 8.700005417068356
Ni 11.186213722213855 9.811319652549969 7.424562201742152
Ni 12.859903449965994 13.00116026742279 7.544008788044227
Ni 13.20956369233905 10.750853740652435 8.479914712804987
Ni 11.079978311421845 11.93486392083628 8.379356428893907
Ni 9.22978697304669 9.24122765725281 10.645419341920226
Ni 12.602451856937964 8.425968219229299 8.719367853824957
Ni 11.196081606313726 9.930614248991251 9.749313345662275
Ni 14.19525739287607 12.914184819637432 9.366790147057374
Ni 9.19209262847831 13.163852738285998 8.968144625138542
Ni 11.418936706968791 8.19632272837952 11.289300756196251
Ni 11.637172562288702 13.853536605710508 9.600351122901818
Ni 15.082227627577678 10.836828112069798 10.071412610148613
Ni 7.800324919651089 11.703567254475335 10.433980743816829
Ni 10.105336484719752 11.889163615299962 10.67981197389738
Ni 12.480135004788421 11.862687716272665 10.533755253363314
Ni 15.523586333342633 12.778030994887402 11.342122341182515
Ni 13.342264645454927 9.413265223850145 10.675785804981194
Ni 13.418385265254065 13.946435521022691 11.321723620594664
Ni 8.77259495009538 13.788586583414471 11.161824370358199
Ni 15.358917116741464 9.344094264934087 12.019893383469192
Ni 16.021402235494 11.318901755725848 13.1936659971769
Ni 9.903666742623257 12.445306830868686 13.034323959664723
Ni 11.010210562245856 14.313690775223321 11.884884722206817
Ni 14.546199125614251 13.151011661042798 13.484669950307868
Ni 9.849418669986585 8.748768259981311 12.9878218027012
Ni 8.898560632147666 14.602235492109527 13.322514628854881
Ni 12.260195300179612 12.614569794685078 12.958806886539168
Ni 11.341472451468512 10.462004662049662 12.253207295148213
Ni 13.994887414633762 11.175096022133205 12.154839400915048
Ni 13.187887708557914 9.035989088794752 12.994698177146514
Ni 7.588761789635767 12.60499069817914 12.882338490019915
Ni 12.900150004501413 14.900646486601676 13.391881989940808
Ni 8.63680954185691 10.606372688567399 12.318772109033999
Ni 12.993625973206276 13.365921505702733 15.231621999751187
Ni 10.913893088733047 14.182389518002186 14.403891721884431
Ni 9.24803323295768 10.599646925663004 14.534666736015561
Ni 13.404565381770126 11.07350735741267 14.408211214282723
Ni 11.457864109521315 9.624182396269141 14.481079299537365
Ni 11.166616396930776 11.864810566038575 15.009630230763861
Ni 8.926974373645708 12.94078008927741 15.06082758189847
