45
Energy = -197.98535427 eV
Ni 11.44029830645035 10.544234225553167 9.23564993363854
Ni 12.57645170075344 11.313842030242975 7.142719553668327
Ni 7.930101004629104 11.164763804383332 12.930410308688176
Ni 11.827187202763046 10.985982294456464 12.809851989783557
Ni 12.503652677695218 7.02615692998093 11.669692745610488
Ni 8.641607383293996 6.800856113434428 8.69289159685639
Ni 13.336399225048607 10.883563535527383 10.994838677807712
Ni 10.758030554130217 12.697841965435584 8.014157519551413
Ni 8.535231183519333 12.622613988627924 11.158395697297731
Ni 6.776257123756441 11.247432273533393 9.033367915515093
Ni 7.5648738351739535 8.959327252269466 8.737728406658157
Ni 10.33026151138059 10.600264055777316 7.006269418015522
Ni 9.108778210228683 11.223380551392882 9.165490205140344
Ni 10.534330514472499 6.18725168039584 12.69466937508223
Ni 9.485364763641233 12.451691566381117 6.03879259773458
Ni 11.773187996958374 9.138214751727915 11.175468575896637
Ni 13.066939052283754 12.326293219355867 9.205181253515592
Ni 8.059770004189462 12.846709052398248 7.76389684625206
Ni 9.98559078941142 12.371703048152307 13.00920512972479
Ni 8.020610545172362 10.569812831848955 7.058940057067836
Ni 9.699434147740659 8.25008221784383 12.031950645399279
Ni 12.020581534499115 9.964620533076513 14.834570880360946
Ni 7.708240448958743 8.85358147814058 12.995883935582482
Ni 13.443595910063344 9.285160468152968 12.912949150157676
Ni 6.985683810181782 13.530934584420738 9.715140530059198
Ni 10.438307430840302 6.675246424438713 10.347976434568515
Ni 12.713032674875533 13.739411261027398 7.424902250361742
Ni 9.828805714226018 9.968427778341438 13.801146041915914
Ni 11.312809754948086 12.364793202657044 10.884391250820993
Ni 11.862078467405361 8.958368716461715 7.4193411299196566
Ni 6.325675704065964 11.854726092754312 11.28656031251068
Ni 9.39683923106568 8.52371901421286 7.269105005044874
Ni 11.507575401409252 8.14579111559859 13.562878352934174
Ni 10.861750239375093 6.850495551573573 7.992249774801137
Ni 7.613880809790218 9.94451566076891 10.873118809263142
Ni 9.787993339656659 8.857223489028577 9.609883195022215
Ni 11.701077302915856 14.274580572514079 9.556209299439423
Ni 9.360106542547607 13.893719729842159 9.419979924942174
Ni 9.315364845105673 7.639445139461108 14.244270795901896
Ni 10.238465938776468 14.306105096817456 11.532615288338018
Ni 9.85612541605426 10.569995018190298 11.41176051874237
Ni 7.91748943531589 7.603467924292595 10.755222457372525
Ni 14.131745580695446 8.616215462540579 10.754689485204105
Ni 13.636816519959474 9.8966721481129 8.78612113586727
Ni 12.428116059809469 7.8172819940899085 9.385981437197923
