47
Energy = -208.56490629 eV
Ni 12.951142449359931 13.883261364203937 12.54959878226444
Ni 12.140189922549329 12.053982847879494 13.824680751806932
Ni 10.570479402937544 13.52705758370328 12.595217853503375
Ni 14.131562070829732 11.68916379253652 12.30920733307698
Ni 11.179116641927058 10.015873197317378 14.80440343327737
Ni 13.377966427792654 10.055537281189832 13.887563011122507
Ni 9.851966096294849 11.49163973885497 13.472052043089551
Ni 13.811626370740383 13.317640368662996 10.425772504237512
Ni 11.5574501163633 14.224679670111824 10.541186596939465
Ni 8.331134403523377 12.718284347703815 12.163681374365218
Ni 12.063000003263298 12.060707085516382 11.395140430523412
Ni 11.35186963126432 10.092765737306054 12.463267992242962
Ni 9.217923980271165 14.439622337985126 10.857172128867255
Ni 9.884554911205809 11.974729005996705 10.433580814741422
Ni 12.044369317229297 8.132513267961547 13.472230310677883
Ni 13.45817419988411 9.432868398780506 11.639838390141943
Ni 9.442742324889432 8.944937515961467 13.49573825819196
Ni 13.763618812163308 11.02812294415659 9.93650285706459
Ni 7.67607046102612 10.914267397752084 13.559699838554105
Ni 11.988804282481741 12.445040731978812 9.029590455385785
Ni 12.946397582843725 7.218967946392524 11.354912450458533
Ni 9.985638392406356 13.687848803280813 8.76196571798727
Ni 7.805454598168192 12.846196252692753 9.803223165891644
Ni 6.929893494401571 11.009305902833749 11.271137581000527
Ni 11.527606186548194 9.978015776073278 10.065448102802241
Ni 7.052612913692397 8.959185464366662 12.631444874187924
Ni 12.693944083558788 10.591161272284552 7.8385958328266065
Ni 9.039861810654156 9.997197728604418 11.437184257809104
Ni 10.967886348688829 12.379979138505348 6.89433010919627
Ni 13.37898524144726 8.729246748769246 9.328437486217014
Ni 8.56571869879393 12.284150138586117 7.581774324107226
Ni 10.76212924800027 8.001667350148432 11.505698052891782
Ni 10.193991083194245 10.720471922087047 8.252571909762526
Ni 7.96103883297706 10.572567903707307 9.138486691369938
Ni 8.526238711703161 7.502149747338338 11.662671192857545
Ni 9.463212031066337 8.604880428044877 9.488148574849644
Ni 7.057452790035336 8.767955281684001 10.30841511989034
Ni 11.326759629970633 10.158451249850195 5.972453081835478
Ni 9.241629564739169 11.148785355619582 5.69658784070675
Ni 11.416934146755336 8.639645474613928 7.785444544376374
Ni 11.604014871334082 7.162173888318501 9.46720643527184
Ni 7.341496161918996 10.35401649033836 6.8659977982361795
Ni 9.843042186304432 6.058923822256473 10.372792727114
Ni 7.548387341169366 8.319827902469003 8.033264386699674
Ni 7.760462459977445 6.621293720327619 9.57608629927755
Ni 9.345326872980614 9.059224315060645 6.787243066398156
Ni 9.651134471302338 6.9150269408158325 7.99336479653099
