48
Energy = -213.52430193 eV
Ni 8.86092555766686 8.62772303879572 6.938881305167572
Ni 10.90697629116055 9.303896285662507 5.770569270454992
Ni 9.164671282794874 10.917309538394536 6.378548046118895
Ni 11.174961762156062 11.697344869880663 5.520684678918978
Ni 10.557331995175272 7.000750950974011 6.5291330205868645
Ni 9.554772471287333 13.271942655025926 6.490274162964871
Ni 8.94412350758256 8.514700324521327 9.340131956038444
Ni 12.544681362659022 8.200136670047657 7.195905152421245
Ni 7.037711691376353 10.13286959650393 7.322057688903719
Ni 7.5753364160551095 12.454458941049076 7.375478381278347
Ni 8.710144969431804 6.495860005215021 8.077651008804336
Ni 10.773405885226985 9.593783604709646 8.103960404953492
Ni 12.555860482143501 5.871695913711384 7.452645157281972
Ni 12.640685119025719 10.572003047312087 7.040620445232082
Ni 10.446608119166363 4.982744735652818 7.9244595394932915
Ni 10.923303612592234 12.044349552593742 7.820121593623735
Ni 8.841101536054563 10.906864226374802 8.777316716555513
Ni 9.205382093569858 13.21259705020266 9.007783586481768
Ni 6.845174265909236 7.919870761993552 8.211796963853374
Ni 5.441336829516035 11.755795292961732 8.038024876036303
Ni 7.581175758606768 6.775720035817702 10.249070912492714
Ni 10.984184745890474 7.234769010498433 8.819398259755623
Ni 13.273329625149485 7.166804954294856 9.325634145309557
Ni 13.03362862285577 9.50551540832974 9.164984593629079
Ni 6.907027167169696 9.772689120150613 9.773549850813644
Ni 10.72121820947736 11.6605384555907 10.166523512665881
Ni 7.0527736774477106 12.25103749274871 9.71018403897859
Ni 5.511629986972947 7.9777733969583835 10.25825486369177
Ni 5.02561715175911 11.033978984393006 10.25395926165685
Ni 12.012550399536453 5.113306887870082 9.661657547249598
Ni 5.002414963371047 9.461112715278436 8.441981808646704
Ni 12.811542422944099 11.802695794076786 9.161601235158084
Ni 9.742583656409042 5.762525704032266 10.159118415528189
Ni 7.2631765015583545 8.516571070447444 11.841366436589697
Ni 11.040313167549257 9.161076607680055 10.43655229814189
Ni 8.941703841055952 10.171540341591534 11.12068007803345
Ni 12.60918631068081 10.674087534520124 11.301040363926232
Ni 9.469217919747663 7.666519718678501 11.567856904244284
Ni 8.81070519257256 12.506661258901778 11.286556246019988
Ni 13.393863953483882 8.475719952420844 11.295697068082173
Ni 5.133536853154902 9.510997582451514 12.035529898233646
Ni 6.841705889806057 11.138025291019447 11.840438330847334
Ni 10.610352515412854 11.042438902314721 12.512554689466178
Ni 11.681334650951413 6.887499795158634 11.168176573816982
Ni 6.846636403276775 9.783105185568788 13.750742169705507
Ni 9.131884095156085 9.256302335090117 13.30323835853497
Ni 11.412278909504913 8.766700993402534 12.688210895799706
Ni 8.502857578495602 11.500513829680674 13.442322708359761
