45
Energy = -197.53409402 eV
Ni 11.489767366692192 10.842618973092428 5.286792901426456
Ni 12.348032421627309 12.10964731562258 7.155203506975078
Ni 10.139961524711493 11.287499164068823 7.1456738521296685
Ni 10.202977012891632 9.099829948398984 6.157527018437331
Ni 12.151606158531113 9.775242370570828 7.253524002716798
Ni 10.56505797085334 13.182881937905867 8.48580702435299
Ni 14.833769332118932 12.125302458676316 10.413823207646397
Ni 12.87027846696523 13.014609895087913 9.289670178011242
Ni 9.919258937459162 9.385072660429076 8.515359356731604
Ni 9.152698928447501 11.4786929734229 9.377961516497011
Ni 11.32990134300199 14.808517456990096 9.942343488587177
Ni 14.773532179613303 13.128413462843092 12.61001466992425
Ni 13.70577782273245 10.808902095191485 8.76084584451122
Ni 12.308604138819174 8.882257064136537 9.41967925395417
Ni 13.909273697916973 9.644307364719502 10.869784198166359
Ni 11.467260086244371 11.121203670477984 9.287972170057735
Ni 9.148741891386019 13.803199032295666 10.360608028435152
Ni 11.223892515202296 7.615916577798591 7.710673127052722
Ni 10.739218540615187 14.745919083646998 12.236124726376131
Ni 12.973422841206474 11.649226902376544 11.604264595935371
Ni 13.128503294648805 14.157156942531342 11.29388923317263
Ni 8.898305788386484 9.39588354335548 10.639541545730236
Ni 10.44750132462424 7.6094458560149185 9.948775314177396
Ni 14.018790062091073 14.187186665252188 14.549923962340872
Ni 10.960320584328374 12.673862094097817 11.108357285980954
Ni 12.327021221246923 13.26780166673355 13.245438766175948
Ni 8.904208191674854 11.652337320801946 11.698414761155224
Ni 13.796274526569697 11.743332197488675 14.271210062005833
Ni 11.018430749461292 9.996019071485707 11.373605473786627
Ni 15.140036669090001 10.823541007796026 12.47961299891311
Ni 11.835004320016504 15.178243321937128 14.528680837670137
Ni 8.544931009350535 13.725154467931539 12.644965558720793
Ni 13.018532977951791 9.86099679237798 13.119381315806926
Ni 12.176458207965888 8.034225160754769 11.688872411061697
Ni 10.135121913810295 13.597368721967797 14.27118139266885
Ni 8.99978228591343 9.713685966331338 12.993751424347556
Ni 9.802776431722009 7.695974640205556 12.134287560941967
Ni 11.93581585218437 10.54601017249001 15.235483066736041
Ni 10.846036322375591 11.363942963319818 13.350566445482256
Ni 12.279493934255447 12.937959584999524 15.586183877537612
Ni 8.634895048583365 11.771581939634542 14.133181783456553
Ni 11.05594502900011 8.852544827644323 13.721531236404791
Ni 10.607898426859196 14.343002548457548 16.39034683523695
Ni 10.17357606577912 12.016877632334936 15.999511818280094
Ni 9.606580591224558 9.891878492453802 15.254926370434616
