41
Energy = -179.41596096 eV
Ni 14.932735495698394 10.022163273757245 9.808394108905139
Ni 12.812847093639855 9.318144178208415 9.136145872722992
Ni 10.942685647235233 10.700959922247742 9.25200958654224
Ni 13.309929171781912 11.716284081422703 8.989673676915762
Ni 11.422010917011947 13.03326856310774 9.55565113352434
Ni 14.989525942330475 12.16839085758866 10.80928487440302
Ni 9.188520308727439 9.930477921015331 11.04512783202571
Ni 12.131974886704489 7.27701452953041 9.947156272832641
Ni 9.11058026270138 12.089252127521391 10.060353585855225
Ni 13.694263276146492 8.455134067237971 11.174200402448554
Ni 11.375964433492399 9.076677174688225 11.147887181840145
Ni 10.837894931640733 11.470844908770278 11.426505291214905
Ni 13.04531825232671 10.8817438516337 11.067263521493992
Ni 11.566760895650905 15.253433769044516 10.384377331528997
Ni 13.677760220120344 14.032495667027543 9.987456010401354
Ni 14.873812660959938 13.99782746873837 12.312640020538936
Ni 9.995255096957374 13.755501441061073 11.464034294395626
Ni 11.750452992547073 17.319136172918174 11.53444503689565
Ni 15.081128937850675 10.083300855248897 12.188914417438514
Ni 13.33733384538119 15.633016756708571 11.902563201482568
Ni 12.415740363863476 13.27336791191431 11.693216864516412
Ni 14.454647161574735 15.605829164512224 14.158436880688397
Ni 12.798863902797892 9.640778652326535 13.078993652283602
Ni 12.540678218151868 16.95577890263916 13.712464335414744
Ni 12.774259088390513 14.07187807182927 13.8803584398531
Ni 16.24745918458989 12.05285490160728 12.940136220389743
Ni 10.372495348728942 9.881567077141986 13.208037658864672
Ni 11.023095150130162 15.435859821639268 12.699932753731847
Ni 8.953220635518475 11.862080011092694 12.637787798966624
Ni 11.626800496038335 11.919239530908964 13.605255080453228
Ni 13.928018449642584 11.963046231077026 13.088255731255837
Ni 15.164489884428788 13.361765411360329 14.601668327110206
Ni 9.736351564534331 11.459838188469705 14.910814665520325
Ni 11.902840113676033 10.268738327987396 15.185175822824482
Ni 13.441663688308473 14.334574014386884 16.083925365808398
Ni 13.203599388825278 16.634619294302293 15.896801896251969
Ni 10.10342207834955 13.647588551146049 13.878124885258641
Ni 11.354524524715176 15.374818896767875 15.136649694173185
Ni 13.385235988406928 12.08548493729096 15.416110693211573
Ni 14.514863405678058 10.259650316707795 14.553499423687427
Ni 11.332037469488089 13.04663557215819 15.79133153107276
