44
Energy = -194.32997036 eV
Ni 6.434528817823385 10.353382013610803 11.888944266176741
Ni 6.800878041120423 7.957339752550517 11.954386864893129
Ni 6.619351585599364 10.98722576975257 9.355625775646889
Ni 7.980241078193247 11.717885618441978 13.29975106906889
Ni 5.831052866790725 8.86128088424656 10.019306635501348
Ni 7.74663931504251 12.083309248565728 11.009516400055032
Ni 9.117412474093513 7.522823275578515 11.586572537538254
Ni 8.37208835433148 9.343995462552142 13.025338696089463
Ni 10.028984013957103 10.716879272676527 14.038247938936209
Ni 8.133577680369994 11.380511525943335 7.50012580994512
Ni 10.644511757699828 8.573356914998824 13.108873177602089
Ni 8.919181767519003 13.662945744674042 12.205815997886356
Ni 7.519382798931974 7.174881736212864 9.818468185780413
Ni 8.135419105017533 9.473887571291648 10.57767023644043
Ni 7.495115226271133 9.108179431809925 8.279548845087929
Ni 7.659492225603415 13.144616357499146 9.02342567455175
Ni 9.732189753774614 13.020464885291364 14.273299563182247
Ni 9.538728436733685 8.086447649645363 9.001123195159186
Ni 9.68753014234585 10.99899977068312 11.743498200918909
Ni 9.63194323937166 5.949174527690675 9.93771607781665
Ni 10.882198102281905 9.118682297160577 10.821602747666395
Ni 9.571033315420575 10.809047226043434 9.20680480075127
Ni 11.096270202638218 12.789290515985488 12.408321881148057
Ni 11.391449773043064 6.893118202406009 11.361893196707339
Ni 13.042955538317667 8.236385162027188 10.044409772884991
Ni 9.430083599326354 9.409891960561913 7.030935754921341
Ni 9.870831519706375 13.061965161698552 10.110943974651427
Ni 9.570885640286432 13.317630630435096 7.767146111840888
Ni 11.960261636525821 10.524855303204843 12.690551129208925
Ni 11.715745327679633 11.350571832355476 10.392903928033661
Ni 12.913098076990547 8.383555080483445 12.380489582041617
Ni 11.50213722662771 9.519695864195981 8.505307807879506
Ni 10.558280560539 11.403488801728699 6.9327627347820755
Ni 10.805296817813227 7.519694275878443 6.931472445279319
Ni 11.550478020772664 6.863299536688744 8.977759246819293
Ni 13.375692282321076 12.351255243643902 11.953867658665581
Ni 11.709320217639418 12.713013480717377 8.485548007372882
Ni 12.181797248994833 13.742732188237511 10.511495456861136
Ni 11.684069793457487 9.508124333306906 6.097464584950709
Ni 13.730738840415558 10.22090665941194 11.103901054760758
Ni 14.326232248595597 9.802327493833602 8.880218099703285
Ni 13.09475059785937 8.172490334261848 7.611561252008594
Ni 12.945315606701861 10.98855549376588 7.46213151852394
Ni 13.747558810596262 12.07017041369945 9.520572656605047
