47
Energy = -207.74838267 eV
Ni 6.15978329491927 11.791722323431859 9.211952737452812
Ni 8.314346286141781 11.99573243131289 8.134703941880083
Ni 7.397792818272132 13.618434154939742 9.799420368386059
Ni 7.053459212811055 9.880810418081493 8.165182382543064
Ni 6.523557813453384 12.159183990721509 11.66734500215167
Ni 6.541183456560028 9.966951588078448 10.604610111588393
Ni 9.743461724137596 13.358410291788003 9.591249689012606
Ni 11.639256294556729 14.58431309055408 9.208660928594895
Ni 8.348022218876508 11.52319354940838 10.463969652194336
Ni 9.300895160572358 9.974134336501923 7.315423509291165
Ni 11.324373700050796 12.559283955714218 7.867416280152859
Ni 10.943107622053445 14.332858183397207 11.418094382681353
Ni 8.671530272847109 13.565321952139067 11.776006035460188
Ni 6.672835814380643 7.894408743220013 9.518891472083677
Ni 8.479759815879783 11.498894153979652 12.965498861480267
Ni 13.471973628359406 13.599073208397192 8.356573783916135
Ni 10.31036727491444 10.997829861602105 9.221044359070529
Ni 11.673274235020523 10.167844918327365 7.207349635478583
Ni 13.368785638903418 14.19191372634782 10.866757501719281
Ni 12.387995410737465 12.263621879114336 10.219433217722267
Ni 10.361991386420224 7.988946775056197 6.533916236760435
Ni 6.778110422857246 9.983925223507534 12.915203255423837
Ni 8.38676400223913 7.787200577254407 7.834442006571359
Ni 13.342619296835718 11.231207861161566 8.389824177803746
Ni 10.849700044474776 8.58169978846008 8.65109985277563
Ni 10.48067199990881 12.023456955109264 11.57457071616177
Ni 8.701590855146074 9.199013819622095 9.650973481934427
Ni 12.264516207310267 12.913925801060794 12.74826539019527
Ni 11.800113897158958 9.843819147860367 10.510957021341657
Ni 14.899198674227874 12.490883181352498 9.74866040134031
Ni 7.839274767590247 8.227028688119475 11.720008130537911
Ni 9.651921494150928 9.870504299669427 11.693494725780383
Ni 8.947048026513373 9.11336087143938 13.689132515333108
Ni 8.565876531374496 6.65731351085782 10.044494390733519
Ni 14.323592003837438 12.244320692532384 11.952196160074866
Ni 10.704336750639701 10.89864811848265 13.650618656280644
Ni 12.731499893769271 10.584824109631015 12.491503242195591
Ni 14.138304906940894 10.377488876969213 10.513077111115877
Ni 10.291207442026588 6.362789042071649 8.452758464017139
Ni 13.198889590747928 8.900201932289999 8.877743220536876
Ni 10.45458197467842 7.8204601762504 10.840963973259027
Ni 11.34173541374127 8.687688472250414 12.96528780797165
Ni 9.585626846008939 6.9157951916218465 12.723428409937606
Ni 10.467577036771583 5.469222463388627 10.70823686213786
Ni 13.289975288933164 8.355360957220407 11.431227011416896
Ni 12.266197897163861 6.871438960198498 9.79695768465337
Ni 11.954338928364274 6.53437522272002 12.192652737277175
