47
Energy = -155.13938245 eV
Ni 19.948633901608467 0.03227675246644314 14.089150765448471
Ni 19.720771890051818 16.501569464701948 20.65650786769478
Ni 17.948307773141483 -0.9358812565152209 14.212841296510629
Ni 17.67546001295457 22.30236914883792 13.643353748280653
Ni 15.420365805061858 23.308526910654038 13.539984591413415
Ni 23.482116137058686 13.469747137770346 13.524349251588548
Ni 17.03368335684297 14.05925368086779 12.065815444535398
Ni 12.590179801704522 21.71348542142163 16.02891970431094
Ni 19.994595026914084 23.376067369199333 13.79723977444798
Ni 21.409615400962526 13.918438011808009 23.468148939279526
Ni 22.255408898759498 15.470965616988783 13.197737574193928
Ni 23.47347933257367 17.421433706106804 13.283812934114307
Ni 24.39221765875748 12.50643806965013 24.560763967173386
Ni 24.63181962851353 15.427254003820218 13.50511223477355
Ni 10.191997810700295 23.851481286986626 24.895159791862998
Ni 19.751061469327066 21.174230843377465 14.018443366847723
Ni 21.401648292217843 19.938638279542392 13.17495454456069
Ni 21.866755763079322 16.78002800963846 20.625552666768602
Ni 13.158205527746942 23.40998487782149 14.454298034552247
Ni 13.400387725528988 13.933186280901756 11.098220188393093
Ni 14.261058680593976 18.460481525657844 20.5813340288636
Ni 14.559025511838378 20.536050468372075 19.606937954893617
Ni 19.649503691846245 12.880617818120024 22.181188538328193
Ni 12.662062374510853 17.746837632642634 23.35325625844933
Ni 23.903334393587098 13.99492590261529 23.012454747327375
Ni 12.747986078095716 21.459255511118027 18.344682669451036
Ni 10.668687192610744 22.40386944005079 0.6845379510991093
Ni 16.695170229028285 23.141436804352534 15.565499849038638
Ni 14.444896832881929 18.6139002547324 18.343235276117277
Ni 14.734566824894845 21.94582245571697 15.25797590729631
Ni 22.646365815670514 12.1365255197918 23.288570038577763
Ni 17.584076423562543 12.578746552075344 21.515502014613855
Ni 11.102374072924713 16.601956663730316 24.285633961673152
Ni 15.61894168556734 13.013410902586408 10.812800298624133
Ni 12.480939835159932 19.30064734327161 19.464465505663313
Ni 19.915323881062992 15.102287376241444 12.79343814047071
Ni 20.77406150932933 14.693025391176194 21.453380301729382
Ni 22.63236846081068 15.683590727847541 22.438454080665995
Ni 21.488852549564342 13.58471961046778 12.381548952517521
Ni 15.414723923200317 15.164974555087808 10.800461554866342
Ni 15.689428194539325 9.729422260034138 22.708477349876087
Ni 12.348814765608662 17.61676511106167 21.202544861994976
Ni 17.41051083702025 10.80290956300893 22.655174925285724
Ni 14.68705661992254 20.700112356048333 17.212395726331614
Ni 12.61054002171811 19.597831435532374 17.081362768403224
Ni 19.14037959586233 13.48875120405441 11.390104514566575
Ni 21.212730197293027 17.607431627232454 13.436084174022348
