42
Energy = -183.70993206 eV
Ni 13.103529099892317 6.718974151655681 11.250088164518479
Ni 7.600192854523088 9.99589224823199 14.32645662462325
Ni 9.48464044403731 8.674874666543793 13.629864035142402
Ni 11.176336631441114 12.449905890613437 13.02207015821139
Ni 12.932027357704044 8.993676070680456 11.80234240974647
Ni 11.562320619444794 10.034151700469868 13.483129138206497
Ni 11.267632189022471 7.571488328184073 12.537889559376294
Ni 13.010578800262879 11.285105627651266 11.994415847746968
Ni 12.843553016216118 13.652270171599744 11.770691633638203
Ni 9.35415984929724 11.011844015163046 13.236241570142559
Ni 12.882402762115634 6.6478433643698285 8.860516578812907
Ni 7.116245134766337 11.618496094148531 12.617889271305566
Ni 8.89683781014087 13.142496427525046 12.242019693326926
Ni 11.534496769026704 8.190180724589878 9.90390040101384
Ni 9.224554103451323 7.533111630650198 11.44671298101313
Ni 10.926645601822115 6.054127311390199 10.609887609640861
Ni 7.844872472659965 9.393101031021022 12.076562271333119
Ni 14.166928484906316 8.37460116458256 9.929505259038478
Ni 10.692785219252915 14.432942945205262 11.68374277703985
Ni 11.172865995713432 11.993661487673112 10.735875206230654
Ni 10.47812675661316 9.651103033520004 11.493645732445524
Ni 8.316616367536724 9.054242121072384 9.838709779448084
Ni 6.53334893195094 10.638480576159687 10.487090532487159
Ni 7.211554113624613 12.924541539547974 10.51307570250071
Ni 9.484124839375026 7.23023206696044 9.088048264099381
Ni 10.932585558575246 5.552849268595226 8.290480089673762
Ni 8.844717466478365 11.262232573741596 10.806354107559455
Ni 9.48625147542357 13.465328405019584 9.882401602741764
Ni 10.31635969100336 10.266492736811054 9.106805400232686
Ni 13.489968528249651 12.47555880466632 9.891213599117389
Ni 11.780634612345047 14.083804763413665 9.588371723963812
Ni 13.136092973435709 8.866393790867527 7.923211021989194
Ni 11.719416633425649 12.069531889315185 8.315274134055342
Ni 5.937443752739701 12.16015102110778 8.726540507220431
Ni 12.703330232490249 10.297452653356837 9.739515168809081
Ni 11.113063547642403 7.791498080066973 7.534957344169155
Ni 7.898838220587711 10.9580200710697 8.56524280856929
Ni 9.142258040560852 9.154619183452088 7.477831762803057
Ni 7.973613311983493 13.237457939053701 8.140892490749367
Ni 9.626903698144014 11.672243768834418 7.222237640620396
Ni 10.269253719841842 13.873935921450451 7.7329126321347355
Ni 11.35345309779313 10.086645525486173 7.016947550020135
