49
Energy = -217.06861715 eV
Ni 10.679059755128643 10.103583208804293 8.213639118618268
Ni 14.734437956309245 12.69984051911076 9.053178221097548
Ni 12.581928826003715 13.812627696807983 8.765227291745461
Ni 8.8706413521145 13.041478632308753 10.638015078887857
Ni 12.78403726375333 11.48401047685361 8.19047825252997
Ni 11.957472668844668 10.282835696843986 10.089397590710083
Ni 10.810905265771373 12.357117963998597 9.24238386967198
Ni 12.829222856925982 9.084234918236161 8.271498878065463
Ni 14.710974815668457 10.271005648327119 8.968400433387659
Ni 9.15805592162738 10.85479829315184 9.864172143125055
Ni 8.662012288521696 11.168975252629833 12.24376415412981
Ni 16.50322734608383 11.419310815929618 10.055073956835448
Ni 12.505610277939097 16.06065977954491 11.732819886950683
Ni 15.510756556822312 13.112532176328678 11.296060535161418
Ni 8.62521320214193 15.186134893510687 11.694089304486845
Ni 10.837966545073145 11.845856727758054 11.577656742155414
Ni 13.551355983876526 8.69753503851946 10.61141685946141
Ni 13.047081889466744 12.333658659068004 10.60579483799227
Ni 13.879524391919063 14.594557437454162 10.484713381418112
Ni 14.588001964888685 9.786062987675436 13.435283139674553
Ni 10.297861677086468 16.58202242530376 10.940099667529669
Ni 11.317500127073755 8.08645232959821 9.854458860984488
Ni 10.907006229987465 14.4108287521832 10.513981411440746
Ni 14.665825198727958 10.657336230859565 11.204906987726476
Ni 16.389921067351253 11.255814395072594 12.610047726425925
Ni 14.073329231516187 12.271542059664228 12.99106535914391
Ni 8.450961653277702 14.902246615165108 14.078832820661304
Ni 12.577265358729933 10.460238045613751 12.445450794200884
Ni 10.13846302605475 9.457118857583993 11.412435133353426
Ni 12.316792382044241 13.813183463628642 12.244260093381207
Ni 15.672377184474723 11.440362270407844 14.859164979591318
Ni 9.878269285358332 13.53376000209664 12.761799934644403
Ni 11.916085546172097 8.225153552877646 12.235693367193669
Ni 7.578529899222322 13.182644485662177 12.773981795211366
Ni 14.454592058673898 14.758619990958202 12.809715900063292
Ni 10.61790974874969 15.688581483839005 13.0906704555144
Ni 16.23420799618647 13.363750226182495 13.573773389644838
Ni 10.406425510087775 10.232175947317204 13.568358591842086
Ni 10.42737928567494 14.195619198668991 15.035386466182532
Ni 11.681360926435968 12.322232481693362 13.898631673168985
Ni 12.527171153449109 14.843371636459619 14.269753212990727
Ni 13.38995945707572 11.084345129382422 15.065948170103095
Ni 9.21931754401741 12.106951750004868 14.488748898578814
Ni 12.31750494343475 9.131078275177547 14.39972659081414
Ni 14.342351624224 13.517754406936463 14.98972228666908
Ni 12.244457990982326 13.061952057578404 16.071853969656352
Ni 9.955829783902722 12.609638743501673 16.659130803920153
Ni 11.13538351438242 10.884057961497515 15.699201757755961
Ni 14.431664359088655 12.1175412945456 16.813326117824833
