46
Energy = -157.87178286 eV
Ni 20.163276710879913 11.714572581241265 15.469813603424225
Ni 19.897459314660804 14.798722667411237 20.9819521206547
Ni 22.466685088561086 0.5797816210183325 13.70479902255884
Ni 12.685993208352006 24.037006639460376 14.931573207246673
Ni 21.282394637926764 18.477728332397373 22.685123480685316
Ni 17.122656207413076 13.17969215483622 18.066887381657036
Ni 20.810270080153657 20.244251393953274 13.301804938349383
Ni 22.153864126081224 18.456102261984714 20.61354642304306
Ni 11.484335420287607 22.11392437384238 15.750015194938449
Ni 20.86259455750256 22.261758949410456 12.387664461324306
Ni 20.035431271713882 14.990646627071458 13.286130362303906
Ni 18.935680338213775 12.119046007967814 19.15170482901516
Ni 21.830547512758407 23.519383177507834 13.834442615712694
Ni 20.188437508606775 12.607825779427767 13.316475826042728
Ni 14.436564027550968 15.795462487691594 16.800033113574305
Ni 11.949017570370415 0.7638840541327716 16.26764914419694
Ni 20.101196380855615 17.157216556104387 14.080640057029441
Ni 18.275723479982453 15.774707794276146 14.61720837426489
Ni 10.510129650307821 19.11570274771228 15.129651829530953
Ni 20.278031125511383 17.07819793628556 21.201090363526788
Ni 18.589978898969196 16.15677731662135 -0.40567669529794015
Ni 19.110246310165493 17.988186883006023 23.155911462594283
Ni 18.86705079269438 14.489463647051553 18.978533135983643
Ni 21.474392241204292 20.52597182731066 21.524298293482463
Ni 9.490116557511119 13.930394856988462 14.202633725625974
Ni 15.954248749686641 14.07186259808885 16.14418453898504
Ni 12.141000178890861 20.4339141980137 14.359330166991183
Ni 15.317570235134447 12.173092729587228 17.258899653362636
Ni 19.80394352843985 13.184013265421104 17.31461844838213
Ni 11.053863458427323 17.015213955409735 14.600797642772049
Ni 10.37535055797693 24.083920641040333 15.725368864339663
Ni 18.212382441296075 11.545412776628167 16.804959758806284
Ni 13.66216292203846 13.679493305549432 16.620013216262727
Ni 9.204064787814998 15.989664462683798 14.784315985388877
Ni 16.356709402350596 16.272541844280298 15.82828527520582
Ni 18.07204316481696 14.988699632675013 16.837018581155803
Ni 23.666449386501647 20.347886872817934 20.876567685770343
Ni 18.622121497953103 18.286224277203733 0.40920757994800405
Ni 19.7934252062739 18.555648121355983 12.345458826604341
Ni 20.26877652388402 10.86592146506719 17.63039490238361
Ni 13.775788593125963 22.053972923531223 14.82220789208341
Ni 19.386171162917176 13.869130609067978 15.158478090823339
Ni 20.099862791637886 19.74994197681386 24.168033466610687
Ni 7.858940021681426 12.540586376059839 14.254783674996112
Ni 22.985531630081905 22.461708023633363 21.03574620010769
Ni 18.414289428820013 15.918621153957156 22.277561398190247
