46
Energy = -150.67034352 eV
Ni 15.280181920357075 10.34756273306609 19.939176448891576
Ni 14.842555334343725 20.181915834377076 15.659126102613294
Ni 18.654962429349023 13.056145708907525 18.22015972477408
Ni 16.06718103753071 19.072396583273513 17.33112279151006
Ni 12.137878339416117 8.114025237439325 21.015678942286225
Ni 10.940122806883899 9.356912260501304 19.68062439571156
Ni 19.379568681865027 17.00246384083583 20.803225553805195
Ni 12.639431491542513 15.769139196531896 9.489559502035897
Ni 18.018504650964275 13.357058751036664 20.5404590620525
Ni 11.120976697079385 18.41342838545919 12.198023148804902
Ni 11.386032545977594 19.1541300404791 17.54261029612593
Ni 19.60711301156714 11.99273879845743 11.215375493941663
Ni 19.831505074308154 17.409544355130752 18.64824083495194
Ni 18.285049394407682 18.859638885487403 17.115082328202316
Ni 21.43898993412775 11.831694878657512 14.704918722207232
Ni 11.098937564422055 17.413059560312988 9.88469608544259
Ni 14.009367148952874 15.012683361684878 11.265083749600715
Ni 10.066403590119673 18.254612671968573 19.21639667350178
Ni 15.871380073930899 13.63488753853146 10.843542167367808
Ni 20.652052537754937 18.48722153246729 16.814798137400633
Ni 11.471742078691953 17.289243915494886 21.116874886322798
Ni 21.015923462336126 20.760074680047534 13.580472300130756
Ni 18.594425085004104 15.1630956500257 21.677475459181498
Ni 21.769355920887463 19.435994130886794 15.121582919405176
Ni 12.475261350012744 20.041888989786262 15.681871628677479
Ni 9.32192588147321 17.27928780350304 21.030886412643373
Ni 12.509407142946202 16.61712222330159 11.715576257200574
Ni 10.986314747277568 20.196278440948113 13.96887983307799
Ni 14.278384081818606 8.653155796639483 21.103776029015194
Ni 14.311672289002049 14.25188810824715 8.988597420529212
Ni 17.08346936036946 20.12845087378664 15.502212846833016
Ni 19.3054250520647 12.298314104802643 13.650413738050217
Ni 16.089653856637117 13.00154290549257 8.504808196102454
Ni 19.11931981451553 15.150975096380897 19.29581736341477
Ni 9.730244260020093 19.15064268480598 10.360400439268636
Ni 12.536622541243611 18.209620625341316 19.407729211007865
Ni 12.993866634359444 10.128669768722846 19.52593474311811
Ni 17.08741234515917 11.575043408773881 19.271811465075974
Ni 17.748762886008898 12.44254301216682 9.855910219117531
Ni 21.39064877315358 11.79159711446461 12.498191758939843
Ni 13.704918220458163 19.12059489732601 17.500969279605048
Ni 18.143527955407915 10.967022575492331 17.359394354150744
Ni 17.6191724254282 12.867163858540206 12.216697500350836
Ni 19.42605442476283 19.917770004868206 15.196029299797255
Ni 19.791589174926063 11.839629346598281 16.185858466806604
Ni 9.659132151802481 20.313735027268844 12.214014566283202
