54
Energy = -222.07638565 eV
Ni 12.87697222208074 9.015308878585115 16.11808599639898
Ni 12.657387220604749 18.211898706875306 12.442975612632253
Ni 15.356109865186168 6.666995469396247 13.38621174137094
Ni 15.873364204846057 15.153232170335391 13.106381322002072
Ni 12.697943501432471 9.879983357976581 13.896792792722357
Ni 14.41202673865535 13.683478908852834 9.563160548299797
Ni 18.23928872614032 14.413147159161221 10.09465308399779
Ni 13.236750080650532 11.986582271999719 8.418044163103247
Ni 13.668232749216404 7.816698927391173 14.394811442154449
Ni 9.772763607464837 15.847827531283858 14.311810294117405
Ni 9.001345284458829 10.028431976128497 11.190188981434618
Ni 16.57696819228968 13.354626545231216 9.04272443285859
Ni 12.608594798252382 9.469554905246609 11.51148288929975
Ni 16.075200238806044 14.803180979637405 10.810707753316406
Ni 11.316749397141114 12.734120703230317 16.440742647632042
Ni 10.811813889929468 8.911406798432465 14.9339508205271
Ni 10.98586889456177 10.40232763398082 16.717361084329877
Ni 11.108181609668357 14.30042776582377 7.590596201642093
Ni 17.543994710055852 12.52056844752366 15.651776714057213
Ni 12.235967251423046 14.294020070568047 12.252909074050011
Ni 9.220285943232803 14.064252513226597 9.135042218103042
Ni 15.73574659067586 14.01310587928848 15.169668875559632
Ni 11.024452411611493 8.08232338666571 17.04427948782977
Ni 8.140270324579376 16.27216737319969 12.66366805674274
Ni 10.850672214126567 11.276970222864573 14.54549612479175
Ni 10.045412358620698 15.220154609360135 12.044392093126831
Ni 12.710998219250998 12.564928822218455 10.544658473017629
Ni 10.87117426240357 19.58773283705487 12.351078735171818
Ni 14.429819627793188 13.566893082214884 12.02149722879198
Ni 15.312774933657142 11.927650779378762 15.987795828894951
Ni 11.019130142788692 10.735895769357263 10.482900259073478
Ni 10.355658864939121 12.927424993626715 11.527810390276573
Ni 11.62162060611588 14.687940042813539 15.21485838956704
Ni 14.766913719310836 10.005422802174568 14.833928927761233
Ni 13.06893942821234 11.31252255273665 15.987451357505114
Ni 13.609402480219462 13.652246811717585 16.238452656811553
Ni 11.33935497774681 14.558210609697202 9.975399367821806
Ni 8.831178875466561 12.031197939921617 10.13602460152112
Ni 11.794602941381664 16.5077318422208 11.17102035938282
Ni 8.251373265476277 14.122171404362968 11.190265916046275
Ni 12.70213035962486 12.824547007650443 14.245301442723418
Ni 12.035771036016852 11.607399691056948 12.46176223469756
Ni 9.040936038959144 15.234779477885672 7.292484104692278
Ni 17.668444910227212 13.916429868437005 13.834548914142422
Ni 13.944273035893092 16.08656214553056 12.098398435108647
Ni 16.942802205776367 10.238743241407851 15.476931080947042
Ni 11.976095223527487 16.339353676276527 13.591753598190735
Ni 15.87695016674244 8.075677353035177 15.157589432453749
Ni 10.647629005702258 9.645119874963346 12.735047698949618
Ni 13.808716648110503 14.91122370123575 14.153676993330304
Ni 10.988218359055125 12.417981631545143 8.863185954323555
Ni 13.639047845026262 7.5091779530925455 12.181601011828523
Ni 18.015233663872753 15.39213098473307 12.141394089086747
Ni 10.133822430717833 17.53681797607992 12.66251420202784
