55
Energy = -245.39293337 eV
Ni 14.477853555132626 12.21444441655895 8.161959517715376
Ni 16.48532168514644 13.295693168682385 9.020975064784427
Ni 14.143759757758804 14.27803156616522 9.112508216947946
Ni 17.53381533085845 11.985233286726324 10.769979912071149
Ni 10.036775945902562 13.650224296403469 9.26521441911298
Ni 12.182775802184644 12.945312897235956 8.639205924483484
Ni 11.972227878883658 15.035674056542229 9.82377023859292
Ni 13.153778627565805 11.03650496447131 9.646797422685058
Ni 15.948661222874156 15.535693582230428 9.904392471736987
Ni 15.451218050204066 11.277636887215307 10.094148634381849
Ni 15.45366144098136 13.534871782138252 11.025708697944532
Ni 11.679975502421312 16.13830857004634 12.16124739253929
Ni 17.62547442662988 14.337451719440246 11.150731359094275
Ni 14.16296909373115 9.560503612071594 11.268485404875925
Ni 11.781873217244863 9.373800529654265 10.374325416972827
Ni 13.03902703867227 13.057291892373007 10.928877278199662
Ni 13.826596246291428 15.390966101405414 11.248265592557479
Ni 10.77496752277167 13.916972156241986 11.415384549225537
Ni 14.597976132416337 11.807899887937813 12.351911258630759
Ni 15.98406659358991 15.824918689195037 12.249185543293237
Ni 10.292234188894273 10.119721783227172 12.077218539884875
Ni 10.897837071964844 11.753841847513787 10.383969281883436
Ni 16.324148713737305 10.357274785650272 12.19588589448909
Ni 10.999251841849931 12.342310408886698 13.344513491925472
Ni 9.141163100909719 12.280490511502974 12.038930490769069
Ni 17.65053735985558 14.759262973924102 13.507191640682798
Ni 10.117089562751723 14.73395623103064 13.428548648316578
Ni 13.259635272063273 12.193439184893538 14.364392505815326
Ni 10.001492942139992 16.984316821151864 13.84987670097485
Ni 12.453147703110545 10.977503059639506 12.08301068267946
Ni 9.289905916251053 10.855591307465673 14.053820336098115
Ni 12.275097945694501 8.590438752746305 12.487367067552487
Ni 15.644978181372021 11.284380865519635 14.41348489788266
Ni 16.929140154283196 12.621373165843607 12.905058646419885
Ni 13.854956470583701 16.177769550035997 13.469272406243839
Ni 15.818306577198673 15.76387048387728 14.651463630511184
Ni 11.620151374816277 10.082241808143598 14.160410592627674
Ni 9.156053395705863 13.080511639201406 14.801735866078964
Ni 14.975603209937454 13.96962029007949 13.351100987975945
Ni 13.958876968660308 9.847945915860231 13.70260078297041
Ni 11.49383700942509 13.769931870251026 15.157109945006864
Ni 11.903886365885164 16.04402703034575 14.681347034835317
Ni 16.408626221958162 13.491237198440912 15.092366300205981
Ni 12.612928882050754 14.150031590183795 13.043057352257616
Ni 10.828901210117184 11.544615872797639 15.762069512425185
Ni 9.987587202182993 13.389495569321292 17.038937181194886
Ni 14.771968594685635 12.390306079648035 16.260814222582166
Ni 13.047020304816309 10.601730542258375 16.069483272683264
Ni 9.787571237093323 15.391184098959556 15.728639251078128
Ni 12.682009041104601 12.842213853931403 16.964297690572533
Ni 11.214508491148965 11.467593041300164 18.031510389856216
Ni 13.788909113925925 14.503277919485907 15.392804296955667
Ni 9.990106623999573 15.454394484458971 18.1171940435254
Ni 12.00244427911838 15.194146135087829 16.94649811823003
Ni 11.443323391282687 13.728530256437702 18.766954972801848
