5
Energy = -15.30576536 eV
Ni 9.817141812806039 8.162083921186417 8.152674076325923
Ni 7.884983721245052 8.585728127963309 6.693046483115929
Ni 5.798539277061217 7.629545490315998 7.6281425092871045
Ni 7.59925181151173 8.40022511791151 8.962166660177871
Ni 8.006590556955727 6.531536007666465 7.704763396801682
