54
Energy = -241.66355531 eV
Ni 12.48404167520651 8.659154160804219 12.04698011083457
Ni 13.52188281038183 10.613773531886858 11.113881196838626
Ni 11.365133104051331 8.610158800673194 14.066804323678747
Ni 13.941241498065681 10.519646058462126 8.71421027122772
Ni 12.512142854096146 10.75750375483284 13.497201505599252
Ni 13.467017055081664 8.375873160010379 9.805708931691871
Ni 14.078837359066027 12.723695482556515 9.80147322734364
Ni 12.677471658167493 12.842673066548839 11.840648999640607
Ni 10.636115867578482 6.849361472970849 12.644719321596693
Ni 12.430051271186912 6.56030847751067 8.446103762344169
Ni 11.343475685801124 7.240132365647155 10.396324361888217
Ni 13.225750809455192 8.566040854536652 7.395091023618191
Ni 10.031049013491316 10.443576300726338 13.920891469004479
Ni 11.814405498341504 10.540771741182487 7.84801602865691
Ni 10.728976905654541 12.685430919288025 13.379969805242679
Ni 8.97026535363997 8.237963311301613 13.765625705369533
Ni 12.932068427798086 12.592367428163548 7.625236949804783
Ni 11.538427843068916 9.597900178143949 10.008993094450593
Ni 10.383817303350519 13.315323561617117 11.062765815994663
Ni 10.08806841018605 8.968021077413486 11.848634596598446
Ni 13.376383608830041 10.626460729158115 6.2119931908364
Ni 11.890550165860441 14.113506280859756 9.336994384871623
Ni 11.155583725883439 11.0600233040414 11.767761384201872
Ni 11.99182669470767 11.906801936887074 9.735253088326832
Ni 11.014648866158485 8.339808666733084 8.152264842341168
Ni 9.835633912303836 6.448503553552153 8.555859116573512
Ni 11.103729562917044 6.828828663196795 6.448679548064814
Ni 9.014758227035756 8.131476067323906 6.938129640307048
Ni 11.305538819800132 9.155020404846079 5.9296054800508475
Ni 8.468875583695961 12.177144120197742 14.231176417626392
Ni 8.226126643957814 6.235868755798215 12.822830560950308
Ni 8.851472587012074 11.285985051819136 11.990798424078735
Ni 9.033045720478007 6.909790237549982 10.780394719858357
Ni 9.693091985417642 11.285546642351092 9.766905145452856
Ni 8.674566099234461 13.767760194554752 12.609650518888568
Ni 7.763482658567199 8.956276452104872 11.48020636293328
Ni 6.641042551691109 7.978124877177613 13.258082350416379
Ni 11.156769648879646 11.540264771060654 5.83063117436335
Ni 9.520123466041262 10.400400414525958 7.4741827419045075
Ni 9.159827973671261 8.999831901229486 9.51359621165499
Ni 9.440397617142628 14.218626962379766 9.111327290984143
Ni 7.547857289595287 10.130700761778689 13.652689220103674
Ni 10.48780476164696 12.651173666959663 7.852880585302366
Ni 6.688840097172731 6.915405185531567 11.082047734683155
Ni 7.61895894851681 7.392123206660044 8.85138388831225
Ni 6.776986891327526 12.133430663017117 12.39139619726801
Ni 9.243366496758357 10.007332679180285 5.233356553490899
Ni 8.0067194445048 13.039266925731463 10.505427043993905
Ni 7.1583964638342445 10.895818988351882 10.175426195619671
Ni 8.065248844594699 12.188708215586274 8.296114204765228
Ni 5.770753117704855 9.97586297453597 12.031389619309598
Ni 8.889531560498472 12.186102288504067 6.087431551002807
Ni 7.382516123195064 9.693451088629184 8.106861260517825
Ni 6.007365854538271 8.843959994889897 9.894319099653801
