5
Energy = -15.49733673 eV
Ni 9.685456744044586 7.369951191405219 7.689056330471307
Ni 10.058597941027237 9.580066956624409 7.937370717154039
Ni 7.861055540613051 8.819193842066692 7.823979655273381
Ni 11.467548622137926 8.074655917112423 9.012832598728627
Ni 9.242189018358081 8.372244101925375 9.654607607378399
