50
Energy = -222.03602555 eV
Ni 8.94235896059708 8.849154927308968 4.4471727720934
Ni 8.857183965061154 11.418045182439332 5.851883367713661
Ni 12.726715662351804 6.708715960320024 5.896037380525321
Ni 11.898203065236482 8.985554412506994 5.902435014197426
Ni 10.197560882210436 7.078782034169831 5.524458798962803
Ni 5.6883303097256075 8.083181301764077 6.741922432237309
Ni 7.101142540743707 9.805831068510228 5.601343908144529
Ni 9.478851369600477 12.661625393883 7.909071521505765
Ni 12.985569834765782 5.919782687206971 8.222838637801791
Ni 7.9640618581104885 7.519560383311522 6.223205169627273
Ni 5.342821991499597 10.384772772580925 7.219844687715553
Ni 11.029923872566682 11.229251158527727 6.707577513636054
Ni 9.580291207966392 9.334145734431447 6.539078155575216
Ni 13.19513278285428 10.65543340453623 7.532439705080166
Ni 11.135504026029468 5.069775482924319 6.866330416000198
Ni 13.438055822715516 8.27766368345286 7.732824618398554
Ni 7.282556876942394 11.628893184583626 7.543364769731075
Ni 11.25690386392318 7.218336338266066 7.531689770621258
Ni 5.322688179159539 8.867489671933766 9.053856392440814
Ni 6.999583759160677 7.0619489808195235 8.49889224228089
Ni 7.405277706471859 9.267782160946137 7.789682787306612
Ni 9.002280921742155 5.877983826168753 7.636582899384734
Ni 11.37692228739549 9.422015398625948 8.155999923812464
Ni 7.771813812497158 12.458554450916557 9.681809937640942
Ni 9.25400193387583 10.52177820556642 8.737368952192538
Ni 9.333998129420424 7.987751671723996 8.497352986211672
Ni 10.752907097368691 5.795186250741103 9.300046459782829
Ni 10.028936059917989 12.908450246030547 10.280160370307547
Ni 5.4493320508650545 11.512105285168014 9.363609327435837
Ni 12.272736833140259 7.637633439847648 9.780510994841705
Ni 11.484246061346466 11.63135454573256 9.060616493541351
Ni 7.129434098907613 10.16512321535255 9.89919831456293
Ni 8.52358772814047 6.22958034432777 10.131346486579137
Ni 13.0241190902049 9.920139403552124 9.863904724495523
Ni 10.717937891547678 9.412500518279858 10.341810738848276
Ni 8.63572426007261 8.517375892152463 10.541694416897428
Ni 6.4610963799406385 7.671860078188536 10.79344076777789
Ni 9.04972929293106 11.033257527350774 11.173925763499012
Ni 10.467655279832965 7.1843180972149705 11.286731663274999
Ni 5.23001629739818 9.760050810726815 11.31102111399997
Ni 6.674881930533154 11.734898731838166 11.68689079335823
Ni 12.218885820622711 8.816552051128747 11.920000507339617
Ni 7.436400547220284 9.540563567018623 12.176397100933652
Ni 11.43033609236977 11.200345410216109 11.521205668028196
Ni 8.264919191377063 7.262519134452305 12.457982517717209
Ni 9.888705687215813 9.263059248464247 12.64466079679295
Ni 5.964886727067739 8.10865779637579 13.124028565424522
Ni 8.424856019375644 11.156958656400928 13.481835272180408
Ni 6.053661583691935 10.478198518256848 13.695955165596539
Ni 7.995805055402707 8.91403445287367 14.266493915062053
