52
Energy = -233.23520419 eV
Ni 7.917072192486573 8.576064836380858 4.43207470709623
Ni 9.73866993752437 9.899784769122391 4.810552709197673
Ni 6.999520098156096 11.080662197421237 5.2638474132917965
Ni 5.91969219236702 8.82291115343964 5.6584352848057815
Ni 7.550661986164126 7.051864839317378 6.1628445626478365
Ni 5.185772394737013 6.755992262125242 6.669577594407506
Ni 9.831066881678652 7.833504406202541 6.198960744372129
Ni 9.20473450458531 11.737883161290505 6.163232798617642
Ni 10.689596805625566 9.959392788406156 6.967661778340817
Ni 5.602334500859157 10.604023652702706 7.163212032545027
Ni 11.311090705806086 6.0175700533013226 6.642523955155102
Ni 8.108682979416255 9.608040345862142 6.531113036809114
Ni 11.336832345325563 12.165817636757982 7.1947530429495545
Ni 4.256398422960372 8.698338088347946 7.475258227310462
Ni 12.3444685293776 8.219984325900503 6.935619778718188
Ni 6.715928847472139 5.600521483757923 7.924362843320339
Ni 10.852916536473156 7.466330261576089 8.459361073888417
Ni 12.816957617090326 6.139176300875237 8.42176101223761
Ni 6.637581010250404 8.261263138882082 7.938660955325035
Ni 7.263990956309209 12.308855425973452 7.43135513448771
Ni 9.037595565501576 5.422790641740742 6.9395970869002195
Ni 9.456771930559018 11.622002182103284 8.5083956888744
Ni 12.796764667221515 10.347900233639383 8.058003548667918
Ni 9.07020215446528 8.989290866644074 8.492173135821162
Ni 10.619092691444697 5.1449444870601475 8.805022918409561
Ni 5.122890694185528 7.037869492087115 9.177591308216309
Ni 8.56645777113334 6.744134389641644 8.757084724946171
Ni 8.362487862911328 4.420972072389363 9.105141502233908
Ni 12.945228591523316 8.271763798303049 9.397414632910216
Ni 7.644865408430575 12.429615965336223 9.9603979604552
Ni 7.283635738926682 10.438976098770869 8.743194886101442
Ni 11.670302363051384 11.994189540835796 9.52036179628499
Ni 11.057266125224158 9.740422759503273 9.480778095359675
Ni 5.704458377116292 7.810136467533752 11.474111956554362
Ni 5.475998968438863 11.86411397703664 9.189170403561048
Ni 11.697521021210111 6.463955112214144 10.534854254973133
Ni 13.064078617599362 10.36753211158071 10.51045947827893
Ni 7.402423970920386 8.468494357938921 10.20922993886719
Ni 6.972970543437841 6.032005843819623 10.367892219264132
Ni 9.770667520581135 7.965366043362271 10.580927664308083
Ni 9.400115763535075 5.61206267912216 10.863562724178456
Ni 9.792156919883494 12.699952010206786 10.702765533229487
Ni 8.917675097962622 10.315826777632202 10.523123004425852
Ni 5.191007625822929 9.429409934538933 9.509577642122734
Ni 6.493508650272031 10.669033387701182 11.053993322764526
Ni 11.84469610681442 8.629549028379664 11.608624933949393
Ni 10.966633389626407 10.889664979347607 11.6599991679102
Ni 8.078952440068175 7.206636861440946 12.161710601166323
Ni 10.462502483980412 6.90398123131501 12.571944458268096
Ni 7.2765942841779445 9.338601537052691 12.686123273008477
Ni 9.616652573517138 9.16653585225481 12.630326451222926
Ni 8.61433896742689 11.414772483457782 12.431761332875036
