5
Energy = -15.31945253 eV
Ni 8.06306695351155 10.112171194936671 8.05985493597705
Ni 8.077716489408926 6.019455745025966 8.04413954271132
Ni 6.932105840401266 8.063736441271653 7.3903060463142
Ni 9.21043823098024 8.072527488150422 7.429483626343695
Ni 8.043142485697903 8.058579128678529 9.402685848653501
