55
Energy = -246.39825888 eV
Ni 8.743773711023534 10.433649882256649 14.579275368139603
Ni 10.30597197199388 8.349572306600162 11.154890762935675
Ni 8.998642278490053 10.387580919340168 11.954141865648147
Ni 10.429958549670099 8.952927825627489 13.58652256775738
Ni 8.427793404947025 12.490374435628809 13.219922757565797
Ni 12.465829461703274 8.387897961525047 14.954048061523636
Ni 10.410135085881342 10.335703212766814 9.576064237594625
Ni 12.481032377604704 8.223226302625692 12.417484186436058
Ni 11.179145069475092 10.452726685706777 15.673050732636318
Ni 10.458728392525915 11.376968556078747 13.507523038848602
Ni 9.777483755607898 12.490639318545917 15.481733519241848
Ni 11.302951755562892 10.27337625680312 11.698112865575926
Ni 12.503600713091664 8.936122360734075 10.051600515019889
Ni 8.744341594562698 14.547686064793371 14.579632990222681
Ni 10.273053261698669 12.487695469411044 11.076421174001842
Ni 12.450106691836657 10.259176237689097 13.744662073128346
Ni 8.998801957147968 14.591361646586874 11.954123201135035
Ni 10.458281672323976 13.602437767297465 13.508937874032942
Ni 12.514073111123018 10.41882954439884 8.075434840509326
Ni 14.677128854929814 8.364353602492365 11.171392631112363
Ni 11.164217345315336 12.486081986160334 8.538236995411753
Ni 14.510764611581333 8.963405437620516 13.616958369232227
Ni 13.753471092204885 10.452972108278065 15.688498381694034
Ni 13.086882961103637 12.492325702574135 16.85314279835336
Ni 12.50764063847463 11.37193860849462 10.094441216975186
Ni 13.656226530544082 10.272671469205312 11.739971720555314
Ni 12.312364260115093 12.487508926799462 14.766440761459647
Ni 10.413817613261454 14.639105114343641 9.572936891741415
Ni 11.18245266441777 14.524018938671576 15.674245735255978
Ni 12.473948892805957 12.485865522667533 12.34776101564778
Ni 10.43185546900646 16.025381689657962 13.58397090955661
Ni 11.302571384070934 14.699755602585974 11.69612149627979
Ni 14.619660447974404 10.382712546980434 9.635613703542633
Ni 14.435677860485969 11.381672151618199 13.581389047460112
Ni 12.507886248916908 13.598164731689593 10.094186534243525
Ni 10.306502218174268 16.625173099595106 11.150808376833671
Ni 12.450549959792488 14.716551956698078 13.743378767301673
Ni 13.832368707318953 12.484933708024167 8.524029217084895
Ni 15.946988227335742 10.371704367216866 12.00787207698108
Ni 15.147270463170193 12.488150183327841 15.56260594299783
Ni 16.20982893143278 10.453533228248325 14.572114366746806
Ni 14.704383865951216 12.485319089736075 11.11549208022933
Ni 12.517651386076295 14.552546390302384 8.074794604587577
Ni 13.75656851653938 14.525244987478539 15.68655511588812
Ni 14.433598698595379 13.58837790194173 13.581002154946962
Ni 12.4701905002002 16.58885680850064 14.950968900939062
Ni 13.656476723146577 14.698623640835958 11.73870131489376
Ni 14.61838824418122 14.58841990963573 9.633758246999866
Ni 12.504733159058052 16.036044384557066 10.049866325564162
Ni 14.511530639466299 16.010068386508852 13.611239694453838
Ni 16.461032015892883 12.485865673141536 13.192062662839062
Ni 16.207859537146742 14.521335452207262 14.569269807007117
Ni 12.481846375695385 16.750247567417684 12.414004341609257
Ni 14.67790279376575 16.606300604743165 11.167405961905658
Ni 15.946904845581097 14.59966326562723 12.008026699715694
