5
Energy = -15.31878306 eV
Ni 10.662382441177973 11.221674765980971 9.734467860961644
Ni 9.6526059470865 9.633498754076793 8.152935799167672
Ni 10.803488796471635 8.980845683635737 10.15127907003337
Ni 8.803735763824884 10.055234221912064 10.413908939100073
Ni 10.587201834699169 10.410419711677793 12.056912571073935
