5
Energy = -15.29004693 eV
Ni 11.361248056533299 8.546832246769325 9.578193758362382
Ni 8.996376802535801 8.587445044328026 9.56826856450938
Ni 10.02256728428103 10.380751755471854 8.576512959516332
Ni 7.839318637005183 10.621147710909106 9.74978894727407
Ni 10.0186417318942 10.18985251309387 10.846621805010928
