55
Energy = -244.3927652 eV
Ni 18.205653054994787 12.881568167758966 10.170804705956883
Ni 15.98448844832329 13.21778892626794 9.432426569648422
Ni 12.652893382791936 15.380438576426412 9.900259972312597
Ni 14.90608677156571 11.070665661165489 9.04431720385178
Ni 17.236861264547912 11.476338478325333 8.566256474403623
Ni 13.516191509532318 9.2326901441031 9.504537768132527
Ni 13.64585858532114 13.41517617649031 9.093500786848148
Ni 12.533533117629576 11.403114226118925 9.413110547871824
Ni 11.192468243697565 13.544357917875425 9.509488710660865
Ni 16.524479410149503 13.574653454797518 11.770187716984875
Ni 10.42755002870804 11.51758342586867 10.473446568298364
Ni 8.98880800848657 9.729947049180987 10.20265015986664
Ni 14.668737303041608 14.680885909093014 10.849998896745953
Ni 16.620949727572526 11.209106282859695 10.782472130067744
Ni 9.564149151390616 13.435624585279346 11.480906124802662
Ni 14.416652358325422 12.249528131303544 11.03256063940565
Ni 14.77385939287743 9.792061160137841 11.314221430514502
Ni 14.389942973116447 13.654308382675408 13.024714542645805
Ni 10.803822024382944 15.381514228351586 11.294737513888439
Ni 12.570476367071691 10.848442291816529 11.722270991308136
Ni 15.248696272479263 15.746079034970062 12.917573242480533
Ni 10.386039581656378 9.575141902869692 12.114351932174744
Ni 8.784391449963646 12.882514845256548 13.676650684537089
Ni 8.602530488029885 11.202977978577374 12.003046800899693
Ni 16.51669412830249 10.160717902077765 12.913808436801135
Ni 11.27812334737201 9.37868508356771 9.934497237517679
Ni 12.277682289146696 13.262824139484824 11.512376774053312
Ni 18.195158640748925 11.886755350993795 12.314702535626322
Ni 9.46735612288735 10.54058113601719 14.226993933065165
Ni 12.954463791023642 15.507276077523414 12.28740635451592
Ni 12.632841433762163 8.570863043325021 11.769444160507062
Ni 9.04395263031093 15.28198139462033 12.916127286787017
Ni 14.24031482476033 9.030691160081718 13.506803440332028
Ni 11.098324698596667 16.63510398211606 13.383297977643531
Ni 10.743855739587527 11.871043643748747 12.896884870554604
Ni 11.977892017096618 9.831328560699568 13.826651890561159
Ni 16.47887134222805 12.40087539469788 13.76787479522867
Ni 14.50260965421378 11.275881804939479 13.255970996921718
Ni 12.61428898784384 12.394567560959114 14.118051304364354
Ni 13.467912335191508 16.905026220456598 14.034702812450194
Ni 11.055265148735002 14.23349760715407 13.426869950666331
Ni 9.092328254024835 12.288975529052388 15.936785087977023
Ni 11.775187800847279 18.015725497626292 15.17795456533805
Ni 9.024024881425667 14.630288688305152 15.167776602996327
Ni 14.761821919889728 12.795465462958957 15.224142165811404
Ni 11.023681549871512 13.426998957384969 15.653938483822204
Ni 13.631503199687103 10.609666900128003 15.392338191959213
Ni 11.274131375593575 11.098371327469865 15.676385790990949
Ni 12.956512404792425 12.553496932715108 16.653566872903326
Ni 10.968841399356602 15.858160815432361 15.601375621812641
Ni 13.116373093931758 14.669189656415075 14.822789946647147
Ni 12.166958077080388 14.688902827559088 17.304604902954605
Ni 13.206123104281545 16.54212322104971 16.32370230101226
Ni 9.812315435384095 14.448531211963461 17.324384462364335
Ni 14.423938383052407 14.528362898589476 16.777765058188248
