52
Energy = -231.70219987 eV
Ni 12.906808937818125 13.50781820454236 8.5535079448572
Ni 11.079326617079072 15.03803668451778 9.027986408311106
Ni 11.281002749651936 14.010207017789101 6.889630507041061
Ni 13.905537760813456 11.392282223513199 8.261619131130828
Ni 12.252360705564062 12.214487067485587 10.390428137785323
Ni 10.444341553870544 13.862277532408713 11.046882524087533
Ni 11.960289792922245 11.766614938872817 7.050264351382054
Ni 12.734761887718886 14.408356120976721 10.790590881544713
Ni 9.043582976352441 14.487111663109712 7.275902038995477
Ni 8.80491028275828 14.4869140958865 9.512863430500637
Ni 13.745608282903271 11.328351456603547 12.130309555659046
Ni 9.89568828381301 11.48225074600277 10.775897072464437
Ni 7.975789055194764 10.727490889176947 6.441084543433821
Ni 8.009720173593143 12.471412551718473 8.503302942001088
Ni 9.403744117559386 13.143718390506436 13.026819836343206
Ni 12.394751874304893 8.330060986549514 9.695439524915743
Ni 10.480148094130827 10.050475879083221 6.330888809818824
Ni 12.686982645159816 9.504017949070757 7.332210662473605
Ni 11.656823552122328 10.140926020317004 11.519157857177145
Ni 8.072283305451975 12.954478623324576 11.047192080219357
Ni 7.266730363705895 9.418543837580375 8.420404308089024
Ni 7.518515826160026 7.971423704967148 12.964572096345872
Ni 9.628567414852876 12.330572518860029 6.5832778418750735
Ni 8.782472149888196 11.727127346085691 14.92453866429928
Ni 8.870012504555177 9.35937250412936 14.39456131529978
Ni 8.699654804431836 8.525169704093067 6.8055569771011415
Ni 11.004402978739405 12.6454189460021 14.830524947854364
Ni 7.958923181880364 11.211749581488357 12.69562647565302
Ni 11.860844371437219 12.763250631798332 12.639532576575778
Ni 7.37404812745569 8.514371972367265 10.63721868007559
Ni 10.430188398100833 12.768927305165278 8.779059779341553
Ni 10.68189092478819 10.415492375421383 15.576669168627491
Ni 8.572403422014892 7.381736627510014 8.866464711818828
Ni 10.29742229301812 11.016307942030195 13.26260297505989
Ni 9.321526568801767 10.525459006426443 8.298433525858043
Ni 7.74802327959221 10.768929018807182 10.282874568564635
Ni 9.164790468475664 9.29954801053383 12.079443806409206
Ni 9.864345417911222 8.95491762829966 9.936395413456301
Ni 12.528128894203366 10.837649953946503 14.02111954411336
Ni 8.941275039893783 6.907823607602129 11.252556014137664
Ni 11.554408966229408 10.480196155098357 9.034875586611214
Ni 11.106371931908287 7.865417111442795 11.698718159416934
Ni 10.737057285581773 6.578324334245559 9.698157306655759
Ni 14.471722630524825 12.643557529781997 10.236857588378959
Ni 10.762980522612503 8.206481726324064 7.906773984304017
Ni 11.268679384225354 8.884787570611737 13.865741790147863
Ni 13.311175552979748 8.811862646930313 12.358430157985891
Ni 9.695952957522739 7.1651418519337575 13.521255171217433
Ni 12.89026216332545 6.537277190894163 11.152715448420187
Ni 13.754080179153204 10.141212961623566 10.165893179407256
Ni 10.802257271230063 5.553949850121352 11.936940985800938
Ni 12.17818268190399 6.766983722064897 13.439992634400662
