52
Energy = -231.93633143 eV
Ni 7.675887198414901 10.200488664991214 14.28165075230788
Ni 6.115689308529256 10.116973159903779 10.53441772746328
Ni 7.097059910468972 11.393012420186933 8.830138691791072
Ni 6.133684760725449 9.064278750175381 12.780308837988546
Ni 6.836657201301754 8.884864980351036 8.503458464026371
Ni 7.2614662567632005 12.204623997598485 11.084895744307817
Ni 8.72819013574097 12.155500968016895 13.239180295101974
Ni 8.749697086152628 13.983175811922477 11.5290595184847
Ni 8.357195558561466 10.335852347555281 7.197898442766446
Ni 8.26029208965038 13.417115926865213 9.291142709700837
Ni 9.478057937539225 15.37228357784814 9.503591315375173
Ni 9.848504229424561 9.995404636179478 13.419232386180633
Ni 7.211233470166818 8.069905549006618 10.927244049158999
Ni 7.957354890739849 10.17503314293816 11.973653171130747
Ni 8.581283594668127 9.691884305562048 9.691328597884086
Ni 8.375466046197824 8.164241973149576 13.06232025066416
Ni 8.993169045491248 8.173929707848442 7.438273138959574
Ni 9.623861611139617 11.56899375832365 11.134131475207363
Ni 10.744930877090285 13.31124360355247 12.57863846822563
Ni 10.651736643905105 15.453364330377214 11.558935746117216
Ni 9.602716813866106 11.684205589243797 8.699658242797
Ni 10.513214863540117 9.223073498702853 11.07203652492376
Ni 10.940708014816314 11.827416488815636 14.383380537990183
Ni 10.69434820626159 13.53582386324838 10.166140741832336
Ni 8.1373144323804 6.940485383207353 9.18555061619478
Ni 9.401734424831401 7.096399802862094 11.222715234838102
Ni 10.801539460373808 7.849926720302951 13.048665539199385
Ni 11.764385932850672 10.963156090351285 12.288298082929105
Ni 10.571148911481858 9.823308316818911 6.249152459134405
Ni 11.656952349809135 11.278822422647172 9.940027842021658
Ni 12.089786602361078 9.637325756566364 14.242306705821505
Ni 9.700214255501749 12.076172783093712 6.398207671316448
Ni 10.449058979066901 7.292162573868216 9.106076130637556
Ni 10.439749250461341 13.748420206090364 7.875570546015719
Ni 10.68192288498348 9.552292760453208 8.53867231308691
Ni 11.8134503684716 7.0683527306078675 11.000663047451514
Ni 12.966377488539536 12.8148631735211 13.233457601624737
Ni 12.60892507580452 9.081290338408818 9.878498171149651
Ni 11.212320152301587 7.591895030332981 6.887170661260442
Ni 13.158215847005238 11.51182452877221 15.14331170675166
Ni 12.626207762343187 14.145720620411796 11.313100264224401
Ni 11.756793698407883 11.59713026510041 7.486388006454907
Ni 12.8959640753426 8.747788901262226 12.252964090234336
Ni 14.001803265972825 10.691403245744093 13.067936416313666
Ni 13.640106071455603 12.031631744187909 11.037314407693154
Ni 12.722019209574746 9.347873997359628 7.37493359039391
Ni 14.151930050671861 7.466310765422376 10.629208339353125
Ni 12.752570962336616 13.153598906698475 9.064026137090583
Ni 12.784592387787315 7.166562138141483 8.616058837245136
Ni 13.761963700894455 10.987979930325116 8.832423392680452
Ni 14.581797599860426 9.855375325107392 10.882266650163553
Ni 14.64005932764594 8.764004334763445 8.69964372786249
