54
Energy = -241.50970552 eV
Ni 8.456741050359827 8.198520808572653 4.21734093471542
Ni 9.496518553752363 10.458517989841756 4.620497016709648
Ni 7.12099828194955 10.061256207212415 5.071511218142762
Ni 10.259024242645031 7.161748395518902 5.456490620360028
Ni 11.278100184912827 9.398976912792095 5.860219429695378
Ni 6.734338415937864 7.7435571157978895 5.842530764825144
Ni 8.187625869652706 5.957742330317699 5.139138597060478
Ni 8.464906654304748 11.525022192605043 6.515369676593143
Ni 10.838556070702138 11.76309015243381 6.176319589527714
Ni 6.051073321559619 11.668145845617726 6.608657682460679
Ni 8.867747874702058 9.021753374579305 6.333528506080179
Ni 12.421710408662635 7.365830097421184 6.5814937198239
Ni 5.031114248848222 9.413053495748946 6.142728759915471
Ni 10.837335192968922 5.69857546169691 7.386918662609952
Ni 10.23556030018744 10.342127958230522 7.897449690137622
Ni 10.502801379096978 8.054467439448565 7.658704623208733
Ni 4.759152524962269 7.206515224952692 7.130923812038595
Ni 6.942605420737822 9.718553669165784 7.431204087215289
Ni 6.574833962571213 5.552716383278268 6.931689482403506
Ni 8.771131973647458 4.4783255825591395 7.089835353287341
Ni 12.487347712629846 9.318141714720134 8.044397815681316
Ni 9.838674750234397 12.679844026705966 8.212741652625684
Ni 6.684456765985422 7.472900052523215 8.361343884078407
Ni 7.429963336906331 12.991700809695118 8.11198357247968
Ni 8.608782972253858 6.774235756900292 7.265747482093388
Ni 4.824588714449367 9.183891658528825 8.531906124797523
Ni 12.064270175928211 11.676777167757432 8.3716786868237
Ni 5.351398168524392 5.6809731049206125 9.029096173541292
Ni 9.781975626567329 6.702793147068086 9.398128313894292
Ni 7.713456873228413 5.263122760417583 9.108620908557265
Ni 12.206177196576444 7.026112206055511 8.985539286239039
Ni 9.95667154015399 4.403292452947585 9.220876675578694
Ni 5.8880211491021965 11.384886842875773 9.017003607319788
Ni 6.88587571050443 9.344223754414998 9.717385257169273
Ni 5.345284047607898 7.647239299587131 10.405349870083272
Ni 10.793502622447392 8.891228000318762 9.798117691564155
Ni 12.622849830626672 10.241630014683393 10.27085699775369
Ni 8.596558665379854 12.86847597293354 10.328352029810693
Ni 8.310542033014807 11.016677495320328 9.00340493741592
Ni 11.331729442968525 5.735661014770407 10.827221157443434
Ni 8.86248136945795 9.569055425813348 10.899825250936388
Ni 10.511011070319865 11.387589899388752 10.192492644150166
Ni 7.850688574989633 7.382636671886345 10.497155623797012
Ni 4.966266491599586 10.023641589734543 10.815775810528617
Ni 6.5015809236782935 5.657021981656382 11.172431974895444
Ni 8.948127700894172 5.3821893061154835 11.228358478332588
Ni 12.33784774319959 7.921682897033366 11.216359634325125
Ni 7.069565813101773 11.200319163514617 11.205512610641089
Ni 6.722524753970025 8.884205063499932 12.060719128552359
Ni 10.972602946264384 9.784283208956353 12.014778253341726
Ni 10.035486527232838 7.522064685109198 11.796783239941162
Ni 9.233828179253106 11.465814801642818 12.219946179330677
Ni 8.875258659252353 9.155500277240009 13.15326788728852
Ni 7.925119436885702 6.938084594823218 12.790682389528188
