52
Energy = -232.52069524 eV
Ni 12.285345908736328 13.477465693738832 13.258721509049641
Ni 13.669963921550544 12.76805232859262 11.45756586990879
Ni 10.43785370820203 14.86450168484226 12.936084528965099
Ni 11.07948903558638 14.26483708664295 15.11978164254646
Ni 10.83875095616531 14.499987728259013 8.737556024079304
Ni 9.874297180954404 15.518079576199009 10.69619851179787
Ni 14.164747086505926 10.412761861220297 11.24097138636845
Ni 14.765903976472577 11.856200281018276 9.51238858727378
Ni 11.625603421195295 14.005761764250934 11.046943994158605
Ni 12.790385055608208 13.141665592231947 9.198239820371267
Ni 12.725006103436579 11.163540754026396 12.990792625096086
Ni 12.974177187109555 10.925831541756532 8.335037892212055
Ni 14.723926562581342 9.501770967618205 9.100029866068462
Ni 10.496832390656081 12.027157569005766 12.276960819316711
Ni 14.286992429662643 7.9859721797624825 10.807660531364833
Ni 12.008471051266834 11.347619716963422 10.605769439149075
Ni 11.208201246252948 12.35823578724816 7.595941548250536
Ni 9.243196709912453 13.534758579421963 7.215601260031851
Ni 9.36156185898795 13.043170919476573 14.043277795664135
Ni 11.34139659710699 11.944935531211733 14.789353072219544
Ni 8.827078307421013 13.679383464491355 11.690724165164026
Ni 8.404693032547925 14.195454344674477 9.384464642199342
Ni 13.236370053894843 8.867470017076183 12.739441821982227
Ni 13.208606355107356 8.646974534796101 7.58020508401647
Ni 10.106747545065621 12.63430782042266 9.839704270010692
Ni 12.398174070853692 9.110726123892128 9.943341914761362
Ni 7.1523393961562185 12.426950497741466 10.579256099399103
Ni 11.77289830638948 7.315848308818387 13.723392243407472
Ni 10.984557450212305 9.500155013044605 12.204821139910663
Ni 8.23509204203813 11.959775075489004 8.525156939095808
Ni 11.756764830369134 9.596878273314797 14.493973403560835
Ni 12.833013173011727 6.912830067316709 9.188165343031883
Ni 11.47833806589107 10.02357495558755 6.73080434548261
Ni 10.580301897019657 10.427063647642164 8.871306575137401
Ni 9.583588275504002 10.597249287785216 13.99463593840526
Ni 9.90367063243636 8.551451615718934 10.283717866507954
Ni 8.02229255443153 11.666177530644186 12.674151350427511
Ni 8.855424076188736 10.722419753435167 10.62151072033099
Ni 9.37966910083987 11.099917355336663 6.669453130024435
Ni 12.10574988595399 7.240696174487507 11.398190399195965
Ni 9.919646441444176 7.115564017832034 12.22197772357361
Ni 6.565419092326338 10.516771866312059 9.288366832603424
Ni 11.00086172348425 8.060822033635414 8.144615874197445
Ni 8.506231385870027 9.08664225371031 12.370466646881326
Ni 6.5518231974262235 10.252788315838142 11.593349289190483
Ni 9.766594967522568 8.318831623483305 14.223443279663854
Ni 8.434080361921389 9.584596837358095 8.268903911243637
Ni 10.56114651586701 6.3478880931192165 9.860484708409544
Ni 9.509710330748803 8.676954287010254 6.488487062881965
Ni 8.777029615033184 7.291602243794056 8.52273084462434
Ni 7.501423093919481 8.566509326503125 10.2210691237288
Ni 8.327526678582466 6.475232453294511 10.711019844403392
