50
Energy = -221.89997936 eV
Ni 6.650272651024466 11.083411607817844 7.357263550313308
Ni 8.817735385151865 8.709801644970586 11.689384439127807
Ni 13.521910632719205 7.430136842272507 10.481200152783924
Ni 14.001474535009082 7.499795041928742 8.080925351557037
Ni 9.539554907965679 10.236386558606375 13.618258142014595
Ni 7.590306500165284 10.567220520813313 10.84714922190656
Ni 11.442840807171024 6.458796397447471 11.30482244432218
Ni 12.526569412233604 12.994418046746055 9.119256560293739
Ni 11.83713404420474 6.951402698395922 8.945896764506424
Ni 10.629503244761523 8.152801913289593 13.175566060126847
Ni 8.038098317398752 7.382729777739994 8.173850223914927
Ni 13.487351198588478 9.681079345606227 11.253614528445203
Ni 7.490536691368378 12.872746606199202 10.590959994005763
Ni 12.595173975587471 11.285516096699011 7.423367652838419
Ni 10.237334694710695 8.013353894231399 7.661574366317874
Ni 9.658025353271318 7.046254658695075 9.88418660476174
Ni 8.657974642037857 11.61746799995326 8.837201093857601
Ni 7.218071102068726 9.802641283866002 13.07321364281776
Ni 15.086063565302673 9.029798861702744 9.586804761212992
Ni 6.835244544427434 12.9755017553874 5.967537315286466
Ni 8.240857689873692 11.988457361934763 12.68532835828504
Ni 6.930894646289964 13.219446885477796 8.303692249874176
Ni 5.858888666257173 9.115647832720237 11.127631663712929
Ni 11.808547938266893 10.186797500695532 12.822884715554048
Ni 12.484299405034305 11.841531358143689 11.250771553942712
Ni 9.076444876678295 14.035396294809752 11.815698659084207
Ni 12.823454121985574 7.877551753179521 12.684583384628658
Ni 6.849254919274517 9.318096841646925 8.935119122343563
Ni 8.334693114741214 9.454795146860306 7.103557853901931
Ni 8.52879789499473 8.067950759258096 14.070161653933951
Ni 8.778212759084473 11.727209876577072 6.443269088371476
Ni 9.14151569193115 6.453324185283511 12.259517811559512
Ni 10.574485133250185 13.018450310090724 10.443991455935425
Ni 10.555814832367615 12.748829798049924 7.837590727429608
Ni 13.94596932934078 11.14456388718089 9.425373568976866
Ni 11.121410073191278 5.978597894646523 13.532885419831635
Ni 12.698057192926841 9.179432887200027 8.991793375456743
Ni 9.28075589748383 9.354991407238977 9.368086969858828
Ni 9.886650119794218 10.84598388504641 11.303344501876714
Ni 8.96954700170847 14.097146082464516 9.24790066797872
Ni 14.423776170112934 9.78480148621659 7.446012410666567
Ni 5.876785992329834 11.393711318673606 9.566956778817575
Ni 6.832254387620127 7.460063463568449 12.614786488320169
Ni 10.636426303618803 12.341110982781268 12.828901245657073
Ni 8.7005939207614 14.001985623984913 6.932937329376911
Ni 11.219537337818679 8.815553493958868 10.835516333163504
Ni 10.474085235142189 10.339946809708547 7.259754724108652
Ni 7.373854313840816 7.417512104079154 10.398478898355897
Ni 11.22939271318799 10.967050465277147 9.399666000314966
Ni 12.288755420443584 8.837990055396952 6.796963422792111
