55
Energy = -248.40818871 eV
Ni 8.611886708877757 11.108236076806635 10.255287893400153
Ni 16.230422671982804 13.314961149732952 11.726828671472028
Ni 13.925909902199916 10.513208979786459 13.698461789286872
Ni 10.962706357126553 8.42393819231481 12.12026763365325
Ni 14.626173661131334 13.038839018043491 13.681527440983297
Ni 11.012697391933989 10.6432956682019 15.826643538781363
Ni 12.54555510018475 12.375546169632086 10.00957722350847
Ni 12.113965473734307 14.468611816403723 15.940196217091184
Ni 14.932305209910364 9.40136216137675 11.75776917571413
Ni 10.627782414133483 11.634117721317924 11.343118121076682
Ni 10.447048004077866 11.79491713343942 8.915409473501624
Ni 11.411281285078857 10.426298873536089 13.376908009673562
Ni 8.429063328649152 13.517630938357138 14.348820029529959
Ni 8.43777654022296 12.313920257514262 12.296356353815797
Ni 9.145660911424953 11.192394081881776 14.397804652631395
Ni 12.595849886743427 15.79432560505468 10.471433918147033
Ni 10.098084853121131 15.716090113408411 10.409062295875286
Ni 15.678568734803196 13.422018334046895 9.550105045212504
Ni 11.204252728038218 16.139932187442877 12.475024889510415
Ni 13.139679307402684 8.381290231174626 12.75987808564913
Ni 13.884310073249036 13.954237788592707 11.475726433164244
Ni 12.429400169313034 8.96918620534351 14.899643029614102
Ni 10.017103409943612 8.93075034920294 14.35948555393791
Ni 12.492911835275402 14.359078677584247 13.532571222651724
Ni 16.027419126266587 11.177047009795393 12.84180680490836
Ni 14.693290174730935 11.661007028597597 10.930792237184965
Ni 10.287192229500246 15.026497269095781 14.489916726910613
Ni 12.430523637542198 12.275290443486336 14.795348449357752
Ni 12.679508122587595 12.230228206748421 12.444996636882175
Ni 13.548549955319377 10.725925791858588 16.100925960660007
Ni 10.214519923059852 12.938778438375701 15.807127040532626
Ni 10.50857748344379 12.867366290429182 13.427505022174525
Ni 17.211388231444765 12.951566715706793 13.771531371582032
Ni 15.743068878605605 15.085834950424303 13.129916840885798
Ni 15.132673798634858 15.582121277243097 10.664888280915388
Ni 14.117064483653582 13.169299746241718 16.210791324487065
Ni 14.169715004383917 15.271698385360637 14.920043917401593
Ni 13.696181018100441 16.175915088902844 12.623734555277073
Ni 11.21687452599784 14.190464367700116 9.000613622694845
Ni 12.700392152979058 10.220879740752668 11.271251298751686
Ni 12.189760525843528 16.485160300285912 14.59239116230497
Ni 12.337286452710975 10.31434054992219 8.764610003814031
Ni 9.194684058287118 9.988491752539968 12.303452272271176
Ni 15.630830821889933 11.598494650543948 15.187535014333111
Ni 14.436485840396088 9.70039141230288 9.527362549891492
Ni 13.620477731201573 14.237975820181896 8.971213918711669
Ni 12.098889964392308 12.368093177392867 17.139031192268256
Ni 12.28648633980784 12.584951528906682 7.6436971796340565
Ni 11.357148775756654 13.98686382579172 11.397251128312032
Ni 16.089054903882772 14.057479270974234 15.392944166065664
Ni 14.310361642973469 11.83389305937272 8.51975271521177
Ni 9.209549317396167 14.65193044534589 12.360330470929817
Ni 10.512301834256341 9.608308152686305 10.130364268282253
Ni 12.559579779494529 8.24910832913918 10.21592889790544
Ni 9.27038858767864 13.431030524474966 10.275659552352659
