53
Energy = -237.02167757 eV
Ni 9.265141323309543 10.656739837912363 14.448065500392376
Ni 10.346543640762903 6.560074509823984 12.052224264217097
Ni 8.069951485938287 7.118043701058633 12.789387917198535
Ni 9.823025103195853 8.670943995856026 13.058867409279236
Ni 7.517907504522201 9.28546581167228 13.797045556234707
Ni 11.425541024952249 10.280863672616901 13.39332515567994
Ni 12.015125947625297 8.337226122266436 12.085808168173621
Ni 10.633660807633177 12.548642024794496 13.933869034202617
Ni 13.17146109532005 10.34055467262956 11.636958017474317
Ni 8.288076935845162 5.500023017628207 11.105835982842041
Ni 8.280258747616648 12.782446060359828 13.495600036173878
Ni 13.033699515829303 11.965760189741173 13.59476051116641
Ni 10.229014421974325 5.402167927294961 9.880522113403572
Ni 9.275809653365602 7.573254952516065 10.30611617081923
Ni 11.604268225399997 7.351293562169236 10.025063130606386
Ni 9.306866507077741 11.174166300882973 12.21316807900345
Ni 8.049577388099623 9.11850489812455 11.592683017270817
Ni 6.833759923767415 7.294914529337411 10.68828752274782
Ni 6.934803732126923 11.122184613766429 12.303286545316402
Ni 13.773109663430807 12.762831958637664 11.491619137553158
Ni 13.843712664286583 8.311696760716984 10.383517010605765
Ni 14.53991619232725 10.679266509263535 9.766822592923747
Ni 12.191729965468245 14.053348711916252 12.82657763786555
Ni 11.503493559494363 11.991561496562202 11.804736136501873
Ni 10.510159058794338 9.74025425027591 10.75416289235998
Ni 8.117640768885265 6.379813875154017 8.742408470625474
Ni 12.414182065486612 9.626277629121036 9.255291394674197
Ni 9.91018981752225 13.797457529046588 11.964821123445583
Ni 7.585110334062883 8.71085192905525 8.954241943180746
Ni 12.564089045282413 11.948438661815066 9.731175247320806
Ni 11.72726343616381 14.010847176702296 10.472809991865894
Ni 6.004979813032808 9.622315317753861 10.55472989268809
Ni 10.265962672704791 8.846999094448176 8.434931232962917
Ni 14.342403719131333 9.199219716718483 7.958588983338781
Ni 12.54837613424166 7.6186440068729615 7.922568650684925
Ni 8.118500194179536 10.803045262490246 10.057181829461516
Ni 10.350677904053946 6.582168836285488 7.920821512815376
Ni 10.938867181015926 7.884139742695665 6.099594548570777
Ni 10.024326793096062 12.149666598789736 9.99885766521007
Ni 7.934304431535761 13.028627241201772 11.079496362329087
Ni 10.90678621872742 11.088877963617414 8.145391637368633
Ni 8.683934233595576 8.128495636700729 6.9444131777135505
Ni 5.969741149757771 12.017323499169628 10.292548924608463
Ni 13.42255264535903 11.461140004853338 7.6720112336205695
Ni 6.295799410248234 10.665912180714864 8.419139068456158
Ni 11.554559516047819 13.358729759933064 8.16452067321142
Ni 9.486035447572185 14.217330608324774 9.367508166213273
Ni 12.274877908167339 9.66227783749161 6.769534892844486
Ni 8.537873957373805 10.555090463455901 7.7244153263165565
Ni 7.69696759385654 12.667212198867457 8.704950326066777
Ni 10.061426096498572 10.091957409297725 6.079105269581899
Ni 11.606328128875418 11.964192163117104 6.140091854400301
Ni 9.506059635476584 12.719395648379365 7.22551001348119
