55
Energy = -246.60932517 eV
Ni 10.010512259020324 14.455371141792366 13.661828719453844
Ni 11.479376994854476 15.067076524453714 11.911776760302102
Ni 12.123621495561427 13.328633593815736 13.682016703603649
Ni 12.17521116312716 11.065177716123067 14.737975624378565
Ni 10.100148892222899 12.13500694001701 14.185199104861224
Ni 12.973184510643833 13.19962533073533 11.475464161722051
Ni 13.818841886878143 11.46743927767941 13.065829830305816
Ni 8.20257683068965 13.034687936791183 13.054011718019213
Ni 8.903902378493658 14.904855767379539 11.596343765898526
Ni 10.373543121889753 14.671590643163913 9.746032246697077
Ni 10.377498860465282 13.109398584349515 11.572937460647722
Ni 12.710538152879495 14.821033871466799 9.838230124404346
Ni 10.433706045687542 9.668010072487279 13.839281929379775
Ni 15.104278086798965 12.062601525220897 11.287271964266647
Ni 11.606074885360076 11.391576306053555 12.482291710775847
Ni 8.126651642714066 12.737795125326693 10.669031417912006
Ni 6.889650320521035 11.234279789469259 12.184496502329917
Ni 12.734925220567325 9.314919100665321 13.074666084282367
Ni 8.135017817095322 10.813237862014244 14.209169958353908
Ni 14.096164267212385 12.923078623563377 9.36005404415748
Ni 12.93586842990694 10.938905404895554 10.521466050886557
Ni 8.046846226225627 14.570382199894887 9.309703788628887
Ni 14.600147626187548 9.672426050400583 11.445347838761423
Ni 11.763309476629876 12.748512398067403 9.23473647762026
Ni 9.20266271900341 11.025614426862358 12.167403899982268
Ni 10.11748772747783 11.197168001902108 9.996443476691171
Ni 9.47555680967371 12.89804165197404 8.464584724292855
Ni 7.1939467491503715 12.426494112341524 8.42120483440492
Ni 8.440593699665635 8.732323316148277 13.053013763056201
Ni 6.599566101643434 8.973052143718244 11.532318217900597
Ni 7.287911845449678 10.659481456154312 9.920678593094438
Ni 11.018062485707622 9.467657221145378 11.45456043053407
Ni 11.552006850466023 9.417783269595034 9.154861998894383
Ni 8.8259484493535 9.145668750855602 10.794036849355056
Ni 15.26734007642339 10.847782162463163 9.346241077339398
Ni 13.204596779769469 11.062536744610933 8.12785916680414
Ni 13.931996252393601 8.999587142125147 9.098542870582007
Ni 8.083303784147821 7.0622781383503 11.33180046419615
Ni 12.845082404110684 8.110918870525358 11.004515445563667
Ni 10.44386350525337 7.4203278346863515 12.438398315556801
Ni 6.8732742461034215 10.021662220795903 7.736481439634078
Ni 10.919027911366092 11.156288110851905 7.616328082621568
Ni 8.666930536968815 11.260634664273091 6.942067116324788
Ni 9.183069324974442 9.533442622917056 8.479655897747085
Ni 7.173079109251777 8.263626156397008 9.335658701580035
Ni 10.413128846487666 7.535721255876023 10.055434695341898
Ni 12.329879807394342 9.030909008949928 7.068177705069367
Ni 12.007053137420773 5.976335420915705 10.852565040076147
Ni 9.726438989248752 5.477341680548384 10.967207265723752
Ni 12.516795763439363 7.184133140825873 8.7580221603108
Ni 10.026713330141543 9.388367121429706 6.280753690553722
Ni 8.111038603465525 7.998602069128688 7.1275425016823775
Ni 8.667061304688987 6.496930054179016 8.953786579439294
Ni 10.446719350496872 7.531706660627506 7.640796029542257
Ni 10.835887776966985 5.469583652736163 8.841515848193225
