55
Energy = -245.51142377 eV
Ni 11.607666268895 12.475053593500597 9.464537121565076
Ni 14.030584289430553 12.551954479048874 9.58453632779371
Ni 12.867020496711795 14.425011471911317 8.655885051546544
Ni 15.200950275035257 14.610984143289322 9.36294136933627
Ni 15.163824724974699 13.243890084290099 11.560716681584537
Ni 12.926320148367541 10.660961194090618 10.557215733217244
Ni 10.23205835810883 13.114078942613878 11.74979635871754
Ni 12.593848046162 12.746385803382239 11.498838034775622
Ni 15.286868627423813 11.005095338251756 11.108286038541118
Ni 13.319273198532008 18.551160058417498 11.799228261270418
Ni 17.109482071330138 12.099784760668623 12.437037933599463
Ni 11.10633477532342 14.680694862955782 10.28756039460266
Ni 17.16151548617588 13.823454280691234 10.65031787485548
Ni 10.61928797473115 10.95720264785105 11.07652205012904
Ni 11.922397488323 16.784233429597805 11.002197154668467
Ni 11.792116353563497 12.781131110751138 13.668381651889081
Ni 11.477873392815669 15.062828914896166 12.700399195734228
Ni 15.676644509301504 15.621812770685521 11.418753771586172
Ni 13.369620777236795 14.81488122473832 10.855313735273507
Ni 14.108203117668628 16.841690471341195 10.042252287103542
Ni 15.753371879574171 16.5072929303798 13.678325374081647
Ni 14.04818751423434 9.275547842793559 12.06713511782645
Ni 15.656493229517327 13.020138391306324 14.021511196664212
Ni 15.875831861972513 10.242396948768361 13.33175262163296
Ni 17.051527960828718 14.532934584966798 12.899290163374173
Ni 13.76843384583807 14.182464441308154 13.181358611790182
Ni 9.964273639131902 11.361274140561866 13.444465894656657
Ni 9.669652486608156 13.811643614576244 13.92996710528278
Ni 13.934766567699244 11.618905091812346 13.14717845163878
Ni 13.935710270435985 18.06206680858533 14.154183349145667
Ni 11.763539152318705 17.471127612364352 13.26738649060583
Ni 11.98600860395045 10.2737782980868 12.83919529562378
Ni 13.633282535887572 9.384540574900655 14.336632780356698
Ni 17.23793669516944 11.5852070752241 14.931766410166682
Ni 12.611607743547724 11.308787088677 15.293422275328076
Ni 13.778774311186346 16.450272245984277 12.497976314424374
Ni 12.074611060540756 17.75893653678048 15.635162300689338
Ni 15.403802740896781 15.034037909999226 15.329958851163973
Ni 17.550962393560514 14.00747030468807 15.065660867340883
Ni 14.285172744394712 16.876242798149192 16.274405348194115
Ni 14.950419936989476 11.122163284090309 15.290714444950645
Ni 11.297580980551423 14.219933755237646 15.48350021406419
Ni 15.900001060641193 12.992285731676368 16.485912397321403
Ni 10.401912946271223 12.068146956081378 15.688813672154843
Ni 13.627936892956372 13.404558714907994 15.406681276334933
Ni 13.701007922095775 9.692986115638938 16.742831207030207
Ni 11.029478429872798 9.763696458761192 14.995266104810687
Ni 11.6831700632791 10.86763548121449 17.316151084061
Ni 12.978612767816665 15.788016279892597 14.721413989348838
Ni 14.15169952265627 14.51125663062946 17.335221311277728
Ni 10.480152927182337 16.162029966919082 14.700691880562768
Ni 13.957693663356073 11.985773879066477 17.400209440553805
Ni 15.986067882745543 10.711951480902812 17.226851009574098
Ni 12.204695081199691 15.766245507692771 16.943923649772128
Ni 12.021581334763411 13.25381396418296 17.382215500186312
