50
Energy = -223.05212574 eV
Ni 11.18714960886579 12.675201365001392 5.617727401614668
Ni 9.150916434748058 11.69749662726237 5.87582537677309
Ni 11.069335322275586 10.362564103094652 6.352092894847042
Ni 12.996919264241093 9.47943880781588 7.4463243201668705
Ni 8.866459249980931 9.696480431824053 7.077059049138477
Ni 11.892189337007443 14.099100283965091 7.241876721687844
Ni 12.940967627404168 11.8085238477692 7.004109670658261
Ni 10.78057629142928 8.750152369522677 8.130529806898998
Ni 7.870101362231278 11.842541561824055 7.784183712857939
Ni 9.407484239595544 13.674984435630867 7.293919343199816
Ni 10.790611834760824 12.007070321421617 7.973601509230832
Ni 14.383154886762958 8.528604278837761 9.039888888944276
Ni 12.542925184032608 7.251074132241497 8.250711490893465
Ni 6.972492651190832 9.72918428711813 8.473415911893865
Ni 8.64208715261325 8.113624410262956 8.93269138383275
Ni 12.798496778506895 12.929854187928049 9.073057976210434
Ni 12.065340199191123 10.316485338680463 9.426574896797266
Ni 9.300952306731075 10.610108759089822 9.186353205684515
Ni 10.770011701922893 14.24386828229975 9.284807649282339
Ni 14.247221664005425 10.97265684008508 8.889310439473078
Ni 10.58105834155574 6.86299178752665 9.678938159862597
Ni 8.860023159640198 13.012311900392582 9.621022001313607
Ni 12.487472912479525 8.119054906239985 10.409146050511685
Ni 10.948152345687024 12.09946847677257 10.47241448721119
Ni 7.071573048250465 11.48143112065392 10.023498968175566
Ni 7.649069961911612 9.313270236709682 10.732759994887305
Ni 14.09476080601319 9.703150135232537 11.01066184996002
Ni 13.39518845491431 11.90281666061464 11.01990313014822
Ni 8.741672131668386 7.253919294794192 11.203461706362788
Ni 7.539630865016124 13.178070798004956 11.528200642745336
Ni 12.171078473592484 13.987282668868865 11.163664636049688
Ni 10.18950181750854 9.022471038754485 10.617372550689657
Ni 11.709563894868799 10.288991182909893 11.913126402166814
Ni 9.03572329958763 11.13732897173689 11.59259771649301
Ni 6.865459990306371 10.926727335106115 12.387605764649251
Ni 11.041430036677859 7.276684412682794 12.066113621334242
Ni 7.485163117743673 8.539672027830294 12.932896551309867
Ni 12.944080060770366 8.528655161332813 12.811399448758008
Ni 9.191103754555224 6.825791161010579 13.450872395943477
Ni 9.943149785554182 13.407239794290012 12.102953722124477
Ni 13.959643793350569 10.795074951529301 13.048597437036594
Ni 9.716748007890919 9.159614419751657 12.993629197167689
Ni 12.146620766422759 12.4400905134212 12.944048540709435
Ni 8.17890417562208 12.59600689530162 13.618311969062423
Ni 11.12229802828923 8.01333721618562 14.390179340615186
Ni 12.086735122275599 10.237285287497745 14.261764598965266
Ni 8.137437935495711 10.373528182086881 14.321067881959006
Ni 10.192314694119828 11.502371017304554 13.68022664055025
Ni 8.682173585303884 8.246655830548317 15.145725730706229
Ni 10.154988283935653 9.977805691738418 15.501890960951723
