51
Energy = -227.62035418 eV
Ni 7.319760200838293 13.85109672270726 8.838011624437543
Ni 6.941582081709589 12.084315092084406 12.462846588868949
Ni 9.793348060466096 6.9670105044150485 12.889900582832931
Ni 8.926195650134375 7.101712812510187 9.274563327947522
Ni 9.36286317432628 14.167510079987194 10.094850573281564
Ni 12.935092899559718 11.604669815517061 10.21236464281325
Ni 13.206199995463434 9.332426575331652 11.280749103129791
Ni 8.700333184271273 9.585856681167455 9.166875890339584
Ni 12.625411318718532 11.545180292223723 7.680062393798534
Ni 10.930217580196766 10.30986644537243 10.190872234586749
Ni 10.904432816776549 10.463757277885195 14.379604472835297
Ni 9.23465447398513 11.640432698224481 5.985585413499574
Ni 7.483172625564634 7.952738340279417 12.6234770711031
Ni 11.57207778850928 11.171846529256383 5.559241109880813
Ni 11.611668469602984 7.939549522064553 10.280844169169535
Ni 10.82853169475897 6.197030899915824 8.366631374768831
Ni 12.880913242746226 9.62356506496945 8.980031998433878
Ni 9.757769457424097 10.851539572967809 12.186649245420448
Ni 8.987675200400966 11.880608439058843 10.030753350504352
Ni 7.754785644127942 11.643294073587676 7.965512015698522
Ni 10.209986262730757 9.333282889613443 5.949436449894869
Ni 7.079370706427022 7.819738851016966 7.984976748049121
Ni 12.162130356507182 6.732585982823174 12.163744376473003
Ni 10.719526816070733 8.659929826845401 8.232502523417713
Ni 8.690817240561925 11.534616343013733 14.09963679926136
Ni 12.60033656286756 5.797027276550222 9.869519035640764
Ni 12.730760499271764 5.300350149264645 7.474977338907182
Ni 10.416300919747199 5.960236194230099 10.778353251619798
Ni 10.320812077625666 10.99378495032376 7.88842666271658
Ni 11.477458540808536 7.187185926775635 6.320008714297828
Ni 6.898391394777331 10.032983173292038 13.5925087546115
Ni 7.173514774647901 14.059005965359583 11.156076494122752
Ni 8.072523119738786 9.633384558779756 6.887475634441455
Ni 11.235074975988148 12.919742234083431 9.00818986840775
Ni 11.042236511213272 12.717328743205146 11.247979223495882
Ni 12.47610113341074 9.329953016409727 6.702166729600928
Ni 9.296513356561864 13.343021803554619 7.80283005800979
Ni 7.539769584537121 10.149022641524594 11.318387897885499
Ni 9.370020370992073 8.507123905962791 11.21204211627689
Ni 12.928301735237577 7.465276503626461 8.180617141005468
Ni 8.972389285862684 13.170113122124064 12.26524674123924
Ni 9.173849954263552 7.435504271494454 6.944421559619028
Ni 6.427198576931348 9.93363454921049 8.968810442533606
Ni 9.110157348546611 9.172760795873112 13.691982455061002
Ni 7.035608321195106 8.074828336645679 10.319552379753214
Ni 6.607878331661833 12.017311132608578 10.088382173449904
Ni 10.79633091697233 12.660228326842532 13.625996390841017
Ni 12.194914078068637 11.075584991572295 12.451194287296927
Ni 11.210884057179987 13.17481639007201 6.601030348251934
Ni 8.145907780795373 6.1716657165012565 11.283546339547714
Ni 11.293462269963353 8.88917741201848 12.605767301664809
