51
Energy = -227.45325481 eV
Ni 8.023221043068741 9.145950157706865 8.199599181355056
Ni 6.61924247080341 9.725803081166104 10.046783527309799
Ni 6.914247947072407 7.495405814243686 9.455993600072421
Ni 8.960454210787002 10.466055630139314 6.498868337319802
Ni 8.753384661694696 8.023822712600461 6.302925477048715
Ni 6.586649836737214 12.01480139131861 10.522168165443826
Ni 8.344972255930477 6.172382970282132 10.653343998898706
Ni 7.336981695685512 11.45892692698139 8.129779163869966
Ni 8.98989997784802 6.912174571765184 8.414288789559608
Ni 7.5267364100367145 8.165543975151285 11.754716626770012
Ni 7.640711447239323 10.50065864041472 12.120147112180428
Ni 9.198701321151189 8.56361405866325 10.209870856880313
Ni 11.177766266412005 11.350159407124215 6.325666423204286
Ni 8.24638396791314 13.347243778125295 9.360881331647713
Ni 10.887333705665014 9.012978573454337 6.412386839593598
Ni 9.104442495550048 9.157046530560065 13.454133840849005
Ni 11.850010062141289 5.526087956462891 8.328063314573699
Ni 6.935088136015011 12.680205467749822 12.8912126363446
Ni 10.608884838019101 6.31461838283853 10.12052757860848
Ni 10.684693503115794 6.737874977337799 6.7957630221328165
Ni 6.881592819512759 14.255876613421503 11.080748266950055
Ni 9.72266957545426 7.216054192573696 12.223527698651399
Ni 12.167085467460703 10.303901203950176 9.9400024222051
Ni 10.461273179757733 14.212039053755404 9.052938557983925
Ni 8.82943139153103 12.699443669293649 11.598231442603884
Ni 14.425355693332639 10.413790823333665 11.063458869193477
Ni 12.945693046679866 12.326421825714577 10.853191934991967
Ni 12.537915775855861 10.303960703578525 12.377924541436157
Ni 14.117114164783166 11.334774292093437 8.928660094177657
Ni 13.942493122790168 8.914942602715248 9.298797276883217
Ni 11.386514415623433 14.131778356870484 11.268370933460746
Ni 11.507729681377352 8.333854381089228 13.365398470495416
Ni 10.632844800446918 12.174310324333208 10.170106147125972
Ni 13.63192898269807 8.246326037716248 11.725831637982768
Ni 11.003047074053747 10.462143749584724 14.162737199793398
Ni 11.23179189344428 12.24114551624599 12.613647635694884
Ni 10.117029563409924 10.326935137136058 11.739001535910257
Ni 12.032679189986476 12.30033744622061 8.334301378553127
Ni 9.168135379314545 14.923365139598273 10.990980851915504
Ni 12.665379801546656 9.97521436656673 7.6046550059498275
Ni 9.049451118929257 11.662536677559437 13.684870718004388
Ni 12.943870060512419 6.882544012262158 9.869733825458777
Ni 9.882383816827314 14.046785431886905 13.158684953794928
Ni 12.047857632348874 6.396360828323596 12.06590165826726
Ni 12.959596725589389 7.542254256761912 7.483026203736808
Ni 7.778845674913808 14.914688818637243 13.069731463156328
Ni 11.434011507167813 8.432679105131479 11.063652435809017
Ni 11.15366748370998 8.150033707496943 8.681537856352477
Ni 9.592848294192724 12.430672014357256 7.723049327020866
Ni 8.61231792174844 10.912940663729787 9.940345754194542
Ni 10.32226798288848 10.335163534750263 8.44446356935683
