54
Energy = -240.68840704 eV
Ni 14.958194150843068 13.615963027479776 9.511401396187413
Ni 13.912945112645875 12.761334894088474 7.515948747340337
Ni 10.399277057848051 14.494686146755255 8.968253885204987
Ni 12.680212315561407 15.099413996420628 13.001844070815073
Ni 9.391141072563716 12.485295222640357 8.735070622432676
Ni 12.65950403052992 14.110866548843859 9.068367869508554
Ni 11.482104100216251 14.885605920615255 10.992839677533446
Ni 13.40721973636083 13.517683387357577 11.42939782912163
Ni 15.499503725487562 11.420739364203552 8.765225168976562
Ni 15.143748319187466 11.855057080583377 11.10207682868489
Ni 11.605870680520276 12.131460847087848 7.962093276600702
Ni 10.414454101941436 14.494767708487739 13.014491638614599
Ni 13.288015713375666 11.935565948820415 9.647368768588228
Ni 7.290700335833598 12.758272975712552 9.784031274024601
Ni 9.150077240269557 10.985824970409086 10.491843191605158
Ni 7.623953282458241 11.060524920190607 8.190833352723185
Ni 13.495334570979532 10.411985795640554 7.87220747404156
Ni 9.142722262374589 13.79137399064207 10.983073435369334
Ni 9.65307809165342 11.118911454093015 6.902116731147684
Ni 12.056657687148249 12.870114429093928 13.318429126522242
Ni 11.14601278055629 12.591510397524491 10.515322536449139
Ni 6.915797259932378 14.278088779254022 11.522993804298727
Ni 12.62918106394394 11.069365935080665 11.784944877038221
Ni 14.224130209449026 9.816596665639997 10.05335008437042
Ni 8.275908777349425 13.723353340405685 13.362929687108222
Ni 11.38366033900144 9.663631941191507 7.405302839685864
Ni 11.464455965097946 10.318030344613588 9.722269847269052
Ni 14.915074457067066 9.819312394726495 12.240157258783023
Ni 14.22972903997852 11.937915327892094 13.267140417263116
Ni 9.291571466433876 9.444637551242758 8.548893839430962
Ni 12.72623177242867 8.371451141248613 9.006095347502681
Ni 12.718109989185821 8.631285125013216 11.498607776471198
Ni 11.224252791880525 10.785932777658193 14.215797607989773
Ni 10.091554052627908 12.904568660923353 14.764574726115269
Ni 9.901842455453934 12.01516796840325 12.564126624149562
Ni 10.568194144636175 8.169224871741825 10.25334863742525
Ni 7.454594524178228 12.038259830217129 11.997050072646077
Ni 6.988980082249174 8.81819591177348 8.539766226811242
Ni 10.754668266150501 7.494391030165225 7.9486899022111945
Ni 6.880082777662585 10.391127515621394 10.370907280228407
Ni 10.56539549932268 9.762205851531078 12.055138247249857
Ni 13.18959554830342 9.767521370969044 13.688043319856071
Ni 9.73253603770624 10.937464241569236 15.991691731972141
Ni 8.173881364300867 8.406694125570262 10.531774838257407
Ni 8.561602815965594 7.0869040003211135 8.612427188899103
Ni 8.158720117397783 9.850001213651137 12.405060852659664
Ni 11.807786110238615 6.277451220857812 9.759589621804732
Ni 11.390774811444809 6.704078118187616 12.01237629047302
Ni 8.277678332449312 11.448798738880553 14.203216309706436
Ni 9.376522538492644 9.320950623345558 14.339606651695789
Ni 10.057105949580809 5.321023399229876 8.537279070340162
Ni 9.443319732943898 6.201810857706522 10.650389579501534
Ni 11.409332932645338 8.291929491322847 13.70640893783709
Ni 9.341549537818869 7.7468572514403515 12.495756630286131
