54
Energy = -217.47548864 eV
Ni 6.915289876311301 13.442830262233464 10.717426318789833
Ni 11.864442426760947 8.501647455176961 13.64845316410431
Ni 16.973927184607106 9.797470841622701 14.714809599920985
Ni 10.193026821438977 8.649516175207827 11.885166075210174
Ni 10.610385032358872 11.676867363312766 15.259943421284607
Ni 8.474588529658773 9.704016499055935 13.192549744437201
Ni 15.2667837179793 16.02791614281887 14.722528833858398
Ni 12.495624400317633 10.846413611943612 9.509553575514213
Ni 10.3983195352779 10.400788141338559 10.316030886389264
Ni 16.08420516350882 16.540862810922693 12.707742673678053
Ni 9.761026913758876 16.978764629461523 11.521167839036515
Ni 8.88067553277213 10.035617852765151 8.606624094404415
Ni 8.344468131167682 13.49551325042846 12.562820982169795
Ni 14.804670452608669 15.198725430043694 9.332905770261416
Ni 10.967125176075506 10.767602640394971 7.7325860956108
Ni 10.189075915459533 13.940899817425805 11.115595281161548
Ni 14.248667962114952 10.943585384298443 11.09286713447347
Ni 7.35201846575259 11.423053898396336 12.05797714011911
Ni 8.739305800296622 14.055906873745643 9.235894057609128
Ni 8.608282699704636 11.94837978589357 10.120800416847171
Ni 12.847411066878841 12.266036811643412 7.749798560045064
Ni 16.18378629805469 14.239209930120674 13.56790123057785
Ni 9.062153962275653 12.23464236260992 7.770934568716883
Ni 8.671248893670649 12.290703684501233 16.358646609809618
Ni 9.204586718054268 13.961817531277376 14.83377728004141
Ni 12.306362781263893 9.762607937297922 11.677105553506365
Ni 11.815480169948147 12.108600571593708 11.412935589143013
Ni 14.904946539416166 19.059876978602247 11.172971665307774
Ni 14.17634302510684 13.04684487211401 10.069221980753824
Ni 9.195597734341222 10.466932471092653 6.319864257593252
Ni 14.644729961678763 11.023136801617325 8.726553855882859
Ni 10.883036922257885 12.710819921005468 9.216943817024857
Ni 8.182245469312793 9.57520838311257 10.812371641499087
Ni 16.457380652665016 11.195204261258217 10.212110990988005
Ni 15.781443009180245 12.542446530845542 11.945348502535994
Ni 15.240504040705833 14.689212901551013 11.50873877440308
Ni 17.071679326727423 12.022263350329265 13.846128667145186
Ni 16.300469625007906 7.697242298020325 15.151993842142582
Ni 10.47549211362704 12.827164320531654 13.241814266841358
Ni 15.000732933747882 7.057904104225189 11.572308474363151
Ni 16.487285566349783 8.201732402019317 12.931161140247342
Ni 14.132894749370047 8.797076711167009 12.748467607064555
Ni 9.815008762137385 15.272359714100311 12.997042941016822
Ni 14.511524261527962 16.838648468330344 10.947696375798387
Ni 8.236501537703093 15.394982851430706 11.17133474744506
Ni 15.500869056468307 9.109376888091141 10.707887358920896
Ni 9.626066049180496 7.916158328430233 14.203859675888838
Ni 8.159380826245949 7.576864794126973 12.16989351344303
Ni 7.301317417306764 8.055309011373165 14.230482247648519
Ni 7.146816748154214 7.035752762446984 16.11164522588943
Ni 14.316708802191219 17.927990926653333 13.025212249852366
Ni 10.715036607380993 10.491823605589241 13.36111617023091
Ni 8.436293034088152 11.785272828195298 14.21263971676361
Ni 15.95806024407004 10.3792701643318 12.738765358156355
