50
Energy = -223.73452345 eV
Ni 10.837688162898313 11.18150334352254 7.240364196737839
Ni 11.662995724787471 9.626609727521359 5.75144543326976
Ni 12.07767953189971 12.393846262027365 8.890435648934728
Ni 13.102306907625728 10.563079383457538 7.523790477815405
Ni 14.058943669904247 11.430263255929859 9.545827075507418
Ni 9.32740894135788 10.051195414080953 5.79110207838245
Ni 10.24623109311065 7.740008775552637 6.229341350901841
Ni 9.680329581196556 9.10021235442416 7.994851110748936
Ni 12.101084081814188 8.383837687841314 7.653307377419469
Ni 10.277439171956903 13.378124293625302 7.741803727044138
Ni 12.969630224649695 6.794154814619593 9.239821683132847
Ni 12.866657894368908 12.83172746785231 11.159587417018551
Ni 13.677999772061527 9.076164659119199 9.363899796580373
Ni 13.081742862445203 10.377732803585054 11.339601282485427
Ni 7.905815512654842 8.344453298152018 6.5055868467586055
Ni 6.9872991257447365 10.550230606366693 6.132485246095603
Ni 8.54723410532953 11.878368305902356 7.167288585843899
Ni 10.87757589775596 7.909615561178771 9.744997347991344
Ni 11.576522117358445 10.110282123504824 9.365390067795696
Ni 8.746728451074357 6.272811495479089 7.334691417979588
Ni 10.953096351323302 6.288959429466183 8.109239515778565
Ni 8.387474174307618 13.373079406531872 9.097283089525195
Ni 9.393999576125744 11.21933768893912 9.327760701263434
Ni 11.327025134121863 6.000259945584134 10.84694404067079
Ni 10.607096262335178 13.830938367771136 10.052518897340757
Ni 10.900246302913754 11.720918358841352 11.051423328694744
Ni 7.4569874754703545 7.607526201914003 8.71070919272395
Ni 12.807529508607827 7.950639612853189 11.293958612492409
Ni 6.504141771021824 12.107577874762182 8.35411536023208
Ni 9.146321016995039 6.337526696765473 9.71673895427945
Ni 10.862168604150064 9.36730094638551 11.58402968176066
Ni 8.819889897816417 13.001858143474433 11.399151986207086
Ni 7.427393811391387 9.944354327843643 8.287911010608212
Ni 10.932773702476155 13.59355791316165 12.431530964112284
Ni 8.726485341784628 8.982148014617696 10.230810273679355
Ni 6.6000934843240975 13.261011408116666 10.606629423626268
Ni 11.853891185332348 11.493621017479196 13.139986120727086
Ni 7.140777720917059 11.079297345337023 10.370099194803501
Ni 12.602059533535826 9.204037236688157 13.328780859943773
Ni 8.942004246144965 10.63864774366722 11.913817444371007
Ni 11.052064547653442 7.421159777808504 12.855658921366821
Ni 6.077837575802641 8.98456675267123 9.964138726458609
Ni 7.349745748767513 7.272767522903429 11.093708367301163
Ni 9.252912874386928 6.119379315281129 12.021283166583922
Ni 9.50214157324616 12.060325918092452 13.606019908806783
Ni 7.120916785917293 11.93006822443516 12.658645342784839
Ni 10.364925116395192 9.732995873508715 13.865350060113512
Ni 6.861535848958916 9.466915682373141 12.101852747020818
Ni 8.84066615117677 8.298484863631659 12.678413401111051
Ni 8.030585979951173 10.17061688869755 14.039972670513563
