5
Energy = -15.30184108 eV
Ni 9.819052296142859 7.968033689264077 8.802027114826501
Ni 7.987737161028382 7.905117533491784 10.449998616282578
Ni 7.67685088669666 8.154961351422028 8.00574866908794
Ni 8.605880448414549 9.853995867509346 9.236410147532917
Ni 9.402037530055091 9.60663974786025 7.00419962498719
