5
Energy = -15.29838745 eV
Ni 7.520440261907842 9.021685189932299 8.330694088478431
Ni 9.136004319761197 7.528414306486573 7.7217220393479185
Ni 7.806979083734429 8.568184275382318 5.909126744459952
Ni 6.925674050508073 6.997568327766653 7.436294183453243
Ni 7.716593906907138 6.95224712055225 9.671607850422665
