50
Energy = -222.2348009 eV
Ni 14.397151813762848 8.834857080927064 7.95134236733306
Ni 12.63054249167809 8.542337614233931 6.3934412328320995
Ni 12.717583445928877 7.154826597739951 8.659985608444405
Ni 12.894792481526245 10.944127382613017 6.738377300347604
Ni 13.470941160174071 8.799077810206992 10.30723884914428
Ni 14.107454457170263 10.896911602055717 9.03103329828537
Ni 12.019477078756305 6.671805250613563 11.155612092290061
Ni 13.53826888346971 11.008215606770104 11.377731579681043
Ni 13.710498762897696 13.037453486183093 9.857962710984562
Ni 12.263555046694655 9.54196826428558 8.429450294773966
Ni 13.169277237698678 13.1422859766695 7.57480510551568
Ni 12.129748089717554 8.945609204397877 12.28600181721215
Ni 11.058501478195229 8.256507772596668 9.970284016405433
Ni 10.662873079986122 10.056643640022982 6.40736645380409
Ni 10.670857315107416 7.901780259589902 7.517009148273129
Ni 9.436603676522962 6.676429572548709 11.115038812834843
Ni 10.554999746803912 6.10790273564267 9.093169185353162
Ni 10.486669615280174 7.409578004792958 12.959348656802614
Ni 10.836668186393775 12.386590775391896 7.027320151839714
Ni 11.883242632878126 11.841014171828636 8.939085562867344
Ni 11.42144665241072 10.46267583621578 10.686187147251706
Ni 11.71486495667719 11.244882640567136 12.997533905314038
Ni 11.413993584566763 14.051844137750228 9.132204281784096
Ni 9.508614174756238 9.23908782007027 11.400638699496211
Ni 11.87524641995239 12.85532574578981 11.200955087175775
Ni 8.214195888544962 5.561004184011857 9.446801573248583
Ni 8.811296943177725 8.122499845067503 9.296023916068421
Ni 8.746726118877252 6.572839413833293 7.468520352917228
Ni 9.739060898412475 11.788641246805058 11.697091200325609
Ni 8.681119146298174 11.273705470393566 7.175943270363228
Ni 10.777534339830437 13.50653677397989 13.150914921935767
Ni 10.102560238803804 9.572764899301438 13.61560049805045
Ni 9.49400711957804 12.60528362068363 9.12198222993416
Ni 10.037484088573377 10.157436759134903 8.678641531900512
Ni 8.563376135053627 8.885664598241696 7.006552892591885
Ni 9.773769399310924 14.053916037456032 11.027649315681957
Ni 9.728697554879814 11.760246698592496 14.259636105746784
Ni 8.054438066160358 8.187640967572783 12.80684241495956
Ni 7.113045093249535 6.713882788003812 11.116249782975853
Ni 6.764820907021574 7.419609840571927 8.664465098888261
Ni 8.31066804561651 10.738290861532175 10.085537386694162
Ni 8.38940552328091 13.25042607983928 13.001466106561256
Ni 6.907674012476126 8.885718983683146 10.591792884266237
Ni 7.121445846347265 12.242099640501829 8.642202826155346
Ni 8.073266768155824 10.667863013679383 12.936772510707694
Ni 6.953734098658133 9.87652643645934 8.400743829953614
Ni 7.6698324896192585 12.851889293832679 10.834716773531023
Ni 6.040233312273206 9.72512109400048 12.522011307824764
Ni 6.032478527967265 11.06857512815452 10.457678996871987
Ni 6.293691440749734 12.119387380401019 12.58147406273678
