55
Energy = -249.80929048 eV
Ni 11.285066763082723 11.285979391388778 11.284725489685757
Ni 11.282014385744887 11.283697931250233 13.639743238720342
Ni 11.288179505523058 11.273799070347613 15.921648174929475
Ni 13.011421450850976 10.01876125042787 14.739749907841471
Ni 12.973068359089769 10.054048569706909 12.344308734624704
Ni 12.972178839338225 12.530642511357176 12.342472120581297
Ni 10.635655408470422 13.280467390058577 12.337641974640544
Ni 9.185036595041918 11.277476012016605 12.333732842175328
Ni 10.627839606169514 9.286246559721233 12.340327931507513
Ni 11.92804210170939 9.289804130283246 10.232526109473442
Ni 13.381326455741657 11.295577817137328 10.237812092909572
Ni 11.933994703484807 13.288823498324751 10.233287758675907
Ni 9.590954547396668 12.516008158229287 10.227655511864857
Ni 9.5882904951917 10.046024952349331 10.227552354223501
Ni 11.284178972445208 11.293258232005885 8.93222452722124
Ni 14.653529482538257 8.838993438693706 13.363212983290541
Ni 14.619530673621462 13.738014302588917 13.374577467529717
Ni 9.990157114053165 15.233229059277269 13.367759573236652
Ni 7.12623265007211 11.283807733538584 13.354864480095078
Ni 9.993303563133463 7.344657444089597 13.365429278304491
Ni 12.586158349064382 7.330517604982263 9.205076012440431
Ni 15.454022425916078 11.284205647294263 9.215873990717956
Ni 12.57721510735048 15.225538815059988 9.20899402067968
Ni 7.924584860485811 13.725784438241417 9.205195188227819
Ni 7.957078312141717 8.835180788194245 9.1934245473141
Ni 11.290123242312303 11.297568020738947 6.647903155038632
Ni 13.007583213912948 12.54778482266817 14.759252759495565
Ni 10.626050268900485 13.31186698497486 14.75229923328153
Ni 9.146388117388835 11.268340892562744 14.74474425823617
Ni 10.611168188509076 9.246556606344871 14.753949910902447
Ni 14.715782430605028 11.292330744665241 13.433422515558483
Ni 12.344250568625968 8.002996242452216 13.431200533623782
Ni 13.646710979025455 8.005452761106916 11.29768708259275
Ni 15.132050246765035 10.055511992400254 11.299360527136095
Ni 12.337244451857464 14.576634265285792 13.424887760647337
Ni 15.134790240076246 12.561920272972076 11.29023248364759
Ni 13.669746188609198 14.587831449271846 11.291689532171613
Ni 8.504509632075486 13.293835534288991 13.432745438140126
Ni 11.294547675805541 15.355312951802027 11.291455237616786
Ni 8.925537460702866 14.569648322712498 11.270621298156412
Ni 8.47959359399074 9.251994074810145 13.41216358480449
Ni 7.430941344754907 12.505813592447522 11.265020630963297
Ni 7.427106566068673 10.006423021950326 11.27736521273924
Ni 8.901168313903293 7.984453686746609 11.277703285531478
Ni 11.277229455033936 7.2230933176025225 11.283356098614128
Ni 14.069708406296424 9.273324004749757 9.15303191277578
Ni 10.237891579300651 7.9943520189798205 9.14545273712667
Ni 11.953107082655855 9.262267593959972 7.828090638875033
Ni 14.090497069940621 13.31503801663595 9.15919244743686
Ni 13.424915984346294 11.30084580796469 7.835251881614243
Ni 10.224614609014363 14.572511094294281 9.138730365387724
Ni 11.963504786449443 13.325590028422596 7.816988170506121
Ni 7.84833701380505 11.277232327482073 9.122407599117441
Ni 9.565416167830978 12.552765871047383 7.8256456678495185
Ni 9.570174393776787 10.019908932094392 7.8080817295017795
