55
Energy = -244.26212814 eV
Ni 11.991337496288622 11.455914245175071 8.112109035781199
Ni 13.391780649437738 13.37329775880872 8.60003207907711
Ni 13.15756006623842 9.573190520745852 9.003491500897987
Ni 13.453812886784139 11.608119171415902 10.074223099840342
Ni 13.634637723441037 18.35508930198231 12.261192224945562
Ni 12.619267009978632 15.248337839921318 9.884713869787841
Ni 11.265454762782513 10.612056518963149 10.167915794407168
Ni 11.266830584702218 13.160929538172244 9.604894750891258
Ni 9.675849128771068 11.658356752665663 8.78130516186719
Ni 14.703793949108379 14.150541885784152 10.363328868755172
Ni 15.815863684687766 12.104095522737602 9.955392155517098
Ni 10.664015958586385 14.884682268759917 11.185094020991258
Ni 14.23336321511915 16.306690880564407 11.274360257635957
Ni 12.966546260860426 9.35288123643845 11.34469899702458
Ni 11.898524352123669 16.960667688969597 11.473296176479549
Ni 15.093766900964456 9.910608130937291 10.392441378184502
Ni 8.969253815731543 13.341945824714369 10.31041273840443
Ni 10.293686523209034 12.22400038073999 11.862775333104919
Ni 14.714276153665967 16.754013591088746 13.581017668780675
Ni 8.95004583898723 10.678966607165863 10.813549989468838
Ni 12.631278971455194 13.513976858926839 11.523669897879078
Ni 14.632376533803761 12.270128300041854 12.021412298011574
Ni 16.70471418887249 13.503855255232075 11.64065303651898
Ni 14.877086611579962 14.518539799746899 12.732237974872382
Ni 12.34883211224673 17.39405034554737 13.954578420138807
Ni 14.921122323918805 9.267661473004132 12.635530219003964
Ni 12.623842678794828 9.50444685231151 13.83246817978727
Ni 14.518589543294253 8.768677549874358 14.89039117453995
Ni 7.787100744434596 12.332534410606016 12.089485713154621
Ni 16.498509508772845 11.032963119620693 12.079337819870359
Ni 16.63897000279774 15.268388631300388 13.914496158366418
Ni 8.777563403868436 10.52198828194366 13.19066649952034
Ni 8.816230847254877 14.422928055804428 12.50068936402038
Ni 10.872537595774288 11.21810953808047 14.142348076150018
Ni 10.763001801229153 9.69821646475601 12.283604759352349
Ni 10.426782405504479 16.129238181345453 13.246022823790991
Ni 12.735190304121163 15.386891289457724 12.92622675384089
Ni 12.497891748251561 11.366787848007876 12.436574872234624
Ni 8.996431100139088 12.676454752406325 14.112118813482352
Ni 10.929003171231418 13.839527475522228 13.44082467895836
Ni 16.18239931831597 12.822134386756622 13.83514455343394
Ni 14.546211609040723 10.99594042856849 14.05490034422367
Ni 13.175981620401176 13.13546998820006 13.985773608536546
Ni 12.701143988772326 11.292384204651905 15.698411805675777
Ni 14.393322091893436 14.964560799372206 15.146122555878929
Ni 10.849994612048302 13.005003405154836 15.63146616674544
Ni 14.870750278710139 10.420533889483485 16.441209687555848
Ni 11.89728624751983 15.270336158801662 15.090967438500337
Ni 16.199355549683254 12.171789666103042 17.461334774897864
Ni 14.790609258279112 12.63239782169724 15.720523309216395
Ni 11.553830438445207 12.046715212800887 17.63218840815657
Ni 12.82033674604676 13.742485303626873 16.560152005491634
Ni 16.602375758989393 14.061129433968595 15.87391339492156
Ni 13.847365881456986 12.014567028919549 17.854134216466942
Ni 14.93410294001037 14.196591021034996 17.4959639933897
