55
Energy = -245.40797705 eV
Ni 15.155423652510999 8.186216904962555 10.208621334116868
Ni 16.00509132554385 11.446327267918042 9.572686872355687
Ni 15.928436892719366 13.871476113943864 9.69360711809346
Ni 7.783954160154441 9.061780221258653 9.626790825887234
Ni 7.697248303994685 11.438305701517347 9.712419367068454
Ni 7.740541723885429 13.839494002067559 9.940290215237855
Ni 9.867394411526636 7.822256195236196 9.524355630698334
Ni 9.822139358245934 10.181222732510426 9.547461394684584
Ni 9.80657441844544 12.61361480409594 9.655750559475798
Ni 9.708603515768969 15.118417076142618 10.0241991124908
Ni 11.93949362642506 8.966136081830843 9.522178731455869
Ni 13.12036924697516 6.970985861673242 10.20837351914178
Ni 11.84894688458671 13.815455889230881 9.671180487082017
Ni 11.7803679001452 16.221438593830978 9.966497803536871
Ni 13.356196980776296 8.88603043211368 11.508598851982113
Ni 13.999968338524448 10.187990354467228 9.539202680234064
Ni 13.96530311375574 12.62630301496439 9.585373950688544
Ni 13.893811249017963 15.09550901886978 9.764574000702181
Ni 15.224638018007296 8.09598792284082 12.655711992688767
Ni 15.51895848739509 10.15396690232081 11.497643411290701
Ni 15.600573813856602 12.570027409920097 11.598007778248302
Ni 7.022325477909957 10.09368382924539 11.646614372827075
Ni 6.992375502018736 12.493223004614 11.751891054541604
Ni 8.103339159053297 15.522241355932001 11.884149035751667
Ni 9.053172253410905 8.707609840752955 11.54871010724889
Ni 9.077003216013557 11.183983971618588 11.652920291735272
Ni 9.174683268550089 13.539997844058913 11.767599429140903
Ni 10.14824130210071 16.719292492061427 11.896842342394022
Ni 11.228954841548287 10.031211913649804 11.604748309000243
Ni 11.206230539581359 7.6086966849249915 11.464298338924234
Ni 11.330747144137908 14.805823815511024 11.784234419554748
Ni 13.287418845779714 16.219576168414317 11.801835233585958
Ni 13.119994193647258 6.863752623480392 12.650300193581467
Ni 13.387789422174732 11.300868705209535 11.623782054006305
Ni 13.430055667146492 13.743854442591301 11.693562522655748
Ni 15.367695943901104 15.024647487440639 11.71439577180586
Ni 16.077674597410592 11.27463781142193 13.503269877094317
Ni 16.009455504702654 13.7017501600885 13.598139497021878
Ni 7.844550408450733 8.882113668008575 13.536737412800175
Ni 7.764173549981509 11.258400508823652 13.66186464789503
Ni 7.8062376486449105 13.666484770051177 13.661720517224886
Ni 9.938015284672698 7.651034320857717 13.459173308172844
Ni 9.8814677308436 10.004040104399486 13.65351526800219
Ni 9.874062527420572 12.43120575037926 13.774287031622736
Ni 9.774869200807938 14.954660965867248 13.629813826848476
Ni 11.999604181597224 8.793539739107983 13.585560875902507
Ni 11.924682614572566 13.644571710208231 13.791626425946458
Ni 11.851323150778128 16.061600776701376 13.699013300932268
Ni 13.925982420509383 7.886152377346609 14.593226732198067
Ni 14.085336249093572 10.014916397314767 13.602037784779686
Ni 14.044249192019505 12.456967361407871 13.687832172630817
Ni 13.969032995677443 14.926255718438485 13.70970297404293
Ni 11.974262634533682 11.21321907316574 13.70063336730958
Ni 11.288091152209802 12.404923147695293 11.69964066879168
Ni 11.907011756840031 11.380263957496993 9.576940196869154
