53
Energy = -236.5728542 eV
Ni 14.672553359699844 11.928874006833333 11.532709329609792
Ni 14.836590790937215 9.310782258078774 11.621378716818969
Ni 9.67897439679933 11.667326538765256 16.1439672234088
Ni 11.350813484718524 13.681625344153613 8.624321611667423
Ni 11.43287763287236 11.758024552925663 14.128757693643458
Ni 13.946196904145234 13.590747476360402 15.742824734071604
Ni 16.79031770530546 10.509733219036937 11.47754338253813
Ni 15.309998279285505 11.104692126307556 9.570104540316668
Ni 9.810053225942362 9.967081135310712 14.543409215088104
Ni 7.840069553324393 12.50153356391366 11.696089578608985
Ni 12.0204584720978 16.649435177015487 13.766542648767937
Ni 10.248878067061826 16.001322501119237 12.254369356894214
Ni 13.460075883670058 14.025692614167973 11.54348293549276
Ni 15.770551181596533 12.968380361673734 14.555719164933262
Ni 13.201692554644236 10.546779312031443 12.861618154559475
Ni 10.849412894632563 10.287500060594324 12.328809888857542
Ni 13.611677435327705 12.786860865311674 13.569811475489388
Ni 14.340763843225016 8.808604269835536 13.906033716917642
Ni 16.609928724518088 8.867410257376234 13.146757602253503
Ni 12.522639778649179 16.181252276859567 11.546644931949256
Ni 12.085834012597273 14.91066191807175 15.38075171709859
Ni 16.937532021130185 12.662797895105037 10.656402696058814
Ni 8.804019752706155 14.8311597779769 10.835066560291654
Ni 11.918223726643912 12.62008705624862 16.235588891479253
Ni 13.902973688331612 15.172422145688282 13.649222577736726
Ni 11.21643604717611 11.357845430448842 9.361646017002387
Ni 10.19728904887658 8.216383125539792 12.863721661335934
Ni 9.284381125665707 10.778097175863653 10.64923104610245
Ni 12.137631404902862 12.111580473653857 11.497799501964668
Ni 13.06948765549075 15.100897587998348 9.483195907093574
Ni 10.773528163960696 16.134595009174465 9.850023918303457
Ni 9.44952976610207 12.891952357505618 9.842803200256306
Ni 10.990948184314266 9.129868882456423 10.354880229666831
Ni 10.004903295161782 12.591926234185234 12.318103182022014
Ni 8.677242795211324 14.322265342440124 13.149053478632958
Ni 13.60366570988902 11.036345195453801 15.207961183139416
Ni 15.739425085244365 13.94882168308135 12.436488288089256
Ni 11.142485421712175 14.172998464456775 10.854264332304657
Ni 8.526152220431218 11.999443170752189 14.017665984928975
Ni 8.454086764535761 10.069842294556388 12.636639863133182
Ni 11.556367315638022 10.27562205757183 16.186827768808786
Ni 11.617224739196258 14.210417101095677 13.207113717359892
Ni 14.860227959085655 15.85321888549827 11.2513776013884
Ni 12.006807655712736 9.078635855404631 14.24980996388557
Ni 15.182575711085779 13.925433438821479 9.888633655501257
Ni 17.069454536158815 14.999622664582118 10.86641853395481
Ni 10.074954293056066 13.586384169632833 14.961298867209194
Ni 17.334585619136092 12.267132463103994 12.936148013742192
Ni 9.977309392599393 15.83989114363246 14.568003564023606
Ni 13.100911438587426 10.260797369123468 10.360938333034541
Ni 15.524835953057394 10.868728091035322 13.581991267785995
Ni 12.567212123064627 8.437648206779079 12.017386211718412
Ni 13.296319233411621 12.581914528535336 9.471739962068787
