50
Energy = -222.37688803 eV
Ni 6.295663721344104 9.698789236651493 9.184997090644233
Ni 7.293441525648785 11.79431296097259 9.45969217862303
Ni 9.081452861658708 12.158233692665512 7.962957753605543
Ni 8.357011516438908 13.884436464769744 9.48672453594051
Ni 6.174771572368654 8.251410612138551 10.989356574932984
Ni 7.594792289337045 7.659538441914759 9.067243493764593
Ni 9.716889632750323 15.815346017616466 9.561416973588415
Ni 8.560603929283909 9.908234099112942 8.63314082553266
Ni 8.589634840763074 8.751255245276681 10.830752059149413
Ni 9.343515154588115 14.65331096841252 11.569910595191491
Ni 10.353614521406957 14.170197869313967 8.039351054129462
Ni 7.689046533941757 6.564978387780931 11.359629425100573
Ni 6.968373234140885 10.421033579478483 11.380076061327031
Ni 9.763116678368418 8.02213158896758 8.002606044886306
Ni 7.9569692956914535 12.679078568587087 11.565237506520486
Ni 10.959929415829173 12.424884717234503 6.580950361472412
Ni 9.333752030807386 11.035216588020047 10.658530165784526
Ni 10.492734593663918 13.117488635752364 10.155164082169614
Ni 10.161651191325674 10.165790696524619 6.862831584239007
Ni 7.641157138839751 8.542978909978128 12.922132788268751
Ni 10.977917667838067 16.387415036426884 11.409173300731133
Ni 12.381356503636892 12.93915452048935 8.449487043961467
Ni 9.613701762278593 6.722280135847999 10.045064622649093
Ni 11.931872266790693 14.93693174137912 9.748970693808696
Ni 10.905388361301855 8.982250044597675 9.96637222306622
Ni 12.70159392716311 10.963777379035383 7.123702821389778
Ni 11.552831092133525 6.708757016136844 8.7203001369433
Ni 8.603031721348758 10.773609556347534 13.047104573419224
Ni 10.951292417705359 11.077509881097452 8.825573031286197
Ni 11.682099524109537 14.292960976553207 12.041593416558648
Ni 13.29301521091492 10.820307932444353 9.46239023483443
Ni 11.992130957218732 8.893857591963705 7.80799568455657
Ni 9.679185109494831 7.225425365537423 12.441103434159688
Ni 13.101438975372544 12.998922964215769 10.690684942050446
Ni 10.119086019023218 12.575296278648722 12.552014156862006
Ni 9.582483754433856 8.836758339899852 14.29705423035999
Ni 10.477189249816831 9.493217709963098 12.289689400735718
Ni 11.685311035482295 11.19728696214653 11.205121713146873
Ni 11.692164111717386 7.03297714676359 11.135062933428733
Ni 14.351705810163025 9.405384337778727 7.979863005294835
Ni 13.278834699404527 8.00084494711217 9.540803373650233
Ni 10.783324455768817 10.954625646323697 14.137716515296688
Ni 11.75380587694223 7.911173722997853 13.41289689475874
Ni 12.468832561018354 12.380848399210013 13.10634263996782
Ni 14.062401064981659 11.13177593966964 11.79439033891521
Ni 12.914869871577647 10.093516926923618 13.63941325250929
Ni 14.949374909421097 9.392503558154658 10.38161952463709
Ni 12.847310078126418 9.041249994343316 11.539868142901094
Ni 11.678728085098156 9.180958208507105 15.37710579484261
Ni 14.836973308697354 9.107146525493363 12.736192835584083
