53
Energy = -236.87455009 eV
Ni 15.878161847728704 12.928458941288723 12.124814851171434
Ni 16.245894377185333 12.400267649593953 9.856720416734303
Ni 16.145384124317435 10.614577591580698 11.629720789379224
Ni 14.413846867926894 11.333055033354304 13.248928607421282
Ni 14.643893594248107 14.040415018295725 10.397211183145169
Ni 15.569107290364634 10.271310009619215 9.31822395314214
Ni 14.973689275082224 9.109954223428309 13.2263600182793
Ni 14.17267552130412 11.677508307927267 10.8650711914236
Ni 13.62884929193914 13.464816834322988 12.495622523238543
Ni 14.039884935623267 12.025531451185808 8.539823955802813
Ni 12.81310158885895 9.813296292873481 14.27698319429547
Ni 14.22487250996866 9.294845641213426 11.018791828483762
Ni 12.16446940852207 14.47423684604763 14.027632835171662
Ni 12.093685872059245 15.194300018003828 11.594478973795965
Ni 13.542570148890823 9.388432512322195 8.684313166427984
Ni 12.341588812019346 10.798495099705235 7.230046099228918
Ni 12.349751518646109 10.682427860964978 12.06144210522319
Ni 13.57131805382481 14.373088512833686 8.376349354232692
Ni 11.010649464194582 8.249796899860575 14.392345012127766
Ni 12.37181268560517 12.105877483152652 14.174055382899077
Ni 12.09651808501788 10.914950160948463 9.673030583720267
Ni 12.445737448221784 13.242389805468695 10.253993680002505
Ni 12.919169120131732 8.149832208088196 12.644268575467926
Ni 10.144716851715206 15.12853810520081 13.083219246115263
Ni 11.26407636575803 13.111823965972828 12.31629738123248
Ni 11.721282992692133 12.904250365048823 8.066242983213222
Ni 11.404898625094535 14.985653466394355 9.122748834188238
Ni 12.113131901543026 8.49742277875228 10.383161692329873
Ni 11.32561383129576 6.672956692719397 11.747556359256823
Ni 10.108263684763052 11.102498765792204 12.659398636779581
Ni 10.690976276569408 8.875381332597149 12.241336062851815
Ni 10.58541465108165 10.603083323036698 14.85563759430283
Ni 10.154207218478506 12.299298919273605 10.383155911392889
Ni 8.86317399243161 9.2469183417775 13.818081719786555
Ni 8.810317000275653 13.28107473020423 12.542529683301561
Ni 9.396168564098815 7.01957353929648 12.986582173089442
Ni 10.133346438938968 11.188626946723096 8.096696179985406
Ni 9.888408016096749 9.971549421218592 10.264211533687305
Ni 9.821777477275786 14.612108483614906 10.787184312228607
Ni 10.184661258123931 13.019396197583289 14.456569329215824
Ni 11.133795967649622 9.0379866648949 8.327891749086833
Ni 9.893343280720439 7.634837792201506 10.037140391610636
Ni 8.155509177413002 11.183216346240632 11.430425054494876
Ni 9.423026070153403 13.562329442722332 8.62171963280697
Ni 8.277299553004331 11.503426630120067 14.094697553505204
Ni 8.381884216427537 8.596696480821956 11.61026149580209
Ni 7.758276204201955 13.383310003683443 10.437322038331624
Ni 8.070737173418742 11.489096583309024 9.065233487912623
Ni 6.6209228442777635 12.478881913953797 12.591923653289324
Ni 8.73586157731735 9.172765143484892 8.422764903675526
Ni 7.065677021392921 9.538662793620153 10.035706759089663
Ni 6.771235925544813 10.013750854024405 12.734000522226369
Ni 6.047464622175964 11.577559139217504 10.512153321842792
