5
Energy = -15.31236714 eV
Ni 8.768480909708924 8.394347632300402 7.879685619278427
Ni 7.916276606072592 6.113184632654458 7.517689562609862
Ni 6.418590752122531 7.728436510325537 8.148334722606243
Ni 7.344297824656097 7.776320083397216 6.057683635816255
Ni 5.69192222883153 6.097229291290294 6.4635149128153895
