52
Energy = -231.91136423 eV
Ni 13.729540739182598 12.32547211362383 11.101236604761475
Ni 12.924063011228508 13.768844368171868 12.81146390193127
Ni 13.958343102845996 10.006072903173763 11.48276102969794
Ni 13.313661260798257 11.509774195653444 13.394840562456276
Ni 12.942914373740667 14.78009291088774 10.627587314405368
Ni 13.840796585150398 13.190613591126025 8.939201283579823
Ni 13.361444376063265 9.190900217665257 13.72068594519925
Ni 10.78860826439535 14.179707572644414 11.933974300931334
Ni 11.512716580922017 11.878717762855231 12.04825204354984
Ni 12.06467316149432 10.864157522665474 9.966115400509976
Ni 11.085273697899316 12.744164807129414 14.080739268816002
Ni 12.081368998605024 14.563037161667111 8.145928362629958
Ni 14.070061435897086 10.783768083566006 9.04990028538729
Ni 10.59956346982524 15.251801853078549 9.85692403796848
Ni 13.329857601441477 7.639785798655103 11.977111040357386
Ni 12.129851172392693 12.110140611220809 7.695402199944776
Ni 11.271251294873046 10.282205822836255 14.093747935236483
Ni 11.642946567572846 13.134919975034583 9.877098314770926
Ni 9.060738852035366 12.822690421784479 12.706697395062998
Ni 11.41297159825888 7.869858705574729 13.50158175740152
Ni 10.124347011942715 11.117258753434296 8.434496273535803
Ni 12.94919074449296 8.541029932718093 9.81342593472896
Ni 11.728784613583857 9.430443905903132 11.88062917077051
Ni 9.837368730558879 13.513024767920323 8.344879314369706
Ni 12.072309710601166 9.644780664388618 7.866862806635145
Ni 9.72581946909228 11.948143313744314 10.522372956151404
Ni 10.618377587401515 9.088826863639724 9.860303156259162
Ni 10.757749847402238 10.736367664356823 6.203598212484761
Ni 9.52130383586981 10.500835632654097 12.325038960622818
Ni 9.63382592475187 6.477525351526968 13.461456955936987
Ni 11.250897183789995 7.034491027526798 10.957936836893191
Ni 9.156030137087042 11.240795360437371 14.470917487962518
Ni 8.692486216357402 13.972550441644898 10.570453704519853
Ni 11.279339009521946 7.381309052646705 8.354466213034401
Ni 10.814239390813588 8.36195795371558 6.18272341562481
Ni 9.373164327983561 8.207847863517243 11.737411636962378
Ni 9.190482964953054 8.867051740522816 14.027000707011643
Ni 8.79365019668127 11.977061129943518 6.7390167067097515
Ni 7.4551705768437575 11.768045862878864 11.293898647574048
Ni 9.380200919772134 9.000491774056687 7.828502415435279
Ni 7.899269052698287 12.248917455629693 9.014083174084364
Ni 8.45962044418893 9.897388951408121 10.027453666191157
Ni 7.521566038407938 7.3652686557024305 13.037726131512393
Ni 7.346028035633992 9.608632968019519 12.273277331238807
Ni 9.185331620315381 7.1802902041540495 9.49143174921664
Ni 8.676738596534035 5.995931874007126 11.408935113398298
Ni 8.660421545695522 9.721082398026663 5.793298300363075
Ni 9.170202774325176 6.850194824165292 7.154074538724603
Ni 7.436944311708276 10.350021594946785 7.78482004057687
Ni 7.186297400202891 7.819198217204687 10.724031510390143
Ni 6.2368000244054205 9.918929857491467 9.912117663139336
Ni 7.270552785397506 8.110766696797226 8.412361325694743
