55
Energy = -244.16810866 eV
Ni 11.272067262738416 13.242227946828887 9.508851319577863
Ni 13.565799232747871 12.825116524738172 8.777533553755413
Ni 14.22480733081942 16.50564702203415 10.761335109263786
Ni 12.671336261116359 15.140128512077148 9.348725200661029
Ni 14.961585989776673 14.778717920725194 9.181356301525787
Ni 13.244087841706424 9.322999388088316 11.058088452892042
Ni 11.095547223686339 10.086318738597214 11.84440397836384
Ni 12.398120262692155 11.470954726424845 10.46362415494679
Ni 10.366026565954106 15.453261570710907 9.640144940831561
Ni 13.725886248684441 13.645170717768794 10.859892529344176
Ni 15.81201430717221 12.777689802202989 10.168173800763787
Ni 15.861853875421666 14.894455942195847 11.370225349529104
Ni 15.272502104038491 9.231040245089712 12.277526295955488
Ni 11.403275672547714 14.457982675060906 11.473710635688063
Ni 13.420463541348013 15.262237212279839 12.561344046915275
Ni 16.710902668907952 10.807344506741433 11.179625303023498
Ni 10.412255455415089 12.320488121546315 11.704175261126684
Ni 17.089748837245082 12.923326891104798 12.227213837430623
Ni 14.489066471232228 11.359698236192857 11.53841623813715
Ni 11.833174001125395 16.678876383929694 10.993653320062716
Ni 12.920241956732342 10.192016969824346 13.195905526756453
Ni 11.255837701613345 16.124394577230202 13.330649083015587
Ni 15.267479287991309 16.619129844653735 13.010236936868882
Ni 14.944056049673113 13.398232767148432 13.002427006717207
Ni 13.514199302275966 7.980957236405527 13.085205864805078
Ni 13.140937605101165 17.652147289814135 12.638233620810311
Ni 9.048914332217217 10.679301601418503 12.818010808730778
Ni 9.191090389528418 15.083946562861607 14.443939757755624
Ni 16.099232293714447 11.10222183662984 13.457356487685576
Ni 10.948450103105875 13.80276913305707 13.651048401218205
Ni 12.65784339857794 12.556617351218812 12.669416475358
Ni 17.03975858246766 15.010086395572076 13.38394367851069
Ni 13.222830224651652 16.478507976295184 14.688736129072156
Ni 16.75185303559082 16.974094902112803 14.804193636509288
Ni 15.26432845420569 15.060181316336323 14.969085776113362
Ni 16.656256986059372 13.025153062675416 14.698142603621578
Ni 10.94065588553293 11.365885300354993 14.077164170800778
Ni 14.042970523264488 11.799766148119355 14.542948616901826
Ni 12.587036216346258 10.240967124746971 15.54493591190555
Ni 7.64118318653098 13.50323627756404 15.292197898946561
Ni 8.80044817910447 12.940421047553567 13.369102767153743
Ni 13.156973716250947 14.026944917506087 14.550705213582528
Ni 11.30513901997175 15.127984360895173 15.59323823235841
Ni 14.686673205804361 9.467873427441893 14.590156958296994
Ni 17.481761999638792 14.972991364014787 15.788885369456699
Ni 9.90103727786152 13.183094504716488 15.720832611854817
Ni 14.905817408715436 16.98690689494872 16.230676199819346
Ni 13.376501260848302 15.135262719487907 16.670248789442606
Ni 15.825689476397283 11.130849010923567 15.88427932942069
Ni 12.191372277923529 12.565819849233076 16.04397130454191
Ni 10.474309640600227 10.953950372186243 16.349769623895945
Ni 14.59626182217264 13.125360121969248 16.408336967099913
Ni 8.581179202950718 11.312223212416189 15.02710928330882
Ni 15.684137980507707 15.036492115270477 17.335134285364497
Ni 16.880441902495704 13.013950363858173 17.009176083305025
